(PID.TID 0000.0001) 
(PID.TID 0000.0001) // ======================================================
(PID.TID 0000.0001) //                      MITgcm UV
(PID.TID 0000.0001) //                      =========
(PID.TID 0000.0001) // ======================================================
(PID.TID 0000.0001) // execution environment starting up...
(PID.TID 0000.0001) 
(PID.TID 0000.0001) // MITgcmUV version:  checkpoint66a
(PID.TID 0000.0001) // Build user:        jmc
(PID.TID 0000.0001) // Build host:        baudelaire
(PID.TID 0000.0001) // Build date:        Tue Nov 29 19:28:30 EST 2016
(PID.TID 0000.0001) 
(PID.TID 0000.0001) // =======================================================
(PID.TID 0000.0001) // Execution Environment parameter file "eedata"
(PID.TID 0000.0001) // =======================================================
(PID.TID 0000.0001) ># Example "eedata" file
(PID.TID 0000.0001) ># Lines beginning "#" are comments
(PID.TID 0000.0001) ># nTx - No. threads per process in X
(PID.TID 0000.0001) ># nTy - No. threads per process in Y
(PID.TID 0000.0001) > &EEPARMS
(PID.TID 0000.0001) > useCubedSphereExchange=.TRUE.,
(PID.TID 0000.0001) > nTx=1,
(PID.TID 0000.0001) > nTy=1,
(PID.TID 0000.0001) > /
(PID.TID 0000.0001) ># Note: Some systems use & as the
(PID.TID 0000.0001) ># namelist terminator. Other systems
(PID.TID 0000.0001) ># use a / character (as shown here).
(PID.TID 0000.0001) 
(PID.TID 0000.0001) // =======================================================
(PID.TID 0000.0001) // Computational Grid Specification ( see files "SIZE.h" )
(PID.TID 0000.0001) //                                  ( and "eedata"       )
(PID.TID 0000.0001) // =======================================================
(PID.TID 0000.0001)      nPx =    1 ; /* No. processes in X */
(PID.TID 0000.0001)      nPy =    1 ; /* No. processes in Y */
(PID.TID 0000.0001)      nSx =   12 ; /* No. tiles in X per process */
(PID.TID 0000.0001)      nSy =    1 ; /* No. tiles in Y per process */
(PID.TID 0000.0001)      sNx =   32 ; /* Tile size in X */
(PID.TID 0000.0001)      sNy =   16 ; /* Tile size in Y */
(PID.TID 0000.0001)      OLx =    4 ; /* Tile overlap distance in X */
(PID.TID 0000.0001)      OLy =    4 ; /* Tile overlap distance in Y */
(PID.TID 0000.0001)      nTx =    1 ; /* No. threads in X per process */
(PID.TID 0000.0001)      nTy =    1 ; /* No. threads in Y per process */
(PID.TID 0000.0001)       Nr =   15 ; /* No. levels in the vertical   */
(PID.TID 0000.0001)       Nx =  384 ; /* Total domain size in X ( = nPx*nSx*sNx ) */
(PID.TID 0000.0001)       Ny =   16 ; /* Total domain size in Y ( = nPy*nSy*sNy ) */
(PID.TID 0000.0001)   nTiles =   12 ; /* Total no. tiles per process ( = nSx*nSy ) */
(PID.TID 0000.0001)   nProcs =    1 ; /* Total no. processes ( = nPx*nPy ) */
(PID.TID 0000.0001) nThreads =    1 ; /* Total no. threads per process ( = nTx*nTy ) */
(PID.TID 0000.0001) usingMPI =    F ; /* Flag used to control whether MPI is in use */
(PID.TID 0000.0001)                   /*  note: To execute a program with MPI calls */
(PID.TID 0000.0001)                   /*  it must be launched appropriately e.g     */
(PID.TID 0000.0001)                   /*  "mpirun -np 64 ......"                    */
(PID.TID 0000.0001) useCoupler=    F ;/* Flag used to control communications with   */
(PID.TID 0000.0001)                   /*  other model components, through a coupler */
(PID.TID 0000.0001) debugMode =    F ; /* print debug msg. (sequence of S/R calls)  */
(PID.TID 0000.0001) printMapIncludesZeros=    F ; /* print zeros in Std.Output maps */
(PID.TID 0000.0001) maxLengthPrt1D=   65 /* maxLength of 1D array printed to StdOut */
(PID.TID 0000.0001) 
(PID.TID 0000.0001) // ======================================================
(PID.TID 0000.0001) // Mapping of tiles to threads
(PID.TID 0000.0001) // ======================================================
(PID.TID 0000.0001) // -o- Thread   1, tiles (   1:  12,   1:   1)
(PID.TID 0000.0001) 
(PID.TID 0000.0001) W2_READPARMS: file data.exch2 not found
(PID.TID 0000.0001) => use W2_EXCH2 default: regular 6-facets Cube
(PID.TID 0000.0001) W2_useE2ioLayOut=    T ;/* T: use Exch2 glob IO map; F: use model default */
(PID.TID 0000.0001) W2_mapIO        =  -1 ; /* select option for Exch2 global-IO map */
(PID.TID 0000.0001) W2_printMsg     =  -1 ; /* select option for printing information */
(PID.TID 0000.0001) ===== Start setting W2 TOPOLOGY:
(PID.TID 0000.0001)  write to log-file: w2_tile_topology.0000.log
(PID.TID 0000.0001) =====       setting W2 TOPOLOGY: Done
(PID.TID 0000.0001) 
(PID.TID 0000.0001)  INI_PARMS: opening model parameter file "data"
(PID.TID 0000.0001)  OPEN_COPY_DATA_FILE: opening file data
(PID.TID 0000.0001) // =======================================================
(PID.TID 0000.0001) // Parameter file "data"
(PID.TID 0000.0001) // =======================================================
(PID.TID 0000.0001) ># ====================
(PID.TID 0000.0001) ># | Model parameters |
(PID.TID 0000.0001) ># ====================
(PID.TID 0000.0001) >#
(PID.TID 0000.0001) ># Continuous equation parameters
(PID.TID 0000.0001) > &PARM01
(PID.TID 0000.0001) > tRef=15*20.,
(PID.TID 0000.0001) > sRef=15*35.,
(PID.TID 0000.0001) > viscAh =3.E5,
(PID.TID 0000.0001) > viscAr =1.E-3,
(PID.TID 0000.0001) > diffKrT=3.E-5,
(PID.TID 0000.0001) > diffKrS=3.E-5,
(PID.TID 0000.0001) > ivdc_kappa=10.,
(PID.TID 0000.0001) > implicitDiffusion=.TRUE.,
(PID.TID 0000.0001) > implicitViscosity=.TRUE.,
(PID.TID 0000.0001) > selectImplicitDrag=2,
(PID.TID 0000.0001) > gravity=9.81,
(PID.TID 0000.0001) > rhoConst=1035.,
(PID.TID 0000.0001) > rhoConstFresh=1000.,
(PID.TID 0000.0001) > eosType='JMD95Z',
(PID.TID 0000.0001) > staggerTimeStep=.TRUE.,
(PID.TID 0000.0001) > vectorInvariantMomentum=.TRUE.,
(PID.TID 0000.0001) > implicitFreeSurface=.TRUE.,
(PID.TID 0000.0001) > exactConserv=.TRUE.,
(PID.TID 0000.0001) > select_rStar=2,
(PID.TID 0000.0001) > nonlinFreeSurf=4,
(PID.TID 0000.0001) > hFacInf=0.2,
(PID.TID 0000.0001) > hFacSup=2.0,
(PID.TID 0000.0001) > useRealFreshWaterFlux=.TRUE.,
(PID.TID 0000.0001) > hFacMin=.1,
(PID.TID 0000.0001) > hFacMinDr=20.,
(PID.TID 0000.0001) > readBinaryPrec=64,
(PID.TID 0000.0001) >#writeBinaryPrec=64,
(PID.TID 0000.0001) > /
(PID.TID 0000.0001) >
(PID.TID 0000.0001) ># Elliptic solver parameters
(PID.TID 0000.0001) > &PARM02
(PID.TID 0000.0001) > cg2dMaxIters=200,
(PID.TID 0000.0001) >#cg2dTargetResidual=1.E-9,
(PID.TID 0000.0001) > cg2dTargetResWunit=1.E-14,
(PID.TID 0000.0001) > /
(PID.TID 0000.0001) >
(PID.TID 0000.0001) ># Time stepping parameters
(PID.TID 0000.0001) > &PARM03
(PID.TID 0000.0001) > nIter0=36000,
(PID.TID 0000.0001) > nTimeSteps=20,
(PID.TID 0000.0001) > deltaTMom   =1200.,
(PID.TID 0000.0001) > deltaTtracer=86400.,
(PID.TID 0000.0001) > deltaTFreeSurf=86400.,
(PID.TID 0000.0001) > deltaTClock =86400.,
(PID.TID 0000.0001) > abEps = 0.1,
(PID.TID 0000.0001) >#forcing_In_AB=.FALSE.,
(PID.TID 0000.0001) > tracForcingOutAB=1,
(PID.TID 0000.0001) > pChkptFreq  =31104000.,
(PID.TID 0000.0001) > taveFreq    =31104000.,
(PID.TID 0000.0001) > dumpFreq    =31104000.,
(PID.TID 0000.0001) > monitorFreq =2592000.,
(PID.TID 0000.0001) >#tave_lastIter=0.,
(PID.TID 0000.0001) > periodicExternalForcing=.TRUE.,
(PID.TID 0000.0001) > externForcingPeriod=2592000.,
(PID.TID 0000.0001) > externForcingCycle=31104000.,
(PID.TID 0000.0001) ># 2 months restoring timescale for temperature
(PID.TID 0000.0001) > tauThetaClimRelax = 5184000.,
(PID.TID 0000.0001) ># 6 months restoring timescale for salinity
(PID.TID 0000.0001) > tauSaltClimRelax = 15552000.,
(PID.TID 0000.0001) > latBandClimRelax=50.,
(PID.TID 0000.0001) > monitorFreq =1.,
(PID.TID 0000.0001) > /
(PID.TID 0000.0001) >
(PID.TID 0000.0001) ># Gridding parameters
(PID.TID 0000.0001) > &PARM04
(PID.TID 0000.0001) > usingCurvilinearGrid=.TRUE.,
(PID.TID 0000.0001) > horizGridFile='grid_cs32',
(PID.TID 0000.0001) > radius_fromHorizGrid=6370.E3,
(PID.TID 0000.0001) > delR= 50., 70., 100., 140., 190.,
(PID.TID 0000.0001) >       240., 290., 340., 390., 440.,
(PID.TID 0000.0001) >       490., 540., 590., 640., 690.,
(PID.TID 0000.0001) > /
(PID.TID 0000.0001) >
(PID.TID 0000.0001) ># Input datasets
(PID.TID 0000.0001) > &PARM05
(PID.TID 0000.0001) > bathyFile      ='bathy_Hmin50.bin',
(PID.TID 0000.0001) > hydrogThetaFile='lev_T_cs_15k.bin',
(PID.TID 0000.0001) > hydrogSaltFile ='lev_S_cs_15k.bin',
(PID.TID 0000.0001) > zonalWindFile  ='trenberth_taux.bin',
(PID.TID 0000.0001) > meridWindFile  ='trenberth_tauy.bin',
(PID.TID 0000.0001) > thetaClimFile  ='lev_surfT_cs_12m.bin',
(PID.TID 0000.0001) > saltClimFile   ='lev_surfS_cs_12m.bin',
(PID.TID 0000.0001) > /
(PID.TID 0000.0001) 
(PID.TID 0000.0001)  INI_PARMS ; starts to read PARM01
(PID.TID 0000.0001)  INI_PARMS ; read PARM01 : OK
(PID.TID 0000.0001)  INI_PARMS ; starts to read PARM02
(PID.TID 0000.0001)  INI_PARMS ; read PARM02 : OK
(PID.TID 0000.0001)  INI_PARMS ; starts to read PARM03
(PID.TID 0000.0001)  INI_PARMS ; read PARM03 : OK
(PID.TID 0000.0001)  INI_PARMS ; starts to read PARM04
(PID.TID 0000.0001)  INI_PARMS ; read PARM04 : OK
(PID.TID 0000.0001)  INI_PARMS ; starts to read PARM05
(PID.TID 0000.0001)  INI_PARMS ; read PARM05 : OK
(PID.TID 0000.0001)  INI_PARMS: finished reading file "data"
(PID.TID 0000.0001)  PACKAGES_BOOT: opening data.pkg
(PID.TID 0000.0001)  OPEN_COPY_DATA_FILE: opening file data.pkg
(PID.TID 0000.0001) // =======================================================
(PID.TID 0000.0001) // Parameter file "data.pkg"
(PID.TID 0000.0001) // =======================================================
(PID.TID 0000.0001) ># Packages
(PID.TID 0000.0001) > &PACKAGES
(PID.TID 0000.0001) > useGMRedi=.TRUE.,
(PID.TID 0000.0001) > useBulkforce=.TRUE.,
(PID.TID 0000.0001) > useThSIce=.TRUE.,
(PID.TID 0000.0001) > useDiagnostics=.TRUE.,
(PID.TID 0000.0001) > /
(PID.TID 0000.0001) 
(PID.TID 0000.0001)  PACKAGES_BOOT: finished reading data.pkg
(PID.TID 0000.0001)  PACKAGES_BOOT: On/Off package Summary
 --------  pkgs with a standard "usePKG" On/Off switch in "data.pkg":  --------
 pkg/gmredi               compiled   and   used ( useGMRedi                = T )
 pkg/cal                  compiled but not used ( useCAL                   = F )
 pkg/exf                  compiled but not used ( useEXF                   = F )
 pkg/bulk_force           compiled   and   used ( useBulkForce             = T )
 pkg/seaice               compiled but not used ( useSEAICE                = F )
 pkg/thsice               compiled   and   used ( useThSIce                = T )
 pkg/diagnostics          compiled   and   used ( useDiagnostics           = T )
 pkg/mnc                  compiled but not used ( useMNC                   = F )
 -------- pkgs without standard "usePKG" On/Off switch in "data.pkg":  --------
 pkg/generic_advdiff      compiled   and   used ( useGAD                   = T )
 pkg/mom_common           compiled   and   used ( momStepping              = T )
 pkg/mom_vecinv           compiled   and   used ( +vectorInvariantMomentum = T )
 pkg/mom_fluxform         compiled but not used ( & not vectorInvariantMom = F )
 pkg/monitor              compiled   and   used ( monitorFreq > 0.         = T )
 pkg/timeave              compiled   and   used ( taveFreq > 0.            = T )
 pkg/debug                compiled but not used ( debugMode                = F )
 pkg/exch2                compiled   and   used
 pkg/rw                   compiled   and   used
 pkg/mdsio                compiled   and   used
(PID.TID 0000.0001)  PACKAGES_BOOT: End of package Summary
(PID.TID 0000.0001) 
(PID.TID 0000.0001)  GM_READPARMS: opening data.gmredi
(PID.TID 0000.0001)  OPEN_COPY_DATA_FILE: opening file data.gmredi
(PID.TID 0000.0001) // =======================================================
(PID.TID 0000.0001) // Parameter file "data.gmredi"
(PID.TID 0000.0001) // =======================================================
(PID.TID 0000.0001) ># GM+Redi package parameters:
(PID.TID 0000.0001) >
(PID.TID 0000.0001) >#-from MOM :
(PID.TID 0000.0001) ># GM_background_K: 	G & Mc.W  diffusion coefficient
(PID.TID 0000.0001) ># GM_maxSlope    :	max slope of isopycnals
(PID.TID 0000.0001) ># GM_Scrit       :	transition for scaling diffusion coefficient
(PID.TID 0000.0001) ># GM_Sd          :	half width scaling for diffusion coefficient
(PID.TID 0000.0001) ># GM_taper_scheme:	slope clipping or one of the tapering schemes
(PID.TID 0000.0001) ># GM_Kmin_horiz  :	horizontal diffusion minimum value
(PID.TID 0000.0001) >
(PID.TID 0000.0001) >#-Option parameters (needs to "define" options in GMREDI_OPTIONS.h")
(PID.TID 0000.0001) ># GM_isopycK     :	isopycnal diffusion coefficient (default=GM_background_K)
(PID.TID 0000.0001) ># GM_AdvForm     :	turn on GM Advective form       (default=Skew flux form)
(PID.TID 0000.0001) >
(PID.TID 0000.0001) > &GM_PARM01
(PID.TID 0000.0001) >  GM_background_K    = 800.,
(PID.TID 0000.0001) ># GM_AdvForm         = .TRUE.,
(PID.TID 0000.0001) ># GM_background_K    = 10.,
(PID.TID 0000.0001) ># GM_Visbeck_alpha   = 1.e-2,
(PID.TID 0000.0001) >  GM_Visbeck_length  = 2.e+5,
(PID.TID 0000.0001) >  GM_Visbeck_depth   = 1.e+3,
(PID.TID 0000.0001) >  GM_Visbeck_maxval_K= 2.5e+3,
(PID.TID 0000.0001) >  GM_taper_scheme    = 'gkw91',
(PID.TID 0000.0001) ># GM_Small_Number    = 1.e-18,
(PID.TID 0000.0001) >  GM_maxSlope        = 1.e-2,
(PID.TID 0000.0001) >  GM_Kmin_horiz      = 50.,
(PID.TID 0000.0001) >  GM_Scrit           = 4.e-3,
(PID.TID 0000.0001) >  GM_Sd              = 1.e-3,
(PID.TID 0000.0001) > /
(PID.TID 0000.0001) >
(PID.TID 0000.0001) 
(PID.TID 0000.0001)  GM_READPARMS: finished reading data.gmredi
(PID.TID 0000.0001)  OPEN_COPY_DATA_FILE: opening file data.blk
(PID.TID 0000.0001) // =======================================================
(PID.TID 0000.0001) // Parameter file "data.blk"
(PID.TID 0000.0001) // =======================================================
(PID.TID 0000.0001) > &BULKF_CONST
(PID.TID 0000.0001) > Tf0kel = 273.15,
(PID.TID 0000.0001) >#p0   = 1013.,  <- no longer in Namelist, but hard coded
(PID.TID 0000.0001) > Rgas   = 287.,
(PID.TID 0000.0001) > /
(PID.TID 0000.0001) >
(PID.TID 0000.0001) > &BULKF_PARM01
(PID.TID 0000.0001) ># set blk_nIter=0 to use the original FORMULA_LANL:
(PID.TID 0000.0001) > blk_nIter= 0,
(PID.TID 0000.0001) >#RainFile=       'ncep_precip_cs.bin',
(PID.TID 0000.0001) > RainFile=       'ncep_pr_scal_cs.bin',
(PID.TID 0000.0001) > SolarFile=      'ncep_downsolar_cs.bin',
(PID.TID 0000.0001) > AirTempFile=    'ncep_tair_cs.bin',
(PID.TID 0000.0001) > AirhumidityFile='ncep_qair_cs.bin',
(PID.TID 0000.0001) > LongwaveFile=   'ncep_downlw_cs.bin',
(PID.TID 0000.0001) > UWindFile=      ' ',
(PID.TID 0000.0001) > VWindFile=      ' ',
(PID.TID 0000.0001) > WspeedFile=     'ncep_windspeed_cs.bin',
(PID.TID 0000.0001) > RunoffFile=     ' ',
(PID.TID 0000.0001) > QnetFile=       ' ',
(PID.TID 0000.0001) > EmPFile=        ' ',
(PID.TID 0000.0001) > CloudFile=      ' ',
(PID.TID 0000.0001) >#blk_taveFreq=864000.,
(PID.TID 0000.0001) > /
(PID.TID 0000.0001) >
(PID.TID 0000.0001) > &BULKF_PARM02
(PID.TID 0000.0001) > qnet_off=0.0,
(PID.TID 0000.0001) > empmr_off=0.0,
(PID.TID 0000.0001) > conservcycle=311040000.,
(PID.TID 0000.0001) > /
(PID.TID 0000.0001) >
(PID.TID 0000.0001) 
(PID.TID 0000.0001)  BULKF_READPARMS: starts to read BULKF_CONST
(PID.TID 0000.0001)  BULKF_READPARMS: read BULKF_CONST : OK
(PID.TID 0000.0001)  BULKF_READPARMS: starts to read BULKF_PARM01
(PID.TID 0000.0001)  BULKF_READPARMS: read BULKF_PARM01 : OK
 BlkF: rhoA     =   1.3000000000000000     
 BlkF: rhoFW    =   1000.0000000000000     
 BlkF: cpAir    =   1004.0000000000000     
 BlkF: Lvap     =   2500000.0000000000     
 BlkF: Lfresh   =   334000.00000000000     
 BlkF: Tf0kel   =   273.14999999999998     
 BlkF: Rgas     =   287.00000000000000     
 BlkF: xkar     =  0.40000000000000002     
 BlkF: stefan   =  5.66999999999999982E-008
 BlkF: zref     =   10.000000000000000     
 BlkF: zwd      =   10.000000000000000     
 BlkF: zth      =   10.000000000000000     
 BlkF: cDrag_1  =  2.70000000000000014E-003
 BlkF: cDrag_2  =  1.42000000000000009E-004
 BlkF: cDrag_3  =  7.64000000000000004E-005
 BlkF: cStantonS=  1.79999999999999986E-002
 BlkF: cStantonU=  3.26999999999999999E-002
 BlkF: cDalton  =  3.45999999999999988E-002
 BlkF: umin     =   1.0000000000000000     
 BlkF: humid_fac=  0.60599999999999998     
 BlkF: saltQsFac=  0.97999999999999998     
 BlkF: gamma_blk=  1.00000000000000002E-002
 BlkF: atm_emissivity  =  0.90000000000000002     
 BlkF: ocean_emissivity=  0.98499999999999999     
 BlkF: snow_emissivity =  0.97999999999999998     
 BlkF: ice_emissivity  =  0.97999999999999998     
 BlkF: ocean_albedo    =  0.10000000000000001     
 BlkF: FWIND0   =  0.59999999999999998     
 BlkF: CHS      =  8.00000000000000038E-004
 BlkF: VGUST    =   5.0000000000000000     
 BlkF: DTHETA   =   3.0000000000000000     
 BlkF: dTstab   =   1.0000000000000000     
 BlkF: FSTAB    =  0.67000000000000004     
 BlkF: useFluxFormula_AIM= F
 BlkF: calcWindStress  = F
 BlkF: useQnetch       = F
 BlkF: useEmPch        = F
 BlkF: blk_nIter   =           0
 BlkF: blk_taveFreq=   31104000.000000000     
(PID.TID 0000.0001)  THSICE_READPARMS: opening data.ice
(PID.TID 0000.0001)  OPEN_COPY_DATA_FILE: opening file data.ice
(PID.TID 0000.0001) // =======================================================
(PID.TID 0000.0001) // Parameter file "data.ice"
(PID.TID 0000.0001) // =======================================================
(PID.TID 0000.0001) > &THSICE_CONST
(PID.TID 0000.0001) > Tf0kel  = 273.15,
(PID.TID 0000.0001) >#- with LANL albedo:
(PID.TID 0000.0001) >#albWarmSnow= 0.75,
(PID.TID 0000.0001) >#- for full ice-fraction :
(PID.TID 0000.0001) >#fracEnMelt = 0.,
(PID.TID 0000.0001) >#iceMaskMin = 1.,
(PID.TID 0000.0001) >#hThinIce   = 0.01,
(PID.TID 0000.0001) >#hThickIce  = 100.,
(PID.TID 0000.0001) >#- with fractional ice:
(PID.TID 0000.0001) > iceMaskMin = 0.05,
(PID.TID 0000.0001) > hiMax      = 10.,
(PID.TID 0000.0001) > hsMax      = 10.,
(PID.TID 0000.0001) >#albIceMax  = 0.7,
(PID.TID 0000.0001) >#albIceMin  = 0.7,
(PID.TID 0000.0001) > /
(PID.TID 0000.0001) >
(PID.TID 0000.0001) > &THSICE_PARM01
(PID.TID 0000.0001) >#StartIceModel=1,
(PID.TID 0000.0001) > stressReduction=0.,
(PID.TID 0000.0001) >#thSIce_taveFreq=2592000.,
(PID.TID 0000.0001) >#thSIce_diagFreq=2592000.,
(PID.TID 0000.0001) >#thSIce_monFreq=864000.,
(PID.TID 0000.0001) > /
(PID.TID 0000.0001) >
(PID.TID 0000.0001) 
(PID.TID 0000.0001)  THSICE_READPARMS: read THSICE_CONST
(PID.TID 0000.0001)  THSICE_READPARMS: read THSICE_PARM01
 ThSI:       rhos        =  3.3000000000000E+02
 ThSI:       rhoi        =  9.0000000000000E+02
 ThSI:       rhosw       =  1.0350000000000E+03
 ThSI:       rhofw       =  1.0000000000000E+03
 ThSI:       floodFac    =  4.0909090909091E-01
 ThSI:       cpIce       =  2.1060000000000E+03
 ThSI:       cpWater     =  3.9940000000000E+03
 ThSI:       kIce        =  2.0300000000000E+00
 ThSI:       kSnow       =  3.0000000000000E-01
 ThSI:       bMeltCoef   =  6.0000000000000E-03
 ThSI:       Lfresh      =  3.3400000000000E+05
 ThSI:       qsnow       =  3.3400000000000E+05
 ThSI:       albColdSnow =  8.5000000000000E-01
 ThSI:       albWarmSnow =  7.0000000000000E-01
 ThSI:       tempSnowAlb = -1.0000000000000E+01
 ThSI:       albOldSnow  =  5.5000000000000E-01
 ThSI:       hNewSnowAge =  2.0000000000000E-03
 ThSI:       snowAgTime  =  4.3200000000000E+06
 ThSI:       albIceMax   =  6.5000000000000E-01
 ThSI:       albIceMin   =  2.0000000000000E-01
 ThSI:       hAlbIce     =  5.0000000000000E-01
 ThSI:       hAlbSnow    =  3.0000000000000E-01
 ThSI:       i0swFrac    =  3.0000000000000E-01
 ThSI:       ksolar      =  1.5000000000000E+00
 ThSI:       dhSnowLin   =  0.0000000000000E+00
 ThSI:       saltIce     =  4.0000000000000E+00
 ThSI:       S_winton    =  1.0000000000000E+00
 ThSI:       mu_Tf       =  5.4000000000000E-02
 ThSI:       Tf0kel      =  2.7315000000000E+02
 ThSI:       Tmlt1       = -5.4000000000000E-02
 ThSI:       Terrmax     =  5.0000000000000E-01
 ThSI:       nitMaxTsf   =        20
 ThSI:       hIceMin     =  1.0000000000000E-02
 ThSI:       hiMax       =  1.0000000000000E+01
 ThSI:       hsMax       =  1.0000000000000E+01
 ThSI:       iceMaskMax  =  1.0000000000000E+00
 ThSI:       iceMaskMin  =  5.0000000000000E-02
 ThSI:       fracEnMelt  =  4.0000000000000E-01
 ThSI:       fracEnFreez =  0.0000000000000E+00
 ThSI:       hThinIce    =  2.0000000000000E-01
 ThSI:       hThickIce   =  2.5000000000000E+00
 ThSI:       hNewIceMax  =  1.0000000000000E+01
 ThSI: stressReduction   =  0.0000000000000E+00
 ThSI: thSIce_skipThermo =         F
 ThSI: thSIceAdvScheme   =         0
 ThSI: thSIceBalanceAtmFW=         0
 ThSI: thSIce_diffK      =  0.0000000000000E+00
 ThSI: thSIce_deltaT     =  8.6400000000000E+04
 ThSI: ocean_deltaT      =  8.6400000000000E+04
 ThSI: stepFwd_oceMxL    =         F
 ThSI: tauRelax_MxL      =  0.0000000000000E+00
 ThSI: tauRelax_MxL_salt =  0.0000000000000E+00
 ThSI: hMxL_default      =  5.0000000000000E+01
 ThSI: sMxL_default      =  3.5000000000000E+01
 ThSI: vMxL_default      =  5.0000000000000E-02
 ThSI: thSIce_taveFreq   =  3.1104000000000E+07
 ThSI: thSIce_diagFreq   =  3.1104000000000E+07
 ThSI: thSIce_monFreq    =  1.0000000000000E+00
 ThSI: startIceModel     =         0
(PID.TID 0000.0001)  DIAGNOSTICS_READPARMS: opening data.diagnostics
(PID.TID 0000.0001)  OPEN_COPY_DATA_FILE: opening file data.diagnostics
(PID.TID 0000.0001) // =======================================================
(PID.TID 0000.0001) // Parameter file "data.diagnostics"
(PID.TID 0000.0001) // =======================================================
(PID.TID 0000.0001) ># Diagnostic Package Choices
(PID.TID 0000.0001) >#--------------------
(PID.TID 0000.0001) >#  dumpAtLast (logical): always write output at the end of simulation (default=F)
(PID.TID 0000.0001) >#  diag_mnc   (logical): write to NetCDF files (default=useMNC)
(PID.TID 0000.0001) >#--for each output-stream:
(PID.TID 0000.0001) >#  fileName(n) : prefix of the output file name (max 80c long) for outp.stream n
(PID.TID 0000.0001) >#  frequency(n):< 0 : write snap-shot output every |frequency| seconds
(PID.TID 0000.0001) >#               > 0 : write time-average output every frequency seconds
(PID.TID 0000.0001) >#  timePhase(n)     : write at time = timePhase + multiple of |frequency|
(PID.TID 0000.0001) >#    averagingFreq  : frequency (in s) for periodic averaging interval
(PID.TID 0000.0001) >#    averagingPhase : phase     (in s) for periodic averaging interval
(PID.TID 0000.0001) >#    repeatCycle    : number of averaging intervals in 1 cycle
(PID.TID 0000.0001) >#  levels(:,n) : list of levels to write to file (Notes: declared as REAL)
(PID.TID 0000.0001) >#                when this entry is missing, select all common levels of this list
(PID.TID 0000.0001) >#  fields(:,n) : list of selected diagnostics fields (8.c) in outp.stream n
(PID.TID 0000.0001) >#                (see "available_diagnostics.log" file for the full list of diags)
(PID.TID 0000.0001) >#  missing_value(n) : missing value for real-type fields in output file "n"
(PID.TID 0000.0001) >#  fileFlags(n)     : specific code (8c string) for output file "n"
(PID.TID 0000.0001) >#--------------------
(PID.TID 0000.0001) > &DIAGNOSTICS_LIST
(PID.TID 0000.0001) ># diag_mnc     = .FALSE.,
(PID.TID 0000.0001) ># dumpAtLast   = .TRUE.,
(PID.TID 0000.0001) >#--
(PID.TID 0000.0001) >  fields(1:17,1) = 'ETAN    ','ETANSQ  ','DETADT2 ','PHIBOT  ','PHIBOTSQ',
(PID.TID 0000.0001) >                   'oceTAUX ','oceTAUY ','TRELAX  ','SRELAX  ',
(PID.TID 0000.0001) >                   'surForcT','surForcS','TFLUX   ','SFLUX   ',
(PID.TID 0000.0001) >                   'oceQsw  ','oceQnet ','oceSflux','oceFWflx',
(PID.TID 0000.0001) >   fileName(1) = 'surfDiag',
(PID.TID 0000.0001) >  frequency(1) = 1555200000.,
(PID.TID 0000.0001) >
(PID.TID 0000.0001) >  fields(1:15,2) = 'UVEL    ','VVEL    ','WVEL    ','PHIHYD  ',
(PID.TID 0000.0001) >                   'VVELMASS','UVELMASS','WVELSQ  ',
(PID.TID 0000.0001) >                   'THETA   ','UTHMASS ','VTHMASS ','WTHMASS ',
(PID.TID 0000.0001) >                   'SALT    ','USLTMASS','VSLTMASS','WSLTMASS',
(PID.TID 0000.0001) ># do not specify levels => all levels are selected
(PID.TID 0000.0001) >   fileName(2) = 'dynDiag',
(PID.TID 0000.0001) >  frequency(2) = 1555200000.,
(PID.TID 0000.0001) >
(PID.TID 0000.0001) >  fields(1:12,3) = 'DRHODR  ','RHOAnoma','CONVADJ ',
(PID.TID 0000.0001) >                   'GM_PsiX ','GM_PsiY ',
(PID.TID 0000.0001) >                   'GM_Kwx  ','GM_Kwy  ','GM_Kwz  ',
(PID.TID 0000.0001) >                   'GM_Kux  ','GM_Kvy  ',
(PID.TID 0000.0001) >                   'GM_Kuz  ','GM_Kvz  ',
(PID.TID 0000.0001) >#- disable this output list by commenting out the file name
(PID.TID 0000.0001) >#  fileName(3) = 'oceDiag',
(PID.TID 0000.0001) >  frequency(3) = 1555200000.,
(PID.TID 0000.0001) >
(PID.TID 0000.0001) >  fields(1:7,4)  = 'ADVx_TH ','ADVy_TH ','ADVr_TH ',
(PID.TID 0000.0001) >                   'DIFx_TH ','DIFy_TH ','DFrE_TH ',
(PID.TID 0000.0001) >                   'DFrI_TH ',
(PID.TID 0000.0001) >#                  'ADVx_SLT',
(PID.TID 0000.0001) >#  fileName(4) = 'flxDiag',
(PID.TID 0000.0001) >  frequency(4) = 1728000.,
(PID.TID 0000.0001) >
(PID.TID 0000.0001) >  fields(1:16,5) = 'SI_Fract','SI_Thick','SI_SnowH',
(PID.TID 0000.0001) >                   'SI_Tsrf ','SI_Tice1','SI_Tice2',
(PID.TID 0000.0001) >                   'SI_Qice1','SI_Qice2','SIsnwAge',
(PID.TID 0000.0001) >                   'SIsnwPrc','SIalbedo',
(PID.TID 0000.0001) >                   'SIflx2oc','SIfrw2oc','SIsaltFx',
(PID.TID 0000.0001) >                   'SIflxAtm','SIfrwAtm',
(PID.TID 0000.0001) >#                  'SItOcMxL','SIsOcMxL',
(PID.TID 0000.0001) >   fileName(5) = 'thSIceDiag',
(PID.TID 0000.0001) >  frequency(5) = 1555200000.,
(PID.TID 0000.0001) > averagingFreq(5) = 2592000.,
(PID.TID 0000.0001) >   repeatCycle(5) = 12,
(PID.TID 0000.0001) >#--- to check conservation of Volume, Heat & Salt (with z*+realFW+AB_2):
(PID.TID 0000.0001) >  fields(1:2,6)  = 'ETAN    ','oceFWflx',
(PID.TID 0000.0001) >   fileName(6) = 'surfInst',
(PID.TID 0000.0001) >  frequency(6) = -777600.,
(PID.TID 0000.0001) >  timePhase(6) = 0.,
(PID.TID 0000.0001) >  fields(1,7)  = 'ETAN    ',
(PID.TID 0000.0001) >   fileName(7) = 'etaInst',
(PID.TID 0000.0001) >  frequency(7) = -777600.,
(PID.TID 0000.0001) >  timePhase(7) = 86400.,
(PID.TID 0000.0001) >  fields(1:2,8)  = 'THETA   ','SALT    ',
(PID.TID 0000.0001) >   fileName(8) = 'dynInst',
(PID.TID 0000.0001) >  frequency(8) = -777600.,
(PID.TID 0000.0001) >  timePhase(8) = 0.,
(PID.TID 0000.0001) > /
(PID.TID 0000.0001) >
(PID.TID 0000.0001) >#--------------------
(PID.TID 0000.0001) ># Parameter for Diagnostics of per level statistics:
(PID.TID 0000.0001) >#--------------------
(PID.TID 0000.0001) >#  diagSt_mnc (logical): write stat-diags to NetCDF files (default=diag_mnc)
(PID.TID 0000.0001) >#  diagSt_regMaskFile : file containing the region-mask to read-in
(PID.TID 0000.0001) >#  nSetRegMskFile   : number of region-mask sets within the region-mask file
(PID.TID 0000.0001) >#  set_regMask(i)   : region-mask set-index that identifies the region "i"
(PID.TID 0000.0001) >#  val_regMask(i)   : region "i" identifier value in the region mask
(PID.TID 0000.0001) >#--for each output-stream:
(PID.TID 0000.0001) >#  stat_fName(n) : prefix of the output file name (max 80c long) for outp.stream n
(PID.TID 0000.0001) >#  stat_freq(n):< 0 : write snap-shot output every |stat_freq| seconds
(PID.TID 0000.0001) >#               > 0 : write time-average output every stat_freq seconds
(PID.TID 0000.0001) >#  stat_phase(n)    : write at time = stat_phase + multiple of |stat_freq|
(PID.TID 0000.0001) >#  stat_region(:,n) : list of "regions" (default: 1 region only=global)
(PID.TID 0000.0001) >#  stat_fields(:,n) : list of selected diagnostics fields (8.c) in outp.stream n
(PID.TID 0000.0001) >#                (see "available_diagnostics.log" file for the full list of diags)
(PID.TID 0000.0001) >#--------------------
(PID.TID 0000.0001) > &DIAG_STATIS_PARMS
(PID.TID 0000.0001) >#- regional mask: 3 lat. band: 1 : y <= -24 ; 2 : -24<y<24 ; 3 : 24 <= y
(PID.TID 0000.0001) > diagSt_regMaskFile='regMask_lat24.bin',
(PID.TID 0000.0001) > nSetRegMskFile = 1,
(PID.TID 0000.0001) > set_regMask(1:3) = 1,  1,  1,
(PID.TID 0000.0001) > val_regMask(1:3) = 1., 2., 3.,
(PID.TID 0000.0001) >#---
(PID.TID 0000.0001) > stat_fields(1:6,1)  = 'ETAN    ','ETANSQ  ','DETADT2 ',
(PID.TID 0000.0001) >#                      'UVEL    ','VVEL    ','WVEL    ',
(PID.TID 0000.0001) >                       'THETA   ','SALT    ','CONVADJ ',
(PID.TID 0000.0001) >  stat_fName(1) = 'dynStDiag',
(PID.TID 0000.0001) >   stat_freq(1) = 864000.,
(PID.TID 0000.0001) >#--- to check conservation of Volume, Heat & Salt (with z*+realFW+AB_2):
(PID.TID 0000.0001) > stat_fields(1:11,2) = 'oceTAUX ','oceTAUY ','TRELAX  ','SRELAX  ',
(PID.TID 0000.0001) >                       'surForcT','surForcS','TFLUX   ','SFLUX   ',
(PID.TID 0000.0001) >                       'oceQnet ','oceSflux','oceFWflx',
(PID.TID 0000.0001) >    stat_fName(2) = 'surfStDiag',
(PID.TID 0000.0001) >     stat_freq(2) = 777600.,
(PID.TID 0000.0001) >    stat_phase(2) = 86400.,
(PID.TID 0000.0001) > stat_fields(1:3,3)  = 'ETAN    ','THETA   ','SALT    ',
(PID.TID 0000.0001) >    stat_fName(3) = 'instStDiag',
(PID.TID 0000.0001) >     stat_freq(3) = -777600.,
(PID.TID 0000.0001) >    stat_phase(3) = 86400.,
(PID.TID 0000.0001) >#---
(PID.TID 0000.0001) > stat_fields(1:16,5) = 'SI_Fract','SI_Thick','SI_SnowH',
(PID.TID 0000.0001) >                       'SI_Tsrf ','SI_Tice1','SI_Tice2',
(PID.TID 0000.0001) >                       'SI_Qice1','SI_Qice2',
(PID.TID 0000.0001) >                       'SIsnwPrc','SIalbedo','SIsnwAge',
(PID.TID 0000.0001) >                       'SIflx2oc','SIfrw2oc','SIsaltFx',
(PID.TID 0000.0001) >                       'SIflxAtm','SIfrwAtm',
(PID.TID 0000.0001) >#                      'SItOcMxL','SIsOcMxL',
(PID.TID 0000.0001) > stat_region(1:3,5)  = 1, 3, 0,
(PID.TID 0000.0001) >  stat_fName(5) = 'thSIceStDiag',
(PID.TID 0000.0001) >   stat_freq(5) = 864000.,
(PID.TID 0000.0001) > /
(PID.TID 0000.0001) >
(PID.TID 0000.0001) 
(PID.TID 0000.0001) S/R DIAGNOSTICS_READPARMS, read namelist "diagnostics_list": start
(PID.TID 0000.0001) S/R DIAGNOSTICS_READPARMS, read namelist "diagnostics_list": OK
(PID.TID 0000.0001) S/R DIAGNOSTICS_READPARMS, read namelist "DIAG_STATIS_PARMS": start
(PID.TID 0000.0001) S/R DIAGNOSTICS_READPARMS, read namelist "DIAG_STATIS_PARMS": OK
(PID.TID 0000.0001)  DIAGNOSTICS_READPARMS: global parameter summary:
(PID.TID 0000.0001)  dumpAtLast = /* always write time-ave diags at the end */
(PID.TID 0000.0001)                   F
(PID.TID 0000.0001)     ;
(PID.TID 0000.0001)  diag_mnc =   /* write NetCDF output files */
(PID.TID 0000.0001)                   F
(PID.TID 0000.0001)     ;
(PID.TID 0000.0001)  useMissingValue = /* put MissingValue where mask = 0 */
(PID.TID 0000.0001)                   F
(PID.TID 0000.0001)     ;
(PID.TID 0000.0001)  diagCG_maxIters = /* max number of iters in diag_cg2d */
(PID.TID 0000.0001)                     200
(PID.TID 0000.0001)     ;
(PID.TID 0000.0001)  diagCG_resTarget = /* residual target for diag_cg2d */
(PID.TID 0000.0001)                 1.000000000000000E-07
(PID.TID 0000.0001)     ;
(PID.TID 0000.0001)  diagCG_pcOffDFac = /* preconditioner off-diagonal factor */
(PID.TID 0000.0001)                 9.611687812379854E-01
(PID.TID 0000.0001)     ;
(PID.TID 0000.0001) -----------------------------------------------------
(PID.TID 0000.0001)  DIAGNOSTICS_READPARMS: active diagnostics summary:
(PID.TID 0000.0001) -----------------------------------------------------
(PID.TID 0000.0001) Creating Output Stream: surfDiag
(PID.TID 0000.0001) Output Frequency: 1555200000.000000 ; Phase:           0.000000
(PID.TID 0000.0001)  Averaging Freq.: 1555200000.000000 , Phase:           0.000000 , Cycle:   1
(PID.TID 0000.0001)  missing value: -9.990000000000E+02
(PID.TID 0000.0001)  Levels:    will be set later
(PID.TID 0000.0001)  Fields:    ETAN     ETANSQ   DETADT2  PHIBOT   PHIBOTSQ oceTAUX  oceTAUY  TRELAX   SRELAX   surForcT
(PID.TID 0000.0001)  Fields:    surForcS TFLUX    SFLUX    oceQsw   oceQnet  oceSflux oceFWflx
(PID.TID 0000.0001) Creating Output Stream: dynDiag
(PID.TID 0000.0001) Output Frequency: 1555200000.000000 ; Phase:           0.000000
(PID.TID 0000.0001)  Averaging Freq.: 1555200000.000000 , Phase:           0.000000 , Cycle:   1
(PID.TID 0000.0001)  missing value: -9.990000000000E+02
(PID.TID 0000.0001)  Levels:    will be set later
(PID.TID 0000.0001)  Fields:    UVEL     VVEL     WVEL     PHIHYD   VVELMASS UVELMASS WVELSQ   THETA    UTHMASS  VTHMASS
(PID.TID 0000.0001)  Fields:    WTHMASS  SALT     USLTMASS VSLTMASS WSLTMASS
(PID.TID 0000.0001) Creating Output Stream: thSIceDiag
(PID.TID 0000.0001) Output Frequency: 1555200000.000000 ; Phase:           0.000000
(PID.TID 0000.0001)  Averaging Freq.:    2592000.000000 , Phase:           0.000000 , Cycle:  12
(PID.TID 0000.0001)  missing value: -9.990000000000E+02
(PID.TID 0000.0001)  Levels:    will be set later
(PID.TID 0000.0001)  Fields:    SI_Fract SI_Thick SI_SnowH SI_Tsrf  SI_Tice1 SI_Tice2 SI_Qice1 SI_Qice2 SIsnwAge SIsnwPrc
(PID.TID 0000.0001)  Fields:    SIalbedo SIflx2oc SIfrw2oc SIsaltFx SIflxAtm SIfrwAtm
(PID.TID 0000.0001) Creating Output Stream: surfInst
(PID.TID 0000.0001) Output Frequency:    -777600.000000 ; Phase:           0.000000
(PID.TID 0000.0001)  Averaging Freq.:          0.000000 , Phase:           0.000000 , Cycle:   1
(PID.TID 0000.0001)  missing value: -9.990000000000E+02
(PID.TID 0000.0001)  Levels:    will be set later
(PID.TID 0000.0001)  Fields:    ETAN     oceFWflx
(PID.TID 0000.0001) Creating Output Stream: etaInst
(PID.TID 0000.0001) Output Frequency:    -777600.000000 ; Phase:       86400.000000
(PID.TID 0000.0001)  Averaging Freq.:          0.000000 , Phase:           0.000000 , Cycle:   1
(PID.TID 0000.0001)  missing value: -9.990000000000E+02
(PID.TID 0000.0001)  Levels:    will be set later
(PID.TID 0000.0001)  Fields:    ETAN
(PID.TID 0000.0001) Creating Output Stream: dynInst
(PID.TID 0000.0001) Output Frequency:    -777600.000000 ; Phase:           0.000000
(PID.TID 0000.0001)  Averaging Freq.:          0.000000 , Phase:           0.000000 , Cycle:   1
(PID.TID 0000.0001)  missing value: -9.990000000000E+02
(PID.TID 0000.0001)  Levels:    will be set later
(PID.TID 0000.0001)  Fields:    THETA    SALT
(PID.TID 0000.0001) -----------------------------------------------------
(PID.TID 0000.0001)  DIAGNOSTICS_READPARMS: statistics diags. summary:
(PID.TID 0000.0001) Creating Stats. Output Stream: dynStDiag
(PID.TID 0000.0001) Output Frequency:     864000.000000 ; Phase:           0.000000
(PID.TID 0000.0001)  Regions:   0
(PID.TID 0000.0001)  Fields:    ETAN     ETANSQ   DETADT2  THETA    SALT     CONVADJ
(PID.TID 0000.0001) Creating Stats. Output Stream: surfStDiag
(PID.TID 0000.0001) Output Frequency:     777600.000000 ; Phase:       86400.000000
(PID.TID 0000.0001)  Regions:   0
(PID.TID 0000.0001)  Fields:    oceTAUX  oceTAUY  TRELAX   SRELAX   surForcT surForcS TFLUX    SFLUX    oceQnet  oceSflux
(PID.TID 0000.0001)  Fields:    oceFWflx
(PID.TID 0000.0001) Creating Stats. Output Stream: instStDiag
(PID.TID 0000.0001) Output Frequency:    -777600.000000 ; Phase:       86400.000000
(PID.TID 0000.0001)  Regions:   0
(PID.TID 0000.0001)  Fields:    ETAN     THETA    SALT
(PID.TID 0000.0001) Creating Stats. Output Stream: thSIceStDiag
(PID.TID 0000.0001) Output Frequency:     864000.000000 ; Phase:           0.000000
(PID.TID 0000.0001)  Regions:   0  1  3
(PID.TID 0000.0001)  Fields:    SI_Fract SI_Thick SI_SnowH SI_Tsrf  SI_Tice1 SI_Tice2 SI_Qice1 SI_Qice2 SIsnwPrc SIalbedo
(PID.TID 0000.0001)  Fields:    SIsnwAge SIflx2oc SIfrw2oc SIsaltFx SIflxAtm SIfrwAtm
(PID.TID 0000.0001) -----------------------------------------------------
(PID.TID 0000.0001) 
(PID.TID 0000.0001) SET_PARMS: done
(PID.TID 0000.0001) Enter INI_VERTICAL_GRID: setInterFDr=    T ; setCenterDr=    F
(PID.TID 0000.0001) tile:   1 ; Read from file grid_cs32.face001.bin
(PID.TID 0000.0001)   => xC yC dxF dyF rA xG yG dxV dyU rAz dxC dyC rAw rAs dxG dyG AngleCS AngleSN
(PID.TID 0000.0001) tile:   2 ; Read from file grid_cs32.face001.bin
(PID.TID 0000.0001)   => xC yC dxF dyF rA xG yG dxV dyU rAz dxC dyC rAw rAs dxG dyG AngleCS AngleSN
(PID.TID 0000.0001) tile:   3 ; Read from file grid_cs32.face002.bin
(PID.TID 0000.0001)   => xC yC dxF dyF rA xG yG dxV dyU rAz dxC dyC rAw rAs dxG dyG AngleCS AngleSN
(PID.TID 0000.0001) tile:   4 ; Read from file grid_cs32.face002.bin
(PID.TID 0000.0001)   => xC yC dxF dyF rA xG yG dxV dyU rAz dxC dyC rAw rAs dxG dyG AngleCS AngleSN
(PID.TID 0000.0001) tile:   5 ; Read from file grid_cs32.face003.bin
(PID.TID 0000.0001)   => xC yC dxF dyF rA xG yG dxV dyU rAz dxC dyC rAw rAs dxG dyG AngleCS AngleSN
(PID.TID 0000.0001) tile:   6 ; Read from file grid_cs32.face003.bin
(PID.TID 0000.0001)   => xC yC dxF dyF rA xG yG dxV dyU rAz dxC dyC rAw rAs dxG dyG AngleCS AngleSN
(PID.TID 0000.0001) tile:   7 ; Read from file grid_cs32.face004.bin
(PID.TID 0000.0001)   => xC yC dxF dyF rA xG yG dxV dyU rAz dxC dyC rAw rAs dxG dyG AngleCS AngleSN
(PID.TID 0000.0001) tile:   8 ; Read from file grid_cs32.face004.bin
(PID.TID 0000.0001)   => xC yC dxF dyF rA xG yG dxV dyU rAz dxC dyC rAw rAs dxG dyG AngleCS AngleSN
(PID.TID 0000.0001) tile:   9 ; Read from file grid_cs32.face005.bin
(PID.TID 0000.0001)   => xC yC dxF dyF rA xG yG dxV dyU rAz dxC dyC rAw rAs dxG dyG AngleCS AngleSN
(PID.TID 0000.0001) tile:  10 ; Read from file grid_cs32.face005.bin
(PID.TID 0000.0001)   => xC yC dxF dyF rA xG yG dxV dyU rAz dxC dyC rAw rAs dxG dyG AngleCS AngleSN
(PID.TID 0000.0001) tile:  11 ; Read from file grid_cs32.face006.bin
(PID.TID 0000.0001)   => xC yC dxF dyF rA xG yG dxV dyU rAz dxC dyC rAw rAs dxG dyG AngleCS AngleSN
(PID.TID 0000.0001) tile:  12 ; Read from file grid_cs32.face006.bin
(PID.TID 0000.0001)   => xC yC dxF dyF rA xG yG dxV dyU rAz dxC dyC rAw rAs dxG dyG AngleCS AngleSN
(PID.TID 0000.0001) %MON XC_max                       =   1.7854351589505E+02
(PID.TID 0000.0001) %MON XC_min                       =  -1.7854351589505E+02
(PID.TID 0000.0001) %MON XC_mean                      =  -1.4199289892029E-14
(PID.TID 0000.0001) %MON XC_sd                        =   1.0355545336287E+02
(PID.TID 0000.0001) %MON XG_max                       =   1.8000000000000E+02
(PID.TID 0000.0001) %MON XG_min                       =  -1.7708797161002E+02
(PID.TID 0000.0001) %MON XG_mean                      =   1.8603515625000E+00
(PID.TID 0000.0001) %MON XG_sd                        =   1.0357130300504E+02
(PID.TID 0000.0001) %MON DXC_max                      =   3.2375185836900E+05
(PID.TID 0000.0001) %MON DXC_min                      =   1.1142031410131E+05
(PID.TID 0000.0001) %MON DXC_mean                     =   2.8605689051214E+05
(PID.TID 0000.0001) %MON DXC_sd                       =   3.4042087138252E+04
(PID.TID 0000.0001) %MON DXF_max                      =   3.2369947500827E+05
(PID.TID 0000.0001) %MON DXF_min                      =   1.2020820513318E+05
(PID.TID 0000.0001) %MON DXF_mean                     =   2.8605437324820E+05
(PID.TID 0000.0001) %MON DXF_sd                       =   3.4050524252539E+04
(PID.TID 0000.0001) %MON DXG_max                      =   3.2375195872773E+05
(PID.TID 0000.0001) %MON DXG_min                      =   1.0098378008791E+05
(PID.TID 0000.0001) %MON DXG_mean                     =   2.8603818508931E+05
(PID.TID 0000.0001) %MON DXG_sd                       =   3.4140406908005E+04
(PID.TID 0000.0001) %MON DXV_max                      =   3.2380418162750E+05
(PID.TID 0000.0001) %MON DXV_min                      =   8.0152299824136E+04
(PID.TID 0000.0001) %MON DXV_mean                     =   2.8603970633619E+05
(PID.TID 0000.0001) %MON DXV_sd                       =   3.4145142117723E+04
(PID.TID 0000.0001) %MON YC_max                       =   8.7940663871962E+01
(PID.TID 0000.0001) %MON YC_min                       =  -8.7940663871962E+01
(PID.TID 0000.0001) %MON YC_mean                      =  -2.3684757858670E-15
(PID.TID 0000.0001) %MON YC_sd                        =   3.8676242969072E+01
(PID.TID 0000.0001) %MON YG_max                       =   9.0000000000000E+01
(PID.TID 0000.0001) %MON YG_min                       =  -9.0000000000000E+01
(PID.TID 0000.0001) %MON YG_mean                      =  -4.1448326252673E-15
(PID.TID 0000.0001) %MON YG_sd                        =   3.8676895860710E+01
(PID.TID 0000.0001) %MON DYC_max                      =   3.2375185836900E+05
(PID.TID 0000.0001) %MON DYC_min                      =   1.1142031410131E+05
(PID.TID 0000.0001) %MON DYC_mean                     =   2.8605689051214E+05
(PID.TID 0000.0001) %MON DYC_sd                       =   3.4042087138252E+04
(PID.TID 0000.0001) %MON DYF_max                      =   3.2369947500827E+05
(PID.TID 0000.0001) %MON DYF_min                      =   1.2020820513318E+05
(PID.TID 0000.0001) %MON DYF_mean                     =   2.8605437324820E+05
(PID.TID 0000.0001) %MON DYF_sd                       =   3.4050524252539E+04
(PID.TID 0000.0001) %MON DYG_max                      =   3.2375195872773E+05
(PID.TID 0000.0001) %MON DYG_min                      =   1.0098378008791E+05
(PID.TID 0000.0001) %MON DYG_mean                     =   2.8603818508931E+05
(PID.TID 0000.0001) %MON DYG_sd                       =   3.4140406908005E+04
(PID.TID 0000.0001) %MON DYU_max                      =   3.2380418162750E+05
(PID.TID 0000.0001) %MON DYU_min                      =   8.0152299824136E+04
(PID.TID 0000.0001) %MON DYU_mean                     =   2.8603970633619E+05
(PID.TID 0000.0001) %MON DYU_sd                       =   3.4145142117723E+04
(PID.TID 0000.0001) %MON RA_max                       =   1.0479260248419E+11
(PID.TID 0000.0001) %MON RA_min                       =   1.4019007022556E+10
(PID.TID 0000.0001) %MON RA_mean                      =   8.2992246709265E+10
(PID.TID 0000.0001) %MON RA_sd                        =   1.7509089299457E+10
(PID.TID 0000.0001) %MON RAW_max                      =   1.0480965274559E+11
(PID.TID 0000.0001) %MON RAW_min                      =   1.2166903467143E+10
(PID.TID 0000.0001) %MON RAW_mean                     =   8.2992246709235E+10
(PID.TID 0000.0001) %MON RAW_sd                       =   1.7481917919656E+10
(PID.TID 0000.0001) %MON RAS_max                      =   1.0480965274559E+11
(PID.TID 0000.0001) %MON RAS_min                      =   1.2166903467143E+10
(PID.TID 0000.0001) %MON RAS_mean                     =   8.2992246709235E+10
(PID.TID 0000.0001) %MON RAS_sd                       =   1.7481917919656E+10
(PID.TID 0000.0001) %MON RAZ_max                      =   1.0484349334619E+11
(PID.TID 0000.0001) %MON RAZ_min                      =   8.8317900612505E+09
(PID.TID 0000.0001) %MON RAZ_mean                     =   8.2992246709235E+10
(PID.TID 0000.0001) %MON RAZ_sd                       =   1.7482297311044E+10
(PID.TID 0000.0001) %MON AngleCS_max                  =   9.9999994756719E-01
(PID.TID 0000.0001) %MON AngleCS_min                  =  -9.9968286884824E-01
(PID.TID 0000.0001) %MON AngleCS_mean                 =   3.3078922539000E-01
(PID.TID 0000.0001) %MON AngleCS_sd                   =   6.2496278958502E-01
(PID.TID 0000.0001) %MON AngleSN_max                  =   9.9968286884824E-01
(PID.TID 0000.0001) %MON AngleSN_min                  =  -9.9999994756719E-01
(PID.TID 0000.0001) %MON AngleSN_mean                 =  -3.3078922539000E-01
(PID.TID 0000.0001) %MON AngleSN_sd                   =   6.2496278958502E-01
(PID.TID 0000.0001)  MDS_READ_FIELD: opening global file: bathy_Hmin50.bin
(PID.TID 0000.0001) // =======================================================
(PID.TID 0000.0001) // Field Model R_low (ini_masks_etc)
(PID.TID 0000.0001) // CMIN =         -5.200000000000000E+03
(PID.TID 0000.0001) // CMAX =         -5.000000000000000E+01
(PID.TID 0000.0001) // CINT =          1.907407407407407E+02
(PID.TID 0000.0001) // SYMBOLS (CMIN->CMAX): -abcdefghijklmnopqrstuvwxyz+
(PID.TID 0000.0001) //                  0.0: .
(PID.TID 0000.0001) // RANGE I (Lo:Hi:Step):(    -3:   388:     1)
(PID.TID 0000.0001) // RANGE J (Lo:Hi:Step):(    20:    -3:    -1)
(PID.TID 0000.0001) // RANGE K (Lo:Hi:Step):(   1:   1:   1)
(PID.TID 0000.0001) // =======================================================
(PID.TID 0000.0001) K =   1
(PID.TID 0000.0001) //                I=6       I=16      I=26      I=36      I=38      I=48      I=58      I=68      I=70      I=80      I=90      I=100     I=102     I=112     I=122     I=132     I=134     I=144     I=154     I=164     I=166     I=176     I=186     I=196     I=198     I=208     I=218     I=228     I=230     I=240     I=250     I=260     I=262     I=272     I=282     I=292     I=294     I=304     I=314     I=324     I=326     I=336     I=346     I=356     I=358     I=368     I=378     I=388
(PID.TID 0000.0001) // |--J--|321012345|789012345|789012345|789012345|901234567|901234567|901234567|901234567|123456789|123456789|123456789|123456789|345678901|345678901|345678901|345678901|567890123|567890123|567890123|567890123|789012345|789012345|789012345|789012345|901234567|901234567|901234567|901234567|123456789|123456789|123456789|123456789|345678901|345678901|345678901|345678901|567890123|567890123|567890123|567890123|789012345|789012345|789012345|789012345|901234567|901234567|901234567|901234567|
(PID.TID 0000.0001) //     20 fbbbcgfcaa-aae+.......................lccbbc-ddcbcdehkhhmn..++........................lcgfdddhq.+hiilnz++.+oquxyz--adgkf................................okn.skkodcaabcfmtooyxz......+yuiiy....++gb--------a-fc----bba-cp.............tfeecccbbdegb--------ddcca-a-----acbaa------bbaaaabecccbbdeddedcdcccdddcddffggghiggfffdeeff........ywxy.lulo.lv...kcdgddffefffilyx+ijlihjlica---a--cgffel.+edfgeedflcbahgflfffilyx+fffk.+xyyy.........mgeimvskjkllllcbahgfllfhdffhkfffca-aady...llnabdoa--a
(PID.TID 0000.0001) //     19 zmfeccdghfeegcbt......................aadcac--cbbeefjkfefw+..........zpu..............aafifccgnrzgghjry.+++sr+lq.--edfkk................................kqnzrqqkoxtkblwnnsp.vv......skhggt...+++t---------b-da----bbbbfu..............fdddccaadct---------bdaf---------edd-------adlaaaaddccaadcdddcbbbbcdddcccdffffghgffffddeff+..........vnhzy.tllqiedccdhggfggffiiggflligfiljfba---aafddehy...pwvlhfffcbagfccgffiiggfcbdgy..yz..........xigqophijkkiifcbagfcceeffffjlkjgaa---bfvheeln-aesaaab
(PID.TID 0000.0001) //     18 ..wifedfkhfegbbcivlqfoz..............jaad--ba-abcehjnldcclz+........spps.............jaacfihggokeeffgt..++++..hhlfdeddke...............................vkqn+xnnnz..qcz+.zwxtsttz..ysrkhot++++++zig------cabbcbba--aabfu+..............hcbaaaaaccig--------b--f---------egqqqaa----frb---baaaaaccdccbaaabbddddccdffffghfeeeeedeff+........+kkrhw.vqmlnieddcdehgggffgigedbjiffefilhfcaaaacgceei.......zomggfcaecbbffgigedbaaceiy.............zilrddefikkhhgfcaecbbccddefilihecbaacbaajfega-aesfeed
(PID.TID 0000.0001) //     17 ..+wfeefikhgcbbccaaacgn.............icaa--abbbccceiomkfdbbc+.......+s...............icaaccfihfoedddeedy..++...nnqwgfeeke...............................xsrxzz+z.yy.z++..+zsjjllllljllpjos+++.+zhhi-----efdcddb-----adu+...............hcbaa--acchi-----e-----ea--------foqqoqqo--hlwgea-baa--accddba--bbbddddccdfffhhgfeeddccedd.........+nk+..xiioonhfefddegihhghigfdbahfeddfgikhfffdfgccffw........zohhgebbaaaghigfdbaaabdgx..............nheddefiklhghgebbaaaaaccdfhlhfefdcccaabjefbaaafoosso
(PID.TID 0000.0001) //     16 ....wiheddeccdfhfbabdfl............jdbad--bddefhhkqqlgfaakqz..v.+..+...............jdbaddddgifkccccdccd+.++..++ynvz.tkkq.............................++..u+....z.mu....++zyslllllkhggkmpy++...ihhi-----eigfdba----adu+................kdcaaa-acchi-----ea---feb-----a-acnoohfghknvmwnucacaaa-accdcb---bbbcdddddefffggfeeedcccccb..........qhu..hhhkojgffgeefghihhiieedbaccbbdcdfgghhiihcbeiw.........+ynjgebaaaahiieedbaaabcdy..............ygddeghiljgfjgebaaaa-aacccfikkhecccbbbaaabaadfklnqpp
(PID.TID 0000.0001) //     15 ......ylea--acfihebcbbes..........sfcbbnabbcffijnpnqneaaat..umrr+s.z..............sfcbbngfffigcaaabdbcac+.+++++zgmpx...y.............................+++++.ztsvd.mm....++..zslwz.yhhhhnz+++...rhgc----ablifeb--dfdfu+................+lkdca--abcgc----ab----ige----acaaalllkddfiy..yswxbdca--abcccb---bbbbddddeffflhfeeeecbbbbaa..........thk.xgghiligfghfefhhhhiiheedcdba-abbacbcdceffbbfw+..........++ujfbaaa-iiheedcdbbabdmz.............zfdeghikkifdujfbaaa----aacffiljgfffcca--adfikkiihhhf
(PID.TID 0000.0001) //     14 ........c---acgkhdcc--di..........ofddch--adgillkkkifcadcx.ymmqzqikvnnps..........ofddchohffikaaaaabaaa-aw+.+ysnggox++...............................+++++wmegt-.qrv..........yzzzzrjil+++....qhgd-----ajlifcacdlqx+++...............mligea---abgd-----a-----i---cccdeabkklldinqssy..xxvgea---abbbb---abaaddddeedkmeddefdbbbaaaa...........+y.uhghikihgfghefgihhhgeeeeedbc---b--aaaaabaabm..............+viba---hgeeeeeddbaadhw.............nedeghjjhfed+viba-------acdefinmlgiieb-chnnnmlmlgffc
(PID.TID 0000.0001) //     13 .......+b----cfkhec---afz.........nhfdff--cfiljigfjd--efdozy...+ximpnnuz..........nhfdffholghkaaaaaba-a---flkkuswyy++++y..............................+++yqddhp-+zr...........zzzzz++ry++......yd-------iljhcbbchz+......++.........+mmhffc----ad--------------aeecdeidfkkqnqlmqquukqqmfffc----aaba------acdddcbcineddgdbaaa----..............iihiijjhfefgefhjihiffgggffcdd--a------aa-bfz...............+qe---aiffgggffecaabelx...........zjecehijhfecc.+qe---aa---aedeegknmlgiigcdfhpokkimlfdb
(PID.TID 0000.0001) //     12 .......ec----chjhec---ag..........skiqdd-abgkhfcccea-bdei........t................skiqddeiiiifaaabae--a---dd--iu+++.+++s..............................++zwgfcfk-xq++..........+z+++++.+++....++.s-------gknhccbbhwwy.....+++........+njfeed-----s------------a-ceccdejhlllkqlkklssiccdeeeed-----aa-------abddcabcnfddegcaaa-----.............wjkkkjjjigeefffgjiiighiiihhhlf------------dk+................+ja---ighiiihhhdaabdffghtxx......mfccehjiffdb-..+ja------bffdddehfd--bedaacfhpnligiihd
(PID.TID 0000.0001) //     11 ......pdca--achlheba--ai..........nkn.fd-acghfbaaaa-achmy......................+..nkn.fdemijidaaaabi-------a--q+....++.z.......+++....................++vnbbbcleiis...........+++++..........+yyza----b-fkpkeeecflmqxy....++........+lhfeecc----za----b-----a--ccccddkhieekkossssfbbbbcdeecc------------aaadcbabcfhddccba-------............njjijhhihijhgggggjjjjijkkkkjzqd-----------irw.................++e---jijkkkkjjhcaacddeegpy.....xfdccdhjgfdda-..++e-----mhmijddda--------ahhfiokhedegg
(PID.TID 0000.0001) //     10 ......wfdb--achlhea---an.........uos..dc-adhfca-----bfiv.......................+.uos..dcemikkfdcaabi-------equ+................++sy...................+tq-fdbblcmk...........................zyvuq----ccjknqiheddefhiksz++++........zkhfdccb----uq----cc----a---dcfhkopqjeissrnpfbbcccdedccb------------aabdcaaaacfddbca-------a..........zslihhigghgijjihhhhkllkkkkkkjk+xfa-abb-----vvv...................+wa--kkkkkkjkkkedccdeeeeipz..zwhccbcdhgfddcam...+wa---mlmkijhc----------cjjffiheb-aad
(PID.TID 0000.0001) //      9 ......vgec---bfikca--cjl+.......+nnv.+cc-achfa------ch+..................w......+nnv.+ccffhkkiddaadha-----as++...........w.......njo+................+x-----bcgipvz++........................zxuuk------diqqojfefiiiijmy.++.........zkhfdbaa----uk------a---a----djmqrrnlllsoiddcccccdjfdbaa-------daa---acccaaaacccca--------ac.........+zjijhfgfggffhjkkkiillljihhghgi.+udaabbb----tei...................++qdejihhghgihighdeeffgghimnnjgecbbcdgfeccbas...++qdeqnghiljcaaaaidaa----beedeeca--bb
(PID.TID 0000.0001) //      8 .....zleca---afjfca--hdfz.......vkky.jceaaeifa--acbcei...................w......vkky.jceddefijffdddhb--a-afv.............w.......likn+.....++.....++znpa----bbdinn..ss.........................+yku------fnlmnjhinlksssw............qhfeca------yku--------------ejnpqqnninnritqdccchkmfca--------addc--aeffaaaaaaccb-a----a--bd+.......wihgghgeffffeefhijkjkljiigeeffef.++udbbaba---ven....................++xyigeeffefffhjhhikkklljklmhffeeeggfdcbaay.....++xywnfgllcbbabegkecba----ddddcaacdc
(PID.TID 0000.0001) //      7 ...+zohec--abcfkhecbchbdx.......qiht.faaabfida-aabchjk...................zz.....qiht.faaaabdgijgfededcdcb-f+.............zz.....nhhijz....tqq.....+ujgzgd---abcinn...pz.........................+zu------cegklkkknols..xuu..........zgfdba------+zu--------------edefqgqddsz+......+yuddba--------bcd---affaaadffabbb-----aa-bccmm+....tiggfggfeeeefeeefiiiijkiihheddddd.+.+ufb-----l.gx...........s.........++zhheddddddddjjllliijhfkmmkkjjhijgdcba--q......++zzkfilfccccoz..ulkcd---bccnfddddd
(PID.TID 0000.0001) //      6 ..+yomfddcaabefkifdchaadt......uqdeisc---afhfaa---bfgi....................zz..rnqdeisc----dfefgifffkklldc--v..............zz..rnjffggm...nlmn+....+sffzya--aabciup...pp.........................v.x-----eaaffdfhimrmp...yuu.++.......zudba------v.x---------a----fbbpqgzenx+........zdbcba--------adc---dda-adffe-aa--------aaacmllkhhfffffffgfeeeeeeeefhhhhijihhffddcbb....+ufc-baaqvhh..........dcfeeh......++hffddcbbbbdhhiihedddb-cfhhhjjjieca----+.......++zggqvifefhz......zobbaccfwuffeee
(PID.TID 0000.0001) //      5 ..+nhgffkghccfhkhffgdaackz....uoibcimlaababcgca----abe.....................ysstlibcimlaaacfbddfjjhijeehf-a-c...............ysstlgeeeeoz..ijklt+....lfjzzf---adfczs...su.........................qk.yi---fdaadcehllotq....yy+++zzs.....+zcba-----qk.yi-------gha-fjddqs+xkrz.........q-bccba-------cdd--aaa----df------------aaachikdccdeeeeeeedddedddddgghhhhjhhgffcbbaa.....+upjdcy.vohq.......+idcdfeeefwz....gffcbbaaaaddfegecca----dfeefhfgdb-----+.efwz....+hhn.vklox.........gdccfjwrigffh
(PID.TID 0000.0001) //      4 .+ujhgfllfhdffhkfffca-aady...llnabdopfcbfbbbcgfcaa-aae+.......................lcabdopfcbdgdbcdehlihgfddc--ms..................lcgfdddhq.+hiilnz++.+oquxyz--adgkf................................okn.zd--dcaabcfmtooyxz......+yuiiy....++gb------okn.zd---eciiiicfkeeqy.ysz..........n-aagb--------ddcca-a-----acbaa------bbaaaabfgdcbbdeddedcdcccdddcddffggghiggfffdbaa-........ywxy.lulo.lv...kcdgddffefffilyx+fffdbaa---acdcccba--abvfedeffdcca----b+.fffilyx+fffk.+xyyy.........mgeimvskjklll
(PID.TID 0000.0001) //      3 +vjggfcceeffffjlkjgaa---bfvheeln-aesphfdzmfeccdghfeegcbt......................aa-aesphfdhgabddeflihhgfecbaaayq+++++...........aafifccgnrzgghjry.+++sr+lq.--edfkk................................kqnz.vtpoxtkblwnnsp.vv......skhggt...+++t-------kqnz.vtpkllgdccfkkkkk..++..........+g---t---------bdaf---------edd-------adlaaaafecaaadcdddcbbbbcdddcccdffffghgffffdcaa-+..........vnhzy.tllqiedccdhggfggffiiggffffdcaa----abcaaaa-acxxmecdjmdbba----r+.gffiiggfcbdgy..yz..........xigqophijkkii
(PID.TID 0000.0001) //      2 qifeecbbccddefilihecbaacbaajfega-aesqhff..wifedfkhfegbbcivlqfoz..............jaa-aesqhffiea-cdeflkkljifeddcba---bry+.........jaacfihggokeeffgt..++++..hhlfdeddke...............................vkqn+.sghz..qcz+.zwxtsttz..ysrkhot++++++zig------kqn+.sghfcbcbbbdgfdek.++++.........+l---ig--------b--f---------egqqqaa----frb---caaaaaccdccbaaabbddddccdffffghfeeeeecba-+........+kkrhw.vqmlnieddcdehgggffgigedbeeeecba------baaaa-euwxqdbcdkud-----sy+.ffgigedbaaceiy.............zilrddefikkhh
(PID.TID 0000.0001) //      1 ebbbbaaaaaccdfhlhfefdcccaabjefbaaafonhgl..+wfeefikhgcbbccaaacgn.............icaaaafonhglid--adfgkkkklkhffddca-----s++++.....icaaccfihfoedddeedy..++...nnqwgfeeke...............................xsrxz.tedyy.z++..+zsjjllllljllpjos+++.+zhhi-----esrxz.tedcbbbbaaadddet.++++.........+l---hi-----e-----ea--------foqqoqqo--hlwgea----a-accddba--bbbddddccdfffhhgfeeddccba-.........+nk+..xiioonhfefddegihhghigfdbaeddccba-------aaaabgns.qcbcchyzqngll++..ghigfdbaaabdgx..............nheddefiklhg
(PID.TID 0000.0001) //      0 -aaaaaaa-aacccfikkhecccbbbaaabaadfkllilm....wiheddeccdfhfbabdfl............jdbaddfkllilmgebaadfijjiiikjhffdcba-----lllgn...jdbaddddgifkccccdccd+.++..++ynvz.tkkq.............................++..u+..zmd.mu....++zyslllllkhggkmpy++...ihhi-----e.u+..zmdfbd---a-aeef.xx+..........+++s--hi-----ea---feb-----a-acnoohfghknvmwnuca-----accdcb---bbbcdddddefffggfeeedcccbba..........qhu..hhhkojgffgeefghihhiieedbaedcccbba----aa--alrwwy.kcbccc+...++++...hiieedbaaabcdy..............ygddeghiljgf
(PID.TID 0000.0001) //     -1 --aaaaa----aacffiljgfffcca--adfikkiikimi......ylea--acfihebcbbes..........sfcbbnkkiikimiiheccfurkiffhijjigfecb-----l----..sfcbbngfffigcaaabdbcac+.+++++zgmpx...y.............................+++++.z+.wq.mm....++..zslwz.yhhhhnz+++...rhgc----ab++.z+.wqgbf-------dgzpoy+........+ys+yrbgc----ab----ige----acaaalllkddfiy..yswxb--aa-abcccb---bbbbddddeffflhfeeeecbbcbba..........thk.xgghiligfghfefhhhhiiheedcdecbbcbbaa----a--bdflm.yuibbcc.......+...iiheedcdbbabdmz.............zfdeghikkifd
(PID.TID 0000.0001) //     -2 --aaa-------acdefinmlgiieb-chnnnmlmlfklk........c---acgkhdcc--di..........ofddchmlmlfklklkhednwwsheeghhijjgfdca----g---a..ofddchohffikaaaaabaaa-aw+.+ysnggox++...............................+++++wmu++y.qrv..........yzzzzrjil+++....qhgd-----a++wmu++ywn--------fwvmgy+........+r-.+++gd-----a-----i---cccdeabkklldinqssy..xxv-abc--abbbb---abaaddddeedkmeddefdbbbdcba...........+y.uhghikihgfghefgihhhgeeeeeddbbbdcbaa-------ba-hv.susfbcc.......+...hgeeeeeddbaadhw.............nedeghjjhfed
(PID.TID 0000.0001) //     -3 a--a---aa---aedeegknmlgiigcdfhpokkimdkmk.......+b----cfkhec---afz.........nhfdffkkimdkmknoiedcfjvpddegghhhhgfdcbaa-n---a..nhfdffholghkaaaaaba-a---flkkuswyy++++y..............................+++yqd.++++zr...........zzzzz++ry++......yd-------+yqd.+++zvq--dafz.lqnggw+........+b-....d--------------aeecdeidfkkqnqlmqquukqqmfabcc---aaba------acdddcbcineddgdbaaaeedb..............iihiijjhfefgefhjihiffgggffbaaaeedbaa----------nysqssfcd...........iffgggffecaabelx...........zjecehijhfecc
(PID.TID 0000.0001) // =======================================================
(PID.TID 0000.0001) // END OF FIELD                                          =
(PID.TID 0000.0001) // =======================================================
(PID.TID 0000.0001) 
(PID.TID 0000.0001) // =======================================================
(PID.TID 0000.0001) // Field Model Ro_surf (ini_masks_etc)
(PID.TID 0000.0001) // CMIN =         -7.105427357601002E-15
(PID.TID 0000.0001) // CMAX =         -7.105427357601002E-15
(PID.TID 0000.0001) // CINT =          0.000000000000000E+00
(PID.TID 0000.0001) // SYMBOLS (CMIN->CMAX): -abcdefghijklmnopqrstuvwxyz+
(PID.TID 0000.0001) //                  0.0: .
(PID.TID 0000.0001) // RANGE I (Lo:Hi:Step):(    -3:   388:     1)
(PID.TID 0000.0001) // RANGE J (Lo:Hi:Step):(    20:    -3:    -1)
(PID.TID 0000.0001) // RANGE K (Lo:Hi:Step):(   1:   1:   1)
(PID.TID 0000.0001) // =======================================================
(PID.TID 0000.0001) // =======================================================
(PID.TID 0000.0001) // END OF FIELD                                          =
(PID.TID 0000.0001) // =======================================================
(PID.TID 0000.0001) 
(PID.TID 0000.0001) // =======================================================
(PID.TID 0000.0001) // Field hFacC at iteration          0
(PID.TID 0000.0001) // CMIN =          1.000000000000000E+00
(PID.TID 0000.0001) // CMAX =          1.000000000000000E+00
(PID.TID 0000.0001) // CINT =          0.000000000000000E+00
(PID.TID 0000.0001) // SYMBOLS (CMIN->CMAX): -abcdefghijklmnopqrstuvwxyz+
(PID.TID 0000.0001) //                  0.0: .
(PID.TID 0000.0001) // RANGE I (Lo:Hi:Step):(    -3:   388:     1)
(PID.TID 0000.0001) // RANGE J (Lo:Hi:Step):(    20:    -3:    -1)
(PID.TID 0000.0001) // RANGE K (Lo:Hi:Step):(   1:   1:   1)
(PID.TID 0000.0001) // =======================================================
(PID.TID 0000.0001) // =======================================================
(PID.TID 0000.0001) // END OF FIELD                                          =
(PID.TID 0000.0001) // =======================================================
(PID.TID 0000.0001) 
(PID.TID 0000.0001) // =======================================================
(PID.TID 0000.0001) // Field hFacW at iteration          0
(PID.TID 0000.0001) // CMIN =          1.000000000000000E+00
(PID.TID 0000.0001) // CMAX =          1.000000000000000E+00
(PID.TID 0000.0001) // CINT =          0.000000000000000E+00
(PID.TID 0000.0001) // SYMBOLS (CMIN->CMAX): -abcdefghijklmnopqrstuvwxyz+
(PID.TID 0000.0001) //                  0.0: .
(PID.TID 0000.0001) // RANGE I (Lo:Hi:Step):(    -3:   388:     1)
(PID.TID 0000.0001) // RANGE J (Lo:Hi:Step):(    20:    -3:    -1)
(PID.TID 0000.0001) // RANGE K (Lo:Hi:Step):(   1:   1:   1)
(PID.TID 0000.0001) // =======================================================
(PID.TID 0000.0001) // =======================================================
(PID.TID 0000.0001) // END OF FIELD                                          =
(PID.TID 0000.0001) // =======================================================
(PID.TID 0000.0001) 
(PID.TID 0000.0001) // =======================================================
(PID.TID 0000.0001) // Field hFacS at iteration          0
(PID.TID 0000.0001) // CMIN =          1.000000000000000E+00
(PID.TID 0000.0001) // CMAX =          1.000000000000000E+00
(PID.TID 0000.0001) // CINT =          0.000000000000000E+00
(PID.TID 0000.0001) // SYMBOLS (CMIN->CMAX): -abcdefghijklmnopqrstuvwxyz+
(PID.TID 0000.0001) //                  0.0: .
(PID.TID 0000.0001) // RANGE I (Lo:Hi:Step):(    -3:   388:     1)
(PID.TID 0000.0001) // RANGE J (Lo:Hi:Step):(    20:    -3:    -1)
(PID.TID 0000.0001) // RANGE K (Lo:Hi:Step):(   1:   1:   1)
(PID.TID 0000.0001) // =======================================================
(PID.TID 0000.0001) // =======================================================
(PID.TID 0000.0001) // END OF FIELD                                          =
(PID.TID 0000.0001) // =======================================================
(PID.TID 0000.0001) 
(PID.TID 0000.0001) GAD_INIT_FIXED: GAD_OlMinSize=  1  0  1
(PID.TID 0000.0001) 
(PID.TID 0000.0001) // ===================================
(PID.TID 0000.0001) // GAD parameters :
(PID.TID 0000.0001) // ===================================
(PID.TID 0000.0001) tempAdvScheme =   /* Temp. Horiz.Advection scheme selector */
(PID.TID 0000.0001)                       2
(PID.TID 0000.0001)     ;
(PID.TID 0000.0001) tempVertAdvScheme =   /* Temp. Vert. Advection scheme selector */
(PID.TID 0000.0001)                       2
(PID.TID 0000.0001)     ;
(PID.TID 0000.0001) tempMultiDimAdvec =   /* use Muti-Dim Advec method for Temp */
(PID.TID 0000.0001)                   F
(PID.TID 0000.0001)     ;
(PID.TID 0000.0001) tempSOM_Advection = /* use 2nd Order Moment Advection for Temp */
(PID.TID 0000.0001)                   F
(PID.TID 0000.0001)     ;
(PID.TID 0000.0001) AdamsBashforthGt = /* apply Adams-Bashforth extrapolation on Gt */
(PID.TID 0000.0001)                   T
(PID.TID 0000.0001)     ;
(PID.TID 0000.0001) AdamsBashforth_T = /* apply Adams-Bashforth extrapolation on Temp */
(PID.TID 0000.0001)                   F
(PID.TID 0000.0001)     ;
(PID.TID 0000.0001) saltAdvScheme =   /* Salt. Horiz.advection scheme selector */
(PID.TID 0000.0001)                       2
(PID.TID 0000.0001)     ;
(PID.TID 0000.0001) saltVertAdvScheme =   /* Salt. Vert. Advection scheme selector */
(PID.TID 0000.0001)                       2
(PID.TID 0000.0001)     ;
(PID.TID 0000.0001) saltMultiDimAdvec =   /* use Muti-Dim Advec method for Salt */
(PID.TID 0000.0001)                   F
(PID.TID 0000.0001)     ;
(PID.TID 0000.0001) saltSOM_Advection = /* use 2nd Order Moment Advection for Salt */
(PID.TID 0000.0001)                   F
(PID.TID 0000.0001)     ;
(PID.TID 0000.0001) AdamsBashforthGs = /* apply Adams-Bashforth extrapolation on Gs */
(PID.TID 0000.0001)                   T
(PID.TID 0000.0001)     ;
(PID.TID 0000.0001) AdamsBashforth_S = /* apply Adams-Bashforth extrapolation on Salt */
(PID.TID 0000.0001)                   F
(PID.TID 0000.0001)     ;
(PID.TID 0000.0001) // ===================================
(PID.TID 0000.0001) ------------------------------------------------------------
(PID.TID 0000.0001) DIAGNOSTICS_SET_LEVELS: done
(PID.TID 0000.0001)  Total Nb of available Diagnostics: ndiagt=   248
(PID.TID 0000.0001)  write list of available Diagnostics to file: available_diagnostics.log
(PID.TID 0000.0001) SETDIAG: Allocate  1 x  1 Levels for Diagnostic #    23 ETAN
(PID.TID 0000.0001) SETDIAG: Allocate  1 x  1 Levels for Diagnostic #    24 ETANSQ
(PID.TID 0000.0001) SETDIAG: Allocate  1 x  1 Levels for Diagnostic #    25 DETADT2
(PID.TID 0000.0001) SETDIAG: Allocate  1 x  1 Levels for Diagnostic #    73 PHIBOT
(PID.TID 0000.0001) SETDIAG: Allocate  1 x  1 Levels for Diagnostic #    74 PHIBOTSQ
(PID.TID 0000.0001) SETDIAG: Allocate  1 x  1 Levels for Diagnostic #    81 oceTAUX
(PID.TID 0000.0001) SETDIAG: Allocate  1 x  1 Levels for Diagnostic #    82 oceTAUY
(PID.TID 0000.0001) SETDIAG: Allocate  1 x  1 Levels for Diagnostic #    90 TRELAX
(PID.TID 0000.0001) SETDIAG: Allocate  1 x  1 Levels for Diagnostic #    91 SRELAX
(PID.TID 0000.0001) SETDIAG: Allocate  1 x  1 Levels for Diagnostic #    92 surForcT
(PID.TID 0000.0001) SETDIAG: Allocate  1 x  1 Levels for Diagnostic #    93 surForcS
(PID.TID 0000.0001) SETDIAG: Allocate  1 x  1 Levels for Diagnostic #    94 TFLUX
(PID.TID 0000.0001) SETDIAG: Allocate  1 x  1 Levels for Diagnostic #    95 SFLUX
(PID.TID 0000.0001) SETDIAG: Allocate  1 x  1 Levels for Diagnostic #    88 oceQsw
(PID.TID 0000.0001) SETDIAG: Allocate  1 x  1 Levels for Diagnostic #    87 oceQnet
(PID.TID 0000.0001) SETDIAG: Allocate  1 x  1 Levels for Diagnostic #    86 oceSflux
(PID.TID 0000.0001) SETDIAG: Allocate  1 x  1 Levels for Diagnostic #    85 oceFWflx
(PID.TID 0000.0001) SETDIAG: Allocate 15 x  1 Levels for Diagnostic #    30 UVEL
(PID.TID 0000.0001) SETDIAG: Allocate 15 x  1 Levels for Diagnostic #    31 VVEL
(PID.TID 0000.0001) SETDIAG: Allocate 15 x  1 Levels for Diagnostic #    32 WVEL
(PID.TID 0000.0001) SETDIAG: Allocate 15 x  1 Levels for Diagnostic #    71 PHIHYD
(PID.TID 0000.0001) SETDIAG: Allocate 15 x  1 Levels for Diagnostic #    46 VVELMASS
(PID.TID 0000.0001) SETDIAG: Allocate 15 x  1 Levels for Diagnostic #    45 UVELMASS
(PID.TID 0000.0001) SETDIAG: Allocate 15 x  1 Levels for Diagnostic #    38 WVELSQ
(PID.TID 0000.0001) SETDIAG: Allocate 15 x  1 Levels for Diagnostic #    26 THETA
(PID.TID 0000.0001) SETDIAG: Allocate 15 x  1 Levels for Diagnostic #    50 UTHMASS
(PID.TID 0000.0001) SETDIAG: Allocate 15 x  1 Levels for Diagnostic #    51 VTHMASS
(PID.TID 0000.0001) SETDIAG: Allocate 15 x  1 Levels for Diagnostic #    52 WTHMASS
(PID.TID 0000.0001) SETDIAG: Allocate 15 x  1 Levels for Diagnostic #    27 SALT
(PID.TID 0000.0001) SETDIAG: Allocate 15 x  1 Levels for Diagnostic #    53 USLTMASS
(PID.TID 0000.0001) SETDIAG: Allocate 15 x  1 Levels for Diagnostic #    54 VSLTMASS
(PID.TID 0000.0001) SETDIAG: Allocate 15 x  1 Levels for Diagnostic #    55 WSLTMASS
(PID.TID 0000.0001) SETDIAG: Allocate  1 x 12 Levels for Diagnostic #   216 SI_Fract
(PID.TID 0000.0001) SETDIAG: Allocate  1 x 12 Levels for Diagnostic #   217 SI_Thick
(PID.TID 0000.0001) - NOTE - SETDIAG: Counter-mate #   216 SI_Fract is already set
(PID.TID 0000.0001) SETDIAG: Allocate  1 x 12 Levels for Diagnostic #   218 SI_SnowH
(PID.TID 0000.0001) - NOTE - SETDIAG: Counter-mate #   216 SI_Fract is already set
(PID.TID 0000.0001) SETDIAG: Allocate  1 x 12 Levels for Diagnostic #   219 SI_Tsrf
(PID.TID 0000.0001) - NOTE - SETDIAG: Counter-mate #   216 SI_Fract is already set
(PID.TID 0000.0001) SETDIAG: Allocate  1 x 12 Levels for Diagnostic #   220 SI_Tice1
(PID.TID 0000.0001) - NOTE - SETDIAG: Counter-mate #   216 SI_Fract is already set
(PID.TID 0000.0001) SETDIAG: Allocate  1 x 12 Levels for Diagnostic #   221 SI_Tice2
(PID.TID 0000.0001) - NOTE - SETDIAG: Counter-mate #   216 SI_Fract is already set
(PID.TID 0000.0001) SETDIAG: Allocate  1 x 12 Levels for Diagnostic #   222 SI_Qice1
(PID.TID 0000.0001) - NOTE - SETDIAG: Counter-mate #   217 SI_Thick is already set
(PID.TID 0000.0001) SETDIAG: Allocate  1 x 12 Levels for Diagnostic #   223 SI_Qice2
(PID.TID 0000.0001) - NOTE - SETDIAG: Counter-mate #   217 SI_Thick is already set
(PID.TID 0000.0001) SETDIAG: Allocate  1 x 12 Levels for Diagnostic #   224 SIsnwAge
(PID.TID 0000.0001) SETDIAG: Allocate  1 x 12 Levels for Diagnostic #   226 SIsnwPrc
(PID.TID 0000.0001) - NOTE - SETDIAG: Counter-mate #   216 SI_Fract is already set
(PID.TID 0000.0001) SETDIAG: Allocate  1 x 12 Levels for Diagnostic #   225 SIalbedo
(PID.TID 0000.0001) - NOTE - SETDIAG: Counter-mate #   216 SI_Fract is already set
(PID.TID 0000.0001) SETDIAG: Allocate  1 x 12 Levels for Diagnostic #   229 SIflx2oc
(PID.TID 0000.0001) SETDIAG: Allocate  1 x 12 Levels for Diagnostic #   230 SIfrw2oc
(PID.TID 0000.0001) SETDIAG: Allocate  1 x 12 Levels for Diagnostic #   231 SIsaltFx
(PID.TID 0000.0001) SETDIAG: Allocate  1 x 12 Levels for Diagnostic #   227 SIflxAtm
(PID.TID 0000.0001) SETDIAG: Allocate  1 x 12 Levels for Diagnostic #   228 SIfrwAtm
(PID.TID 0000.0001) SETDIAG: Allocate  1 x  1 Levels for Diagnostic #    23 ETAN
(PID.TID 0000.0001) SETDIAG: Allocate  1 x  1 Levels for Diagnostic #    85 oceFWflx
(PID.TID 0000.0001) SETDIAG: Allocate  1 x  1 Levels for Diagnostic #    23 ETAN
(PID.TID 0000.0001) SETDIAG: Allocate 15 x  1 Levels for Diagnostic #    26 THETA
(PID.TID 0000.0001) SETDIAG: Allocate 15 x  1 Levels for Diagnostic #    27 SALT
(PID.TID 0000.0001)   space allocated for all diagnostics:     467 levels
(PID.TID 0000.0001)   set mate pointer for diag #    81  oceTAUX  , Parms: UU      U1 , mate:    82
(PID.TID 0000.0001)   set mate pointer for diag #    82  oceTAUY  , Parms: VV      U1 , mate:    81
(PID.TID 0000.0001)   set mate pointer for diag #    30  UVEL     , Parms: UUR     MR , mate:    31
(PID.TID 0000.0001)   set mate pointer for diag #    31  VVEL     , Parms: VVR     MR , mate:    30
(PID.TID 0000.0001)   set mate pointer for diag #    46  VVELMASS , Parms: VVr     MR , mate:    45
(PID.TID 0000.0001)   set mate pointer for diag #    45  UVELMASS , Parms: UUr     MR , mate:    46
(PID.TID 0000.0001)   set mate pointer for diag #    50  UTHMASS  , Parms: UUr     MR , mate:    51
(PID.TID 0000.0001)   set mate pointer for diag #    51  VTHMASS  , Parms: VVr     MR , mate:    50
(PID.TID 0000.0001)   set mate pointer for diag #    53  USLTMASS , Parms: UUr     MR , mate:    54
(PID.TID 0000.0001)   set mate pointer for diag #    54  VSLTMASS , Parms: VVr     MR , mate:    53
(PID.TID 0000.0001) DIAGNOSTICS_SET_POINTERS: Set levels for Outp.Stream: surfDiag
(PID.TID 0000.0001)  Levels:       1.
(PID.TID 0000.0001) DIAGNOSTICS_SET_POINTERS: Set levels for Outp.Stream: dynDiag
(PID.TID 0000.0001)  Levels:       1.   2.   3.   4.   5.   6.   7.   8.   9.  10.  11.  12.  13.  14.  15.
(PID.TID 0000.0001) DIAGNOSTICS_SET_POINTERS: Set levels for Outp.Stream: thSIceDiag
(PID.TID 0000.0001)  Levels:       1.
(PID.TID 0000.0001) DIAGNOSTICS_SET_POINTERS: Set levels for Outp.Stream: surfInst
(PID.TID 0000.0001)  Levels:       1.
(PID.TID 0000.0001) DIAGNOSTICS_SET_POINTERS: Set levels for Outp.Stream: etaInst
(PID.TID 0000.0001)  Levels:       1.
(PID.TID 0000.0001) DIAGNOSTICS_SET_POINTERS: Set levels for Outp.Stream: dynInst
(PID.TID 0000.0001)  Levels:       1.   2.   3.   4.   5.   6.   7.   8.   9.  10.  11.  12.  13.  14.  15.
(PID.TID 0000.0001) DIAGNOSTICS_SET_POINTERS: done
(PID.TID 0000.0001) ------------------------------------------------------------
 DIAGSTATS_SET_REGIONS: start reading region-mask file: regMask_lat24.bin
 DIAGSTATS_SET_REGIONS:  reading set k=  1
(PID.TID 0000.0001)  MDS_READ_FIELD: opening global file: regMask_lat24.bin
 DIAGSTATS_SET_REGIONS:          set k=  1 <= done
(PID.TID 0000.0001) DIAGSTATS_SET_REGIONS: define   3 regions:  1  2  3
(PID.TID 0000.0001) ------------------------------------------------------------
(PID.TID 0000.0001) SETDIAG: Allocate  1 Levels for Stats-Diag #    23 ETAN
(PID.TID 0000.0001) SETDIAG: Allocate  1 Levels for Stats-Diag #    24 ETANSQ
(PID.TID 0000.0001) SETDIAG: Allocate  1 Levels for Stats-Diag #    25 DETADT2
(PID.TID 0000.0001) SETDIAG: Allocate 15 Levels for Stats-Diag #    26 THETA
(PID.TID 0000.0001) SETDIAG: Allocate 15 Levels for Stats-Diag #    27 SALT
(PID.TID 0000.0001) SETDIAG: Allocate 15 Levels for Stats-Diag #    80 CONVADJ
(PID.TID 0000.0001) SETDIAG: Allocate  1 Levels for Stats-Diag #    81 oceTAUX
(PID.TID 0000.0001) SETDIAG: Allocate  1 Levels for Stats-Diag #    82 oceTAUY
(PID.TID 0000.0001) SETDIAG: Allocate  1 Levels for Stats-Diag #    90 TRELAX
(PID.TID 0000.0001) SETDIAG: Allocate  1 Levels for Stats-Diag #    91 SRELAX
(PID.TID 0000.0001) SETDIAG: Allocate  1 Levels for Stats-Diag #    92 surForcT
(PID.TID 0000.0001) SETDIAG: Allocate  1 Levels for Stats-Diag #    93 surForcS
(PID.TID 0000.0001) SETDIAG: Allocate  1 Levels for Stats-Diag #    94 TFLUX
(PID.TID 0000.0001) SETDIAG: Allocate  1 Levels for Stats-Diag #    95 SFLUX
(PID.TID 0000.0001) SETDIAG: Allocate  1 Levels for Stats-Diag #    87 oceQnet
(PID.TID 0000.0001) SETDIAG: Allocate  1 Levels for Stats-Diag #    86 oceSflux
(PID.TID 0000.0001) SETDIAG: Allocate  1 Levels for Stats-Diag #    85 oceFWflx
(PID.TID 0000.0001) SETDIAG: Allocate  1 Levels for Stats-Diag #    23 ETAN
(PID.TID 0000.0001) SETDIAG: Allocate 15 Levels for Stats-Diag #    26 THETA
(PID.TID 0000.0001) SETDIAG: Allocate 15 Levels for Stats-Diag #    27 SALT
(PID.TID 0000.0001) SETDIAG: Allocate  1 Levels for Stats-Diag #   216 SI_Fract
(PID.TID 0000.0001) SETDIAG: Allocate  1 Levels for Stats-Diag #   217 SI_Thick
(PID.TID 0000.0001) - NOTE - SETDIAG: Counter Diagnostic #   216 SI_Fract has already been set
(PID.TID 0000.0001) SETDIAG: Allocate  1 Levels for Stats-Diag #   218 SI_SnowH
(PID.TID 0000.0001) - NOTE - SETDIAG: Counter Diagnostic #   216 SI_Fract has already been set
(PID.TID 0000.0001) SETDIAG: Allocate  1 Levels for Stats-Diag #   219 SI_Tsrf
(PID.TID 0000.0001) - NOTE - SETDIAG: Counter Diagnostic #   216 SI_Fract has already been set
(PID.TID 0000.0001) SETDIAG: Allocate  1 Levels for Stats-Diag #   220 SI_Tice1
(PID.TID 0000.0001) - NOTE - SETDIAG: Counter Diagnostic #   216 SI_Fract has already been set
(PID.TID 0000.0001) SETDIAG: Allocate  1 Levels for Stats-Diag #   221 SI_Tice2
(PID.TID 0000.0001) - NOTE - SETDIAG: Counter Diagnostic #   216 SI_Fract has already been set
(PID.TID 0000.0001) SETDIAG: Allocate  1 Levels for Stats-Diag #   222 SI_Qice1
(PID.TID 0000.0001) - NOTE - SETDIAG: Counter Diagnostic #   217 SI_Thick has already been set
(PID.TID 0000.0001) SETDIAG: Allocate  1 Levels for Stats-Diag #   223 SI_Qice2
(PID.TID 0000.0001) - NOTE - SETDIAG: Counter Diagnostic #   217 SI_Thick has already been set
(PID.TID 0000.0001) SETDIAG: Allocate  1 Levels for Stats-Diag #   226 SIsnwPrc
(PID.TID 0000.0001) - NOTE - SETDIAG: Counter Diagnostic #   216 SI_Fract has already been set
(PID.TID 0000.0001) SETDIAG: Allocate  1 Levels for Stats-Diag #   225 SIalbedo
(PID.TID 0000.0001) - NOTE - SETDIAG: Counter Diagnostic #   216 SI_Fract has already been set
(PID.TID 0000.0001) SETDIAG: Allocate  1 Levels for Stats-Diag #   224 SIsnwAge
(PID.TID 0000.0001) SETDIAG: Allocate  1 Levels for Stats-Diag #   229 SIflx2oc
(PID.TID 0000.0001) SETDIAG: Allocate  1 Levels for Stats-Diag #   230 SIfrw2oc
(PID.TID 0000.0001) SETDIAG: Allocate  1 Levels for Stats-Diag #   231 SIsaltFx
(PID.TID 0000.0001) SETDIAG: Allocate  1 Levels for Stats-Diag #   227 SIflxAtm
(PID.TID 0000.0001) SETDIAG: Allocate  1 Levels for Stats-Diag #   228 SIfrwAtm
(PID.TID 0000.0001)   space allocated for all stats-diags:     106 levels
(PID.TID 0000.0001) DIAGSTATS_SET_POINTERS: done
(PID.TID 0000.0001) ------------------------------------------------------------
(PID.TID 0000.0001) DIAGSTATS_INI_IO: open file: dynStDiag.0000036000.txt , unit=     9
(PID.TID 0000.0001) DIAGSTATS_INI_IO: open file: surfStDiag.0000036000.txt , unit=    10
(PID.TID 0000.0001) DIAGSTATS_INI_IO: open file: instStDiag.0000036000.txt , unit=    16
(PID.TID 0000.0001) DIAGSTATS_INI_IO: open file: thSIceStDiag.0000036000.txt , unit=    17
(PID.TID 0000.0001) INI_GLOBAL_DOMAIN: Found  19 CS-corner Pts in the domain
(PID.TID 0000.0001) %MON fCori_max                    =   1.4574827780704E-04
(PID.TID 0000.0001) %MON fCori_min                    =  -1.4574827780704E-04
(PID.TID 0000.0001) %MON fCori_mean                   =   3.3881317890172E-21
(PID.TID 0000.0001) %MON fCori_sd                     =   8.4202189509968E-05
(PID.TID 0000.0001) %MON fCoriG_max                   =   1.4584247033981E-04
(PID.TID 0000.0001) %MON fCoriG_min                   =  -1.4584247033981E-04
(PID.TID 0000.0001) %MON fCoriG_mean                  =  -1.6940658945086E-20
(PID.TID 0000.0001) %MON fCoriG_sd                    =   8.4202189509968E-05
(PID.TID 0000.0001) %MON fCoriCos_max                 =   1.4580166994612E-04
(PID.TID 0000.0001) %MON fCoriCos_min                 =   5.2407700865903E-06
(PID.TID 0000.0001) %MON fCoriCos_mean                =   1.1514045869113E-04
(PID.TID 0000.0001) %MON fCoriCos_sd                  =   3.0375849106513E-05
(PID.TID 0000.0001) INI_CG2D: CG2D normalisation factor =  1.9156564154949553E-04
(PID.TID 0000.0001) INI_CG2D: cg2dTolerance = 5.809016360175296E-07 (Area=3.6388673751E+14)
(PID.TID 0000.0001) 
(PID.TID 0000.0001) // =======================================================
(PID.TID 0000.0001) // Model configuration
(PID.TID 0000.0001) // =======================================================
(PID.TID 0000.0001) //
(PID.TID 0000.0001) // "Physical" paramters ( PARM01 in namelist )
(PID.TID 0000.0001) //
(PID.TID 0000.0001) buoyancyRelation = /* Type of relation to get Buoyancy */
(PID.TID 0000.0001)               'OCEANIC'
(PID.TID 0000.0001)     ;
(PID.TID 0000.0001) fluidIsAir   =  /* fluid major constituent is Air */
(PID.TID 0000.0001)                   F
(PID.TID 0000.0001)     ;
(PID.TID 0000.0001) fluidIsWater =  /* fluid major constituent is Water */
(PID.TID 0000.0001)                   T
(PID.TID 0000.0001)     ;
(PID.TID 0000.0001) usingPCoords =  /* use p (or p*) vertical coordinate */
(PID.TID 0000.0001)                   F
(PID.TID 0000.0001)     ;
(PID.TID 0000.0001) usingZCoords =  /* use z (or z*) vertical coordinate */
(PID.TID 0000.0001)                   T
(PID.TID 0000.0001)     ;
(PID.TID 0000.0001) tRef =   /* Reference temperature profile ( oC or K ) */
(PID.TID 0000.0001)    15 @  2.000000000000000E+01              /* K =  1: 15 */
(PID.TID 0000.0001)     ;
(PID.TID 0000.0001) sRef =   /* Reference salinity profile ( psu ) */
(PID.TID 0000.0001)    15 @  3.500000000000000E+01              /* K =  1: 15 */
(PID.TID 0000.0001)     ;
(PID.TID 0000.0001) useStrainTensionVisc= /* Use StrainTension Form of Viscous Operator */
(PID.TID 0000.0001)                   F
(PID.TID 0000.0001)     ;
(PID.TID 0000.0001) useVariableVisc = /* Use variable horizontal viscosity */
(PID.TID 0000.0001)                   F
(PID.TID 0000.0001)     ;
(PID.TID 0000.0001) useHarmonicVisc = /* Use harmonic horizontal viscosity */
(PID.TID 0000.0001)                   T
(PID.TID 0000.0001)     ;
(PID.TID 0000.0001) useBiharmonicVisc= /* Use biharmonic horiz.  viscosity */
(PID.TID 0000.0001)                   F
(PID.TID 0000.0001)     ;
(PID.TID 0000.0001) useSmag3D = /* Use isotropic 3-D Smagorinsky viscosity */
(PID.TID 0000.0001)                   F
(PID.TID 0000.0001)     ;
(PID.TID 0000.0001) viscAh  =   /* Lateral harmonic viscosity ( m^2/s ) */
(PID.TID 0000.0001)                 3.000000000000000E+05
(PID.TID 0000.0001)     ;
(PID.TID 0000.0001) viscA4  =   /* Lateral biharmonic viscosity ( m^4/s ) */
(PID.TID 0000.0001)                 0.000000000000000E+00
(PID.TID 0000.0001)     ;
(PID.TID 0000.0001) no_slip_sides =  /* Viscous BCs: No-slip sides */
(PID.TID 0000.0001)                   T
(PID.TID 0000.0001)     ;
(PID.TID 0000.0001) sideDragFactor = /* side-drag scaling factor (non-dim) */
(PID.TID 0000.0001)                 2.000000000000000E+00
(PID.TID 0000.0001)     ;
(PID.TID 0000.0001) viscArNr = /* vertical profile of vertical viscosity ( m^2/s )*/
(PID.TID 0000.0001)    15 @  1.000000000000000E-03              /* K =  1: 15 */
(PID.TID 0000.0001)     ;
(PID.TID 0000.0001) no_slip_bottom =  /* Viscous BCs: No-slip bottom */
(PID.TID 0000.0001)                   T
(PID.TID 0000.0001)     ;
(PID.TID 0000.0001) bottomVisc_pCell = /* Partial-cell in bottom Visc. BC */
(PID.TID 0000.0001)                   F
(PID.TID 0000.0001)     ;
(PID.TID 0000.0001) bottomDragLinear = /* linear bottom-drag coefficient ( m/s ) */
(PID.TID 0000.0001)                 0.000000000000000E+00
(PID.TID 0000.0001)     ;
(PID.TID 0000.0001) bottomDragQuadratic = /* quadratic bottom-drag coefficient (-) */
(PID.TID 0000.0001)                 0.000000000000000E+00
(PID.TID 0000.0001)     ;
(PID.TID 0000.0001) selectBotDragQuadr = /* select quadratic bottom drag options */
(PID.TID 0000.0001)                      -1
(PID.TID 0000.0001)     ;
(PID.TID 0000.0001) diffKhT =   /* Laplacian diffusion of heat laterally ( m^2/s ) */
(PID.TID 0000.0001)                 0.000000000000000E+00
(PID.TID 0000.0001)     ;
(PID.TID 0000.0001) diffK4T =   /* Biharmonic diffusion of heat laterally ( m^4/s ) */
(PID.TID 0000.0001)                 0.000000000000000E+00
(PID.TID 0000.0001)     ;
(PID.TID 0000.0001) diffKhS =   /* Laplacian diffusion of salt laterally ( m^2/s ) */
(PID.TID 0000.0001)                 0.000000000000000E+00
(PID.TID 0000.0001)     ;
(PID.TID 0000.0001) diffK4S =   /* Biharmonic diffusion of salt laterally ( m^4/s ) */
(PID.TID 0000.0001)                 0.000000000000000E+00
(PID.TID 0000.0001)     ;
(PID.TID 0000.0001) diffKrNrT = /* vertical profile of vertical diffusion of Temp ( m^2/s )*/
(PID.TID 0000.0001)    15 @  3.000000000000000E-05              /* K =  1: 15 */
(PID.TID 0000.0001)     ;
(PID.TID 0000.0001) diffKrNrS = /* vertical profile of vertical diffusion of Salt ( m^2/s )*/
(PID.TID 0000.0001)    15 @  3.000000000000000E-05              /* K =  1: 15 */
(PID.TID 0000.0001)     ;
(PID.TID 0000.0001) diffKrBL79surf = /* Surface diffusion for Bryan and Lewis 79 ( m^2/s ) */
(PID.TID 0000.0001)                 0.000000000000000E+00
(PID.TID 0000.0001)     ;
(PID.TID 0000.0001) diffKrBL79deep = /* Deep diffusion for Bryan and Lewis 1979 ( m^2/s ) */
(PID.TID 0000.0001)                 0.000000000000000E+00
(PID.TID 0000.0001)     ;
(PID.TID 0000.0001) diffKrBL79scl = /* Depth scale for Bryan and Lewis 1979 ( m ) */
(PID.TID 0000.0001)                 2.000000000000000E+02
(PID.TID 0000.0001)     ;
(PID.TID 0000.0001) diffKrBL79Ho = /* Turning depth for Bryan and Lewis 1979 ( m ) */
(PID.TID 0000.0001)                -2.000000000000000E+03
(PID.TID 0000.0001)     ;
(PID.TID 0000.0001) ivdc_kappa = /* Implicit Vertical Diffusivity for Convection ( m^2/s) */
(PID.TID 0000.0001)                 1.000000000000000E+01
(PID.TID 0000.0001)     ;
(PID.TID 0000.0001) hMixCriteria=  /* Criteria for mixed-layer diagnostic */
(PID.TID 0000.0001)                -8.000000000000000E-01
(PID.TID 0000.0001)     ;
(PID.TID 0000.0001) dRhoSmall =  /* Parameter for mixed-layer diagnostic */
(PID.TID 0000.0001)                 1.000000000000000E-06
(PID.TID 0000.0001)     ;
(PID.TID 0000.0001) hMixSmooth=  /* Smoothing parameter for mixed-layer diagnostic */
(PID.TID 0000.0001)                 0.000000000000000E+00
(PID.TID 0000.0001)     ;
(PID.TID 0000.0001) eosType =  /* Type of Equation of State */
(PID.TID 0000.0001)               'JMD95Z'
(PID.TID 0000.0001)     ;
(PID.TID 0000.0001) selectP_inEOS_Zc = /* select pressure to use in EOS (0,1,2,3) */
(PID.TID 0000.0001)                       0
(PID.TID 0000.0001)     0= -g*rhoConst*z ; 1= pRef (from tRef,sRef); 2= Hyd P ; 3= Hyd+NH P
(PID.TID 0000.0001)     ;
(PID.TID 0000.0001) HeatCapacity_Cp =  /* Specific heat capacity ( J/kg/K ) */
(PID.TID 0000.0001)                 3.994000000000000E+03
(PID.TID 0000.0001)     ;
(PID.TID 0000.0001) celsius2K = /* 0 degree Celsius converted to Kelvin ( K ) */
(PID.TID 0000.0001)                 2.731500000000000E+02
(PID.TID 0000.0001)     ;
(PID.TID 0000.0001) rhoConst  = /* Reference density (Boussinesq)  ( kg/m^3 ) */
(PID.TID 0000.0001)                 1.035000000000000E+03
(PID.TID 0000.0001)     ;
(PID.TID 0000.0001) rhoFacC = /* normalized Reference density @ cell-Center (-) */
(PID.TID 0000.0001)    15 @  1.000000000000000E+00              /* K =  1: 15 */
(PID.TID 0000.0001)     ;
(PID.TID 0000.0001) rhoFacF = /* normalized Reference density @ W-Interface (-) */
(PID.TID 0000.0001)    16 @  1.000000000000000E+00              /* K =  1: 16 */
(PID.TID 0000.0001)     ;
(PID.TID 0000.0001) rhoConstFresh = /* Fresh-water reference density ( kg/m^3 ) */
(PID.TID 0000.0001)                 1.000000000000000E+03
(PID.TID 0000.0001)     ;
(PID.TID 0000.0001) gravity =   /* Gravitational acceleration ( m/s^2 ) */
(PID.TID 0000.0001)                 9.810000000000000E+00
(PID.TID 0000.0001)     ;
(PID.TID 0000.0001) gBaro =   /* Barotropic gravity ( m/s^2 ) */
(PID.TID 0000.0001)                 9.810000000000000E+00
(PID.TID 0000.0001)     ;
(PID.TID 0000.0001) gravFacC = /* gravity factor (vs surf.) @ cell-Center (-) */
(PID.TID 0000.0001)    15 @  1.000000000000000E+00              /* K =  1: 15 */
(PID.TID 0000.0001)     ;
(PID.TID 0000.0001) gravFacF = /* gravity factor (vs surf.) @ W-Interface (-) */
(PID.TID 0000.0001)    16 @  1.000000000000000E+00              /* K =  1: 16 */
(PID.TID 0000.0001)     ;
(PID.TID 0000.0001) rotationPeriod =   /* Rotation Period ( s ) */
(PID.TID 0000.0001)                 8.616400000000000E+04
(PID.TID 0000.0001)     ;
(PID.TID 0000.0001) omega =   /* Angular velocity ( rad/s ) */
(PID.TID 0000.0001)                 7.292123516990375E-05
(PID.TID 0000.0001)     ;
(PID.TID 0000.0001) f0 =   /* Reference coriolis parameter ( 1/s ) */
(PID.TID 0000.0001)                 1.000000000000000E-04
(PID.TID 0000.0001)     ;
(PID.TID 0000.0001) beta =   /* Beta ( 1/(m.s) ) */
(PID.TID 0000.0001)                 9.999999999999999E-12
(PID.TID 0000.0001)     ;
(PID.TID 0000.0001) fPrime =   /* Second coriolis parameter ( 1/s ) */
(PID.TID 0000.0001)                 0.000000000000000E+00
(PID.TID 0000.0001)     ;
(PID.TID 0000.0001) rigidLid =   /* Rigid lid on/off flag */
(PID.TID 0000.0001)                   F
(PID.TID 0000.0001)     ;
(PID.TID 0000.0001) implicitFreeSurface =   /* Implicit free surface on/off flag */
(PID.TID 0000.0001)                   T
(PID.TID 0000.0001)     ;
(PID.TID 0000.0001) freeSurfFac =   /* Implicit free surface factor */
(PID.TID 0000.0001)                 1.000000000000000E+00
(PID.TID 0000.0001)     ;
(PID.TID 0000.0001) implicSurfPress =  /* Surface Pressure implicit factor (0-1)*/
(PID.TID 0000.0001)                 1.000000000000000E+00
(PID.TID 0000.0001)     ;
(PID.TID 0000.0001) implicDiv2DFlow =  /* Barot. Flow Div. implicit factor (0-1)*/
(PID.TID 0000.0001)                 1.000000000000000E+00
(PID.TID 0000.0001)     ;
(PID.TID 0000.0001) uniformLin_PhiSurf = /* use uniform Bo_surf on/off flag*/
(PID.TID 0000.0001)                   T
(PID.TID 0000.0001)     ;
(PID.TID 0000.0001) uniformFreeSurfLev = /* free-surface level-index is uniform */
(PID.TID 0000.0001)                   T
(PID.TID 0000.0001)     ;
(PID.TID 0000.0001) hFacMin =   /* minimum partial cell factor (hFac) */
(PID.TID 0000.0001)                 1.000000000000000E-01
(PID.TID 0000.0001)     ;
(PID.TID 0000.0001) hFacMinDr = /* minimum partial cell thickness ( m) */
(PID.TID 0000.0001)                 2.000000000000000E+01
(PID.TID 0000.0001)     ;
(PID.TID 0000.0001) exactConserv =  /* Exact Volume Conservation on/off flag*/
(PID.TID 0000.0001)                   T
(PID.TID 0000.0001)     ;
(PID.TID 0000.0001) linFSConserveTr = /* Tracer correction for Lin Free Surface on/off flag*/
(PID.TID 0000.0001)                   F
(PID.TID 0000.0001)     ;
(PID.TID 0000.0001) nonlinFreeSurf = /* Non-linear Free Surf. options (-1,0,1,2,3)*/
(PID.TID 0000.0001)                       4
(PID.TID 0000.0001)      -1,0= Off ; 1,2,3= On, 2=+rescale gU,gV, 3=+update cg2d solv.
(PID.TID 0000.0001)     ;
(PID.TID 0000.0001) hFacInf =   /* lower threshold for hFac (nonlinFreeSurf only)*/
(PID.TID 0000.0001)                 2.000000000000000E-01
(PID.TID 0000.0001)     ;
(PID.TID 0000.0001) hFacSup =   /* upper threshold for hFac (nonlinFreeSurf only)*/
(PID.TID 0000.0001)                 2.000000000000000E+00
(PID.TID 0000.0001)     ;
(PID.TID 0000.0001) select_rStar = /* r* Vertical coord. options (=0 r coord.; >0 uses r*)*/
(PID.TID 0000.0001)                       2
(PID.TID 0000.0001)     ;
(PID.TID 0000.0001) useRealFreshWaterFlux = /* Real Fresh Water Flux on/off flag*/
(PID.TID 0000.0001)                   T
(PID.TID 0000.0001)     ;
(PID.TID 0000.0001) temp_EvPrRn = /* Temp. of Evap/Prec/R (UNSET=use local T)(oC)*/
(PID.TID 0000.0001)                 1.234567000000000E+05
(PID.TID 0000.0001)     ;
(PID.TID 0000.0001) salt_EvPrRn = /* Salin. of Evap/Prec/R (UNSET=use local S)(psu)*/
(PID.TID 0000.0001)                 0.000000000000000E+00
(PID.TID 0000.0001)     ;
(PID.TID 0000.0001) selectAddFluid = /* option for mass source/sink of fluid (=0: off) */
(PID.TID 0000.0001)                       0
(PID.TID 0000.0001)     ;
(PID.TID 0000.0001) temp_addMass = /* Temp. of addMass array (UNSET=use local T)(oC)*/
(PID.TID 0000.0001)                 1.234567000000000E+05
(PID.TID 0000.0001)     ;
(PID.TID 0000.0001) salt_addMass = /* Salin. of addMass array (UNSET=use local S)(psu)*/
(PID.TID 0000.0001)                 0.000000000000000E+00
(PID.TID 0000.0001)     ;
(PID.TID 0000.0001) use3Dsolver = /* use 3-D pressure solver on/off flag */
(PID.TID 0000.0001)                   F
(PID.TID 0000.0001)     ;
(PID.TID 0000.0001) nonHydrostatic =  /* Non-Hydrostatic on/off flag */
(PID.TID 0000.0001)                   F
(PID.TID 0000.0001)     ;
(PID.TID 0000.0001) nh_Am2 = /* Non-Hydrostatic terms scaling factor */
(PID.TID 0000.0001)                 1.000000000000000E+00
(PID.TID 0000.0001)     ;
(PID.TID 0000.0001) implicitNHPress = /* Non-Hyd Pressure implicit factor (0-1)*/
(PID.TID 0000.0001)                 1.000000000000000E+00
(PID.TID 0000.0001)     ;
(PID.TID 0000.0001) selectNHfreeSurf = /* Non-Hyd (free-)Surface option */
(PID.TID 0000.0001)                       0
(PID.TID 0000.0001)     ;
(PID.TID 0000.0001) quasiHydrostatic = /* Quasi-Hydrostatic on/off flag */
(PID.TID 0000.0001)                   F
(PID.TID 0000.0001)     ;
(PID.TID 0000.0001) calc_wVelocity = /* vertical velocity calculation on/off flag */
(PID.TID 0000.0001)                   T
(PID.TID 0000.0001)     ;
(PID.TID 0000.0001) momStepping =  /* Momentum equation on/off flag */
(PID.TID 0000.0001)                   T
(PID.TID 0000.0001)     ;
(PID.TID 0000.0001) vectorInvariantMomentum= /* Vector-Invariant Momentum on/off */
(PID.TID 0000.0001)                   T
(PID.TID 0000.0001)     ;
(PID.TID 0000.0001) momAdvection =  /* Momentum advection on/off flag */
(PID.TID 0000.0001)                   T
(PID.TID 0000.0001)     ;
(PID.TID 0000.0001) momViscosity =  /* Momentum viscosity on/off flag */
(PID.TID 0000.0001)                   T
(PID.TID 0000.0001)     ;
(PID.TID 0000.0001) momImplVertAdv= /* Momentum implicit vert. advection on/off*/
(PID.TID 0000.0001)                   F
(PID.TID 0000.0001)     ;
(PID.TID 0000.0001) implicitViscosity = /* Implicit viscosity on/off flag */
(PID.TID 0000.0001)                   T
(PID.TID 0000.0001)     ;
(PID.TID 0000.0001) selectImplicitDrag= /* Implicit bot Drag options (0,1,2)*/
(PID.TID 0000.0001)                       2
(PID.TID 0000.0001)     0= Expl. ; 1= Impl. on provis. Vel ; 2= Fully Impl (with surf.P)
(PID.TID 0000.0001)     ;
(PID.TID 0000.0001) metricTerms =  /* metric-Terms on/off flag */
(PID.TID 0000.0001)                   F
(PID.TID 0000.0001)     ;
(PID.TID 0000.0001) useNHMTerms = /* Non-Hydrostatic Metric-Terms on/off */
(PID.TID 0000.0001)                   F
(PID.TID 0000.0001)     ;
(PID.TID 0000.0001) selectCoriMap = /* Coriolis Map options (0,1,2,3)*/
(PID.TID 0000.0001)                       2
(PID.TID 0000.0001)     0= f-Plane ; 1= Beta-Plane ; 2= Spherical ; 3= read from file
(PID.TID 0000.0001)     ;
(PID.TID 0000.0001) use3dCoriolis = /* 3-D Coriolis on/off flag */
(PID.TID 0000.0001)                   F
(PID.TID 0000.0001)     ;
(PID.TID 0000.0001) useCoriolis =  /* Coriolis on/off flag */
(PID.TID 0000.0001)                   T
(PID.TID 0000.0001)     ;
(PID.TID 0000.0001) useCDscheme =  /* CD scheme on/off flag */
(PID.TID 0000.0001)                   F
(PID.TID 0000.0001)     ;
(PID.TID 0000.0001) useEnergyConservingCoriolis= /* Flx-Form Coriolis scheme flag */
(PID.TID 0000.0001)                   F
(PID.TID 0000.0001)     ;
(PID.TID 0000.0001) useJamartWetPoints= /* Coriolis WetPoints method flag */
(PID.TID 0000.0001)                   F
(PID.TID 0000.0001)     ;
(PID.TID 0000.0001) useJamartMomAdv= /* V.I Non-linear terms Jamart flag */
(PID.TID 0000.0001)                   F
(PID.TID 0000.0001)     ;
(PID.TID 0000.0001) useAbsVorticity= /* V.I Works with f+zeta in Coriolis */
(PID.TID 0000.0001)                   F
(PID.TID 0000.0001)     ;
(PID.TID 0000.0001) selectVortScheme= /* V.I Scheme selector for Vorticity-Term */
(PID.TID 0000.0001)                       1
(PID.TID 0000.0001)    = 0 : enstrophy (Shallow-Water Eq.) conserving scheme by Sadourny, JAS 75
(PID.TID 0000.0001)    = 1 : same as 0 with modified hFac
(PID.TID 0000.0001)    = 2 : energy conserving scheme (used by Sadourny in JAS 75 paper)
(PID.TID 0000.0001)    = 3 : energy (general) and enstrophy (2D, nonDiv.) conserving scheme
(PID.TID 0000.0001)          from Sadourny (Burridge & Haseler, ECMWF Rep.4, 1977)
(PID.TID 0000.0001)     ;
(PID.TID 0000.0001) upwindVorticity= /* V.I Upwind bias vorticity flag */
(PID.TID 0000.0001)                   F
(PID.TID 0000.0001)     ;
(PID.TID 0000.0001) highOrderVorticity= /* V.I High order vort. advect. flag */
(PID.TID 0000.0001)                   F
(PID.TID 0000.0001)     ;
(PID.TID 0000.0001) upwindShear= /* V.I Upwind vertical Shear advection flag */
(PID.TID 0000.0001)                   F
(PID.TID 0000.0001)     ;
(PID.TID 0000.0001) selectKEscheme= /* V.I Kinetic Energy scheme selector */
(PID.TID 0000.0001)                       0
(PID.TID 0000.0001)     ;
(PID.TID 0000.0001) momForcing =  /* Momentum forcing on/off flag */
(PID.TID 0000.0001)                   T
(PID.TID 0000.0001)     ;
(PID.TID 0000.0001) momPressureForcing =  /* Momentum pressure term on/off flag */
(PID.TID 0000.0001)                   T
(PID.TID 0000.0001)     ;
(PID.TID 0000.0001) implicitIntGravWave= /* Implicit Internal Gravity Wave flag */
(PID.TID 0000.0001)                   F
(PID.TID 0000.0001)     ;
(PID.TID 0000.0001) staggerTimeStep =    /* Stagger time stepping on/off flag */
(PID.TID 0000.0001)                   T
(PID.TID 0000.0001)     ;
(PID.TID 0000.0001) doResetHFactors = /* reset thickness factors @ each time-step */
(PID.TID 0000.0001)                   F
(PID.TID 0000.0001)     ;
(PID.TID 0000.0001) multiDimAdvection =  /* enable/disable Multi-Dim Advection */
(PID.TID 0000.0001)                   T
(PID.TID 0000.0001)     ;
(PID.TID 0000.0001) useMultiDimAdvec =   /* Multi-Dim Advection is/is-not used */
(PID.TID 0000.0001)                   F
(PID.TID 0000.0001)     ;
(PID.TID 0000.0001) implicitDiffusion = /* Implicit Diffusion on/off flag */
(PID.TID 0000.0001)                   T
(PID.TID 0000.0001)     ;
(PID.TID 0000.0001) tempStepping =  /* Temperature equation on/off flag */
(PID.TID 0000.0001)                   T
(PID.TID 0000.0001)     ;
(PID.TID 0000.0001) tempAdvection = /* Temperature advection on/off flag */
(PID.TID 0000.0001)                   T
(PID.TID 0000.0001)     ;
(PID.TID 0000.0001) tempImplVertAdv = /* Temp. implicit vert. advection on/off */
(PID.TID 0000.0001)                   F
(PID.TID 0000.0001)     ;
(PID.TID 0000.0001) tempForcing  =  /* Temperature forcing on/off flag */
(PID.TID 0000.0001)                   T
(PID.TID 0000.0001)     ;
(PID.TID 0000.0001) balanceQnet  =  /* balance net heat-flux on/off flag */
(PID.TID 0000.0001)                   F
(PID.TID 0000.0001)     ;
(PID.TID 0000.0001) doThetaClimRelax = /* apply SST relaxation on/off flag */
(PID.TID 0000.0001)                   T
(PID.TID 0000.0001)     ;
(PID.TID 0000.0001) balanceThetaClimRelax= /* balance SST relaxation on/off flag */
(PID.TID 0000.0001)                   F
(PID.TID 0000.0001)     ;
(PID.TID 0000.0001) tempIsActiveTr = /* Temp. is a dynamically Active Tracer */
(PID.TID 0000.0001)                   T
(PID.TID 0000.0001)     ;
(PID.TID 0000.0001) saltStepping =  /* Salinity equation on/off flag */
(PID.TID 0000.0001)                   T
(PID.TID 0000.0001)     ;
(PID.TID 0000.0001) saltAdvection = /* Salinity advection on/off flag */
(PID.TID 0000.0001)                   T
(PID.TID 0000.0001)     ;
(PID.TID 0000.0001) saltImplVertAdv = /* Sali. implicit vert. advection on/off */
(PID.TID 0000.0001)                   F
(PID.TID 0000.0001)     ;
(PID.TID 0000.0001) saltForcing  =  /* Salinity forcing on/off flag */
(PID.TID 0000.0001)                   T
(PID.TID 0000.0001)     ;
(PID.TID 0000.0001) balanceEmPmR =  /* balance net fresh-water flux on/off flag */
(PID.TID 0000.0001)                   F
(PID.TID 0000.0001)     ;
(PID.TID 0000.0001) doSaltClimRelax = /* apply SSS relaxation on/off flag */
(PID.TID 0000.0001)                   T
(PID.TID 0000.0001)     ;
(PID.TID 0000.0001) balanceSaltClimRelax= /* balance SSS relaxation on/off flag */
(PID.TID 0000.0001)                   F
(PID.TID 0000.0001)     ;
(PID.TID 0000.0001) saltIsActiveTr = /* Salt  is a dynamically Active Tracer */
(PID.TID 0000.0001)                   T
(PID.TID 0000.0001)     ;
(PID.TID 0000.0001)  readBinaryPrec = /* Precision used for reading binary files */
(PID.TID 0000.0001)                      64
(PID.TID 0000.0001)     ;
(PID.TID 0000.0001) writeBinaryPrec = /* Precision used for writing binary files */
(PID.TID 0000.0001)                      32
(PID.TID 0000.0001)     ;
(PID.TID 0000.0001)  globalFiles = /* write "global" (=not per tile) files */
(PID.TID 0000.0001)                   F
(PID.TID 0000.0001)     ;
(PID.TID 0000.0001)  useSingleCpuIO = /* only master MPI process does I/O */
(PID.TID 0000.0001)                   F
(PID.TID 0000.0001)     ;
(PID.TID 0000.0001)  useSingleCpuInput = /* only master process reads input */
(PID.TID 0000.0001)                   F
(PID.TID 0000.0001)     ;
(PID.TID 0000.0001) /* debLev[*]  : level of debug & auxiliary message printing */
(PID.TID 0000.0001) debLevZero =  0 ; /* level of disabled aux. msg printing */
(PID.TID 0000.0001)    debLevA =  1 ; /* level of minimum  aux. msg printing */
(PID.TID 0000.0001)    debLevB =  2 ; /* level of low aux. print (report read-file opening)*/
(PID.TID 0000.0001)    debLevC =  3 ; /* level of moderate debug prt (most pkgs debug msg) */
(PID.TID 0000.0001)    debLevD =  4 ; /* level of enhanced debug prt (add DEBUG_STATS prt) */
(PID.TID 0000.0001)    debLevE =  5 ; /* level of extensive debug printing */
(PID.TID 0000.0001) debugLevel =  /* select debug printing level */
(PID.TID 0000.0001)                       2
(PID.TID 0000.0001)     ;
(PID.TID 0000.0001) //
(PID.TID 0000.0001) // Elliptic solver(s) paramters ( PARM02 in namelist )
(PID.TID 0000.0001) //
(PID.TID 0000.0001) cg2dMaxIters =   /* Upper limit on 2d con. grad iterations  */
(PID.TID 0000.0001)                     200
(PID.TID 0000.0001)     ;
(PID.TID 0000.0001) cg2dChkResFreq =   /* 2d con. grad convergence test frequency */
(PID.TID 0000.0001)                       1
(PID.TID 0000.0001)     ;
(PID.TID 0000.0001) cg2dUseMinResSol= /* use cg2d last-iter(=0) / min-resid.(=1) solution */
(PID.TID 0000.0001)                       0
(PID.TID 0000.0001)     ;
(PID.TID 0000.0001) cg2dTargetResidual =   /* 2d con. grad target residual  */
(PID.TID 0000.0001)                 1.000000000000000E-07
(PID.TID 0000.0001)     ;
(PID.TID 0000.0001) cg2dTargetResWunit =   /* CG2d target residual [W units] */
(PID.TID 0000.0001)                 1.000000000000000E-14
(PID.TID 0000.0001)     ;
(PID.TID 0000.0001) cg2dPreCondFreq =   /* Freq. for updating cg2d preconditioner */
(PID.TID 0000.0001)                       1
(PID.TID 0000.0001)     ;
(PID.TID 0000.0001) useSRCGSolver =  /* use single reduction CG solver(s) */
(PID.TID 0000.0001)                   F
(PID.TID 0000.0001)     ;
(PID.TID 0000.0001) printResidualFreq = /* Freq. for printing CG residual */
(PID.TID 0000.0001)                       0
(PID.TID 0000.0001)     ;
(PID.TID 0000.0001) //
(PID.TID 0000.0001) // Time stepping paramters ( PARM03 in namelist )
(PID.TID 0000.0001) //
(PID.TID 0000.0001) deltaTMom =   /* Momentum equation timestep ( s ) */
(PID.TID 0000.0001)                 1.200000000000000E+03
(PID.TID 0000.0001)     ;
(PID.TID 0000.0001) deltaTFreeSurf = /* FreeSurface equation timestep ( s ) */
(PID.TID 0000.0001)                 8.640000000000000E+04
(PID.TID 0000.0001)     ;
(PID.TID 0000.0001) dTtracerLev =  /* Tracer equation timestep ( s ) */
(PID.TID 0000.0001)    15 @  8.640000000000000E+04              /* K =  1: 15 */
(PID.TID 0000.0001)     ;
(PID.TID 0000.0001) deltaTClock  =   /* Model clock timestep ( s ) */
(PID.TID 0000.0001)                 8.640000000000000E+04
(PID.TID 0000.0001)     ;
(PID.TID 0000.0001) cAdjFreq =   /* Convective adjustment interval ( s ) */
(PID.TID 0000.0001)                 0.000000000000000E+00
(PID.TID 0000.0001)     ;
(PID.TID 0000.0001) momForcingOutAB = /* =1: take Momentum Forcing out of Adams-Bash. stepping */
(PID.TID 0000.0001)                       0
(PID.TID 0000.0001)     ;
(PID.TID 0000.0001) tracForcingOutAB = /* =1: take T,S,pTr Forcing out of Adams-Bash. stepping */
(PID.TID 0000.0001)                       1
(PID.TID 0000.0001)     ;
(PID.TID 0000.0001) momDissip_In_AB = /* put Dissipation Tendency in Adams-Bash. stepping */
(PID.TID 0000.0001)                   T
(PID.TID 0000.0001)     ;
(PID.TID 0000.0001) doAB_onGtGs = /* apply AB on Tendencies (rather than on T,S)*/
(PID.TID 0000.0001)                   T
(PID.TID 0000.0001)     ;
(PID.TID 0000.0001) abEps =   /* Adams-Bashforth-2 stabilizing weight */
(PID.TID 0000.0001)                 1.000000000000000E-01
(PID.TID 0000.0001)     ;
(PID.TID 0000.0001) applyExchUV_early = /* Apply EXCH to U,V earlier in time-step */
(PID.TID 0000.0001)                   F
(PID.TID 0000.0001)     ;
(PID.TID 0000.0001) pickupStrictlyMatch= /* stop if pickup do not strictly match */
(PID.TID 0000.0001)                   T
(PID.TID 0000.0001)     ;
(PID.TID 0000.0001) nIter0   =   /* Run starting timestep number */
(PID.TID 0000.0001)                   36000
(PID.TID 0000.0001)     ;
(PID.TID 0000.0001) nTimeSteps = /* Number of timesteps */
(PID.TID 0000.0001)                      20
(PID.TID 0000.0001)     ;
(PID.TID 0000.0001) nEndIter =   /* Run ending timestep number */
(PID.TID 0000.0001)                   36020
(PID.TID 0000.0001)     ;
(PID.TID 0000.0001) baseTime =   /* Model base time ( s ) */
(PID.TID 0000.0001)                 0.000000000000000E+00
(PID.TID 0000.0001)     ;
(PID.TID 0000.0001) startTime =  /* Run start time ( s ) */
(PID.TID 0000.0001)                 3.110400000000000E+09
(PID.TID 0000.0001)     ;
(PID.TID 0000.0001) endTime  =   /* Integration ending time ( s ) */
(PID.TID 0000.0001)                 3.112128000000000E+09
(PID.TID 0000.0001)     ;
(PID.TID 0000.0001) pChkPtFreq = /* Permanent restart/pickup file interval ( s ) */
(PID.TID 0000.0001)                 3.110400000000000E+07
(PID.TID 0000.0001)     ;
(PID.TID 0000.0001) chkPtFreq  = /* Rolling restart/pickup file interval ( s ) */
(PID.TID 0000.0001)                 0.000000000000000E+00
(PID.TID 0000.0001)     ;
(PID.TID 0000.0001) pickup_write_mdsio =   /* Model IO flag. */
(PID.TID 0000.0001)                   T
(PID.TID 0000.0001)     ;
(PID.TID 0000.0001) pickup_read_mdsio =   /* Model IO flag. */
(PID.TID 0000.0001)                   T
(PID.TID 0000.0001)     ;
(PID.TID 0000.0001) pickup_write_mnc =   /* Model IO flag. */
(PID.TID 0000.0001)                   F
(PID.TID 0000.0001)     ;
(PID.TID 0000.0001) pickup_read_mnc =   /* Model IO flag. */
(PID.TID 0000.0001)                   F
(PID.TID 0000.0001)     ;
(PID.TID 0000.0001) pickup_write_immed =   /* Model IO flag. */
(PID.TID 0000.0001)                   F
(PID.TID 0000.0001)     ;
(PID.TID 0000.0001) writePickupAtEnd =   /* Model IO flag. */
(PID.TID 0000.0001)                   T
(PID.TID 0000.0001)     ;
(PID.TID 0000.0001) dumpFreq =   /* Model state write out interval ( s ). */
(PID.TID 0000.0001)                 3.110400000000000E+07
(PID.TID 0000.0001)     ;
(PID.TID 0000.0001) dumpInitAndLast= /* write out Initial & Last iter. model state */
(PID.TID 0000.0001)                   T
(PID.TID 0000.0001)     ;
(PID.TID 0000.0001) snapshot_mdsio =   /* Model IO flag. */
(PID.TID 0000.0001)                   T
(PID.TID 0000.0001)     ;
(PID.TID 0000.0001) snapshot_mnc =   /* Model IO flag. */
(PID.TID 0000.0001)                   F
(PID.TID 0000.0001)     ;
(PID.TID 0000.0001) monitorFreq =   /* Monitor output interval ( s ). */
(PID.TID 0000.0001)                 1.000000000000000E+00
(PID.TID 0000.0001)     ;
(PID.TID 0000.0001) monitorSelect = /* select group of variables to monitor */
(PID.TID 0000.0001)                       3
(PID.TID 0000.0001)     ;
(PID.TID 0000.0001) monitor_stdio =   /* Model IO flag. */
(PID.TID 0000.0001)                   T
(PID.TID 0000.0001)     ;
(PID.TID 0000.0001) monitor_mnc =   /* Model IO flag. */
(PID.TID 0000.0001)                   F
(PID.TID 0000.0001)     ;
(PID.TID 0000.0001) externForcingPeriod =   /* forcing period (s) */
(PID.TID 0000.0001)                 2.592000000000000E+06
(PID.TID 0000.0001)     ;
(PID.TID 0000.0001) externForcingCycle =   /* period of the cyle (s). */
(PID.TID 0000.0001)                 3.110400000000000E+07
(PID.TID 0000.0001)     ;
(PID.TID 0000.0001) tauThetaClimRelax =   /* relaxation time scale (s) */
(PID.TID 0000.0001)                 5.184000000000000E+06
(PID.TID 0000.0001)     ;
(PID.TID 0000.0001) tauSaltClimRelax =   /* relaxation time scale (s) */
(PID.TID 0000.0001)                 1.555200000000000E+07
(PID.TID 0000.0001)     ;
(PID.TID 0000.0001) latBandClimRelax =   /* max. Lat. where relaxation */
(PID.TID 0000.0001)                 5.000000000000000E+01
(PID.TID 0000.0001)     ;
(PID.TID 0000.0001) //
(PID.TID 0000.0001) // Gridding paramters ( PARM04 in namelist )
(PID.TID 0000.0001) //
(PID.TID 0000.0001) usingCartesianGrid = /* Cartesian coordinates flag ( True/False ) */
(PID.TID 0000.0001)                   F
(PID.TID 0000.0001)     ;
(PID.TID 0000.0001) usingCylindricalGrid = /* Cylindrical coordinates flag ( True/False ) */
(PID.TID 0000.0001)                   F
(PID.TID 0000.0001)     ;
(PID.TID 0000.0001) usingSphericalPolarGrid = /* Spherical coordinates flag ( True/False ) */
(PID.TID 0000.0001)                   F
(PID.TID 0000.0001)     ;
(PID.TID 0000.0001) usingCurvilinearGrid = /* Curvilinear coordinates flag ( True/False ) */
(PID.TID 0000.0001)                   T
(PID.TID 0000.0001)     ;
(PID.TID 0000.0001) selectSigmaCoord = /* Hybrid-Sigma Vert. Coordinate option */
(PID.TID 0000.0001)                       0
(PID.TID 0000.0001)     ;
(PID.TID 0000.0001) rSigmaBnd = /* r/sigma transition ( units of r ==  m ) */
(PID.TID 0000.0001)                 1.234567000000000E+05
(PID.TID 0000.0001)     ;
(PID.TID 0000.0001) rkSign =   /* index orientation relative to vertical coordinate */
(PID.TID 0000.0001)                -1.000000000000000E+00
(PID.TID 0000.0001)     ;
(PID.TID 0000.0001) gravitySign = /* gravity orientation relative to vertical coordinate */
(PID.TID 0000.0001)                -1.000000000000000E+00
(PID.TID 0000.0001)     ;
(PID.TID 0000.0001) seaLev_Z =  /* reference height of sea-level [m] */
(PID.TID 0000.0001)                 0.000000000000000E+00
(PID.TID 0000.0001)     ;
(PID.TID 0000.0001) top_Pres =  /* reference pressure at the top [Pa] */
(PID.TID 0000.0001)                 0.000000000000000E+00
(PID.TID 0000.0001)     ;
(PID.TID 0000.0001) mass2rUnit = /* convert mass per unit area [kg/m2] to r-units [m] */
(PID.TID 0000.0001)                 9.661835748792270E-04
(PID.TID 0000.0001)     ;
(PID.TID 0000.0001) rUnit2mass = /* convert r-units [m] to mass per unit area [kg/m2] */
(PID.TID 0000.0001)                 1.035000000000000E+03
(PID.TID 0000.0001)     ;
(PID.TID 0000.0001) drC =   /* C spacing ( units of r ) */
(PID.TID 0000.0001)                 2.500000000000000E+01,      /* K =  1 */
(PID.TID 0000.0001)                 6.000000000000000E+01,      /* K =  2 */
(PID.TID 0000.0001)                 8.500000000000000E+01,      /* K =  3 */
(PID.TID 0000.0001)                 1.200000000000000E+02,      /* K =  4 */
(PID.TID 0000.0001)                 1.650000000000000E+02,      /* K =  5 */
(PID.TID 0000.0001)                 2.150000000000000E+02,      /* K =  6 */
(PID.TID 0000.0001)                 2.650000000000000E+02,      /* K =  7 */
(PID.TID 0000.0001)                 3.150000000000000E+02,      /* K =  8 */
(PID.TID 0000.0001)                 3.650000000000000E+02,      /* K =  9 */
(PID.TID 0000.0001)                 4.150000000000000E+02,      /* K = 10 */
(PID.TID 0000.0001)                 4.650000000000000E+02,      /* K = 11 */
(PID.TID 0000.0001)                 5.150000000000000E+02,      /* K = 12 */
(PID.TID 0000.0001)                 5.650000000000000E+02,      /* K = 13 */
(PID.TID 0000.0001)                 6.150000000000000E+02,      /* K = 14 */
(PID.TID 0000.0001)                 6.650000000000000E+02,      /* K = 15 */
(PID.TID 0000.0001)                 3.450000000000000E+02       /* K = 16 */
(PID.TID 0000.0001)     ;
(PID.TID 0000.0001) drF =   /* W spacing ( units of r ) */
(PID.TID 0000.0001)                 5.000000000000000E+01,      /* K =  1 */
(PID.TID 0000.0001)                 7.000000000000000E+01,      /* K =  2 */
(PID.TID 0000.0001)                 1.000000000000000E+02,      /* K =  3 */
(PID.TID 0000.0001)                 1.400000000000000E+02,      /* K =  4 */
(PID.TID 0000.0001)                 1.900000000000000E+02,      /* K =  5 */
(PID.TID 0000.0001)                 2.400000000000000E+02,      /* K =  6 */
(PID.TID 0000.0001)                 2.900000000000000E+02,      /* K =  7 */
(PID.TID 0000.0001)                 3.400000000000000E+02,      /* K =  8 */
(PID.TID 0000.0001)                 3.900000000000000E+02,      /* K =  9 */
(PID.TID 0000.0001)                 4.400000000000000E+02,      /* K = 10 */
(PID.TID 0000.0001)                 4.900000000000000E+02,      /* K = 11 */
(PID.TID 0000.0001)                 5.400000000000000E+02,      /* K = 12 */
(PID.TID 0000.0001)                 5.900000000000000E+02,      /* K = 13 */
(PID.TID 0000.0001)                 6.400000000000000E+02,      /* K = 14 */
(PID.TID 0000.0001)                 6.900000000000000E+02       /* K = 15 */
(PID.TID 0000.0001)     ;
(PID.TID 0000.0001) radius_fromHorizGrid = /* sphere Radius of input horiz. grid */
(PID.TID 0000.0001)                 6.370000000000000E+06
(PID.TID 0000.0001)     ;
(PID.TID 0000.0001) rSphere =  /* Radius ( ignored - cartesian, m - spherical ) */
(PID.TID 0000.0001)                 6.370000000000000E+06
(PID.TID 0000.0001)     ;
(PID.TID 0000.0001) deepAtmosphere = /* Deep/Shallow Atmosphere flag (True/False) */
(PID.TID 0000.0001)                   F
(PID.TID 0000.0001)     ;
(PID.TID 0000.0001) xC =  /* xC(:,1,:,1) : P-point X coord ( deg. or m if cartesian) */
(PID.TID 0000.0001)                -4.439521994760536E+01,      /* I =  1 */
(PID.TID 0000.0001)                -4.295641272275883E+01,      /* I =  2 */
(PID.TID 0000.0001)                -4.122055553388957E+01,      /* I =  3 */
(PID.TID 0000.0001)      . . .
(PID.TID 0000.0001)                 1.312205555338896E+02,      /* I = 94 */
(PID.TID 0000.0001)                 1.329564127227588E+02,      /* I = 95 */
(PID.TID 0000.0001)                 1.343952199476053E+02,      /* I = 96 */
(PID.TID 0000.0001)                 4.635509675007168E+01,      /* I = 97 */
(PID.TID 0000.0001)                 4.906731228843647E+01,      /* I = 98 */
(PID.TID 0000.0001)                 5.178550688214704E+01,      /* I = 99 */
(PID.TID 0000.0001)      . . .
(PID.TID 0000.0001)                -1.778001716525716E+02,      /* I =190 */
(PID.TID 0000.0001)                -1.779288225675308E+02,      /* I =191 */
(PID.TID 0000.0001)                -1.780367200854751E+02,      /* I =192 */
(PID.TID 0000.0001)                 1.356047800523947E+02,      /* I =193 */
(PID.TID 0000.0001)                 1.358367907661329E+02,      /* I =194 */
(PID.TID 0000.0001)                 1.359720382181193E+02,      /* I =195 */
(PID.TID 0000.0001)      . . .
(PID.TID 0000.0001)                -1.340279617818807E+02,      /* I =286 */
(PID.TID 0000.0001)                -1.341632092338671E+02,      /* I =287 */
(PID.TID 0000.0001)                -1.343952199476053E+02,      /* I =288 */
(PID.TID 0000.0001)                -8.812739148696656E+01,      /* I =289 */
(PID.TID 0000.0001)                -8.820362659721324E+01,      /* I =290 */
(PID.TID 0000.0001)                -8.826768106944316E+01,      /* I =291 */
(PID.TID 0000.0001)      . . .
(PID.TID 0000.0001)                 8.780017165257156E+01,      /* I =382 */
(PID.TID 0000.0001)                 8.792882256753080E+01,      /* I =383 */
(PID.TID 0000.0001)                 8.803672008547504E+01       /* I =384 */
(PID.TID 0000.0001)     ;
(PID.TID 0000.0001) yC =  /* yC(1,:,1,:) : P-point Y coord ( deg. or m if cartesian) */
(PID.TID 0000.0001)                -3.497677942598243E+01,      /* J =  1 */
(PID.TID 0000.0001)                -3.374005967394886E+01,      /* J =  2 */
(PID.TID 0000.0001)                -3.220655175667454E+01,      /* J =  3 */
(PID.TID 0000.0001)                -3.045756348838641E+01,      /* J =  4 */
(PID.TID 0000.0001)                -2.853728129852918E+01,      /* J =  5 */
(PID.TID 0000.0001)                -2.647426640173173E+01,      /* J =  6 */
(PID.TID 0000.0001)                -2.428936657094636E+01,      /* J =  7 */
(PID.TID 0000.0001)                -2.199915808312262E+01,      /* J =  8 */
(PID.TID 0000.0001)                -1.961768597440146E+01,      /* J =  9 */
(PID.TID 0000.0001)                -1.715743888281371E+01,      /* J = 10 */
(PID.TID 0000.0001)                -1.462993396899330E+01,      /* J = 11 */
(PID.TID 0000.0001)                -1.204608340464756E+01,      /* J = 12 */
(PID.TID 0000.0001)                -9.416429130284818E+00,      /* J = 13 */
(PID.TID 0000.0001)                -6.751293662992216E+00,      /* J = 14 */
(PID.TID 0000.0001)                -4.060875511835959E+00,      /* J = 15 */
(PID.TID 0000.0001)                -1.355307764409121E+00       /* J = 16 */
(PID.TID 0000.0001)     ;
(PID.TID 0000.0001) rcoord = /* P-point R coordinate (  units of r ) */
(PID.TID 0000.0001)                -2.500000000000000E+01,      /* K =  1 */
(PID.TID 0000.0001)                -8.500000000000000E+01,      /* K =  2 */
(PID.TID 0000.0001)                -1.700000000000000E+02,      /* K =  3 */
(PID.TID 0000.0001)                -2.900000000000000E+02,      /* K =  4 */
(PID.TID 0000.0001)                -4.550000000000000E+02,      /* K =  5 */
(PID.TID 0000.0001)                -6.700000000000000E+02,      /* K =  6 */
(PID.TID 0000.0001)                -9.350000000000000E+02,      /* K =  7 */
(PID.TID 0000.0001)                -1.250000000000000E+03,      /* K =  8 */
(PID.TID 0000.0001)                -1.615000000000000E+03,      /* K =  9 */
(PID.TID 0000.0001)                -2.030000000000000E+03,      /* K = 10 */
(PID.TID 0000.0001)                -2.495000000000000E+03,      /* K = 11 */
(PID.TID 0000.0001)                -3.010000000000000E+03,      /* K = 12 */
(PID.TID 0000.0001)                -3.575000000000000E+03,      /* K = 13 */
(PID.TID 0000.0001)                -4.190000000000000E+03,      /* K = 14 */
(PID.TID 0000.0001)                -4.855000000000000E+03       /* K = 15 */
(PID.TID 0000.0001)     ;
(PID.TID 0000.0001) rF =   /* W-Interf. R coordinate (  units of r ) */
(PID.TID 0000.0001)                 0.000000000000000E+00,      /* K =  1 */
(PID.TID 0000.0001)                -5.000000000000000E+01,      /* K =  2 */
(PID.TID 0000.0001)                -1.200000000000000E+02,      /* K =  3 */
(PID.TID 0000.0001)                -2.200000000000000E+02,      /* K =  4 */
(PID.TID 0000.0001)                -3.600000000000000E+02,      /* K =  5 */
(PID.TID 0000.0001)                -5.500000000000000E+02,      /* K =  6 */
(PID.TID 0000.0001)                -7.900000000000000E+02,      /* K =  7 */
(PID.TID 0000.0001)                -1.080000000000000E+03,      /* K =  8 */
(PID.TID 0000.0001)                -1.420000000000000E+03,      /* K =  9 */
(PID.TID 0000.0001)                -1.810000000000000E+03,      /* K = 10 */
(PID.TID 0000.0001)                -2.250000000000000E+03,      /* K = 11 */
(PID.TID 0000.0001)                -2.740000000000000E+03,      /* K = 12 */
(PID.TID 0000.0001)                -3.280000000000000E+03,      /* K = 13 */
(PID.TID 0000.0001)                -3.870000000000000E+03,      /* K = 14 */
(PID.TID 0000.0001)                -4.510000000000000E+03,      /* K = 15 */
(PID.TID 0000.0001)                -5.200000000000000E+03       /* K = 16 */
(PID.TID 0000.0001)     ;
(PID.TID 0000.0001) deepFacC = /* deep-model grid factor @ cell-Center (-) */
(PID.TID 0000.0001)    15 @  1.000000000000000E+00              /* K =  1: 15 */
(PID.TID 0000.0001)     ;
(PID.TID 0000.0001) deepFacF = /* deep-model grid factor @ W-Interface (-) */
(PID.TID 0000.0001)    16 @  1.000000000000000E+00              /* K =  1: 16 */
(PID.TID 0000.0001)     ;
(PID.TID 0000.0001) rVel2wUnit = /* convert units: rVel -> wSpeed (=1 if z-coord)*/
(PID.TID 0000.0001)    16 @  1.000000000000000E+00              /* K =  1: 16 */
(PID.TID 0000.0001)     ;
(PID.TID 0000.0001) wUnit2rVel = /* convert units: wSpeed -> rVel (=1 if z-coord)*/
(PID.TID 0000.0001)    16 @  1.000000000000000E+00              /* K =  1: 16 */
(PID.TID 0000.0001)     ;
(PID.TID 0000.0001) dBdrRef = /* Vertical grad. of reference buoyancy [(m/s/r)^2] */
(PID.TID 0000.0001)    15 @  0.000000000000000E+00              /* K =  1: 15 */
(PID.TID 0000.0001)     ;
(PID.TID 0000.0001) rotateGrid = /* use rotated grid ( True/False ) */
(PID.TID 0000.0001)                   F
(PID.TID 0000.0001)     ;
(PID.TID 0000.0001) phiEuler = /* Euler angle, rotation about original z-coordinate [rad] */
(PID.TID 0000.0001)                 0.000000000000000E+00
(PID.TID 0000.0001)     ;
(PID.TID 0000.0001) thetaEuler = /* Euler angle, rotation about new x-coordinate [rad] */
(PID.TID 0000.0001)                 0.000000000000000E+00
(PID.TID 0000.0001)     ;
(PID.TID 0000.0001) psiEuler = /* Euler angle, rotation about new z-coordinate [rad] */
(PID.TID 0000.0001)                 0.000000000000000E+00
(PID.TID 0000.0001)     ;
(PID.TID 0000.0001) dxF =  /* dxF(:,1,:,1) ( units: m ) */
(PID.TID 0000.0001)                 1.202082051331828E+05,      /* I =  1 */
(PID.TID 0000.0001)                 1.563594089971120E+05,      /* I =  2 */
(PID.TID 0000.0001)                 1.835530058121492E+05,      /* I =  3 */
(PID.TID 0000.0001)      . . .
(PID.TID 0000.0001)                 1.835530058121492E+05,      /* I = 94 */
(PID.TID 0000.0001)                 1.563594089971120E+05,      /* I = 95 */
(PID.TID 0000.0001)                 1.202082051331828E+05,      /* I = 96 */
(PID.TID 0000.0001)                 3.012844832048790E+05,      /* I = 97 */
(PID.TID 0000.0001)                 3.017314519159184E+05,      /* I = 98 */
(PID.TID 0000.0001)                 3.026061571839506E+05,      /* I = 99 */
(PID.TID 0000.0001)      . . .
(PID.TID 0000.0001)                 3.026061571839506E+05,      /* I =190 */
(PID.TID 0000.0001)                 3.017314519159184E+05,      /* I =191 */
(PID.TID 0000.0001)                 3.012844832048790E+05,      /* I =192 */
(PID.TID 0000.0001)                 1.202082051331828E+05,      /* I =193 */
(PID.TID 0000.0001)                 1.563594089971120E+05,      /* I =194 */
(PID.TID 0000.0001)                 1.835530058121492E+05,      /* I =195 */
(PID.TID 0000.0001)      . . .
(PID.TID 0000.0001)                 1.835530058121492E+05,      /* I =286 */
(PID.TID 0000.0001)                 1.563594089971120E+05,      /* I =287 */
(PID.TID 0000.0001)                 1.202082051331828E+05,      /* I =288 */
(PID.TID 0000.0001)                 3.012844832048790E+05,      /* I =289 */
(PID.TID 0000.0001)                 3.017314519159184E+05,      /* I =290 */
(PID.TID 0000.0001)                 3.026061571839506E+05,      /* I =291 */
(PID.TID 0000.0001)      . . .
(PID.TID 0000.0001)                 3.026061571839506E+05,      /* I =382 */
(PID.TID 0000.0001)                 3.017314519159184E+05,      /* I =383 */
(PID.TID 0000.0001)                 3.012844832048790E+05       /* I =384 */
(PID.TID 0000.0001)     ;
(PID.TID 0000.0001) dxF =  /* dxF(1,:,1,:) ( units: m ) */
(PID.TID 0000.0001)                 1.202082051331828E+05,      /* J =  1 */
(PID.TID 0000.0001)                 1.572908084538706E+05,      /* J =  2 */
(PID.TID 0000.0001)                 1.840412227747703E+05,      /* J =  3 */
(PID.TID 0000.0001)                 2.048868197919576E+05,      /* J =  4 */
(PID.TID 0000.0001)                 2.220405216043041E+05,      /* J =  5 */
(PID.TID 0000.0001)                 2.365892017348392E+05,      /* J =  6 */
(PID.TID 0000.0001)                 2.491250781852558E+05,      /* J =  7 */
(PID.TID 0000.0001)                 2.599949918261881E+05,      /* J =  8 */
(PID.TID 0000.0001)                 2.694110134598581E+05,      /* J =  9 */
(PID.TID 0000.0001)                 2.775055554645015E+05,      /* J = 10 */
(PID.TID 0000.0001)                 2.843615645344775E+05,      /* J = 11 */
(PID.TID 0000.0001)                 2.900303768613599E+05,      /* J = 12 */
(PID.TID 0000.0001)                 2.945429307892709E+05,      /* J = 13 */
(PID.TID 0000.0001)                 2.979171143158405E+05,      /* J = 14 */
(PID.TID 0000.0001)                 3.001626787528886E+05,      /* J = 15 */
(PID.TID 0000.0001)                 3.012844832048790E+05       /* J = 16 */
(PID.TID 0000.0001)     ;
(PID.TID 0000.0001) dyF =  /* dyF(:,1,:,1) ( units: m ) */
(PID.TID 0000.0001)                 1.202082051331828E+05,      /* I =  1 */
(PID.TID 0000.0001)                 1.572908084538706E+05,      /* I =  2 */
(PID.TID 0000.0001)                 1.840412227747703E+05,      /* I =  3 */
(PID.TID 0000.0001)      . . .
(PID.TID 0000.0001)                 1.840412227747703E+05,      /* I = 94 */
(PID.TID 0000.0001)                 1.572908084538706E+05,      /* I = 95 */
(PID.TID 0000.0001)                 1.202082051331828E+05,      /* I = 96 */
(PID.TID 0000.0001)                 3.012190981969055E+05,      /* I = 97 */
(PID.TID 0000.0001)                 3.016675528553907E+05,      /* I = 98 */
(PID.TID 0000.0001)                 3.025451404065074E+05,      /* I = 99 */
(PID.TID 0000.0001)      . . .
(PID.TID 0000.0001)                 3.025451404065074E+05,      /* I =190 */
(PID.TID 0000.0001)                 3.016675528553907E+05,      /* I =191 */
(PID.TID 0000.0001)                 3.012190981969055E+05,      /* I =192 */
(PID.TID 0000.0001)                 1.202082051331828E+05,      /* I =193 */
(PID.TID 0000.0001)                 1.572908084538706E+05,      /* I =194 */
(PID.TID 0000.0001)                 1.840412227747703E+05,      /* I =195 */
(PID.TID 0000.0001)      . . .
(PID.TID 0000.0001)                 1.840412227747703E+05,      /* I =286 */
(PID.TID 0000.0001)                 1.572908084538706E+05,      /* I =287 */
(PID.TID 0000.0001)                 1.202082051331828E+05,      /* I =288 */
(PID.TID 0000.0001)                 3.012190981969055E+05,      /* I =289 */
(PID.TID 0000.0001)                 3.016675528553907E+05,      /* I =290 */
(PID.TID 0000.0001)                 3.025451404065074E+05,      /* I =291 */
(PID.TID 0000.0001)      . . .
(PID.TID 0000.0001)                 3.025451404065074E+05,      /* I =382 */
(PID.TID 0000.0001)                 3.016675528553907E+05,      /* I =383 */
(PID.TID 0000.0001)                 3.012190981969055E+05       /* I =384 */
(PID.TID 0000.0001)     ;
(PID.TID 0000.0001) dyF =  /* dyF(1,:,1,:) ( units: m ) */
(PID.TID 0000.0001)                 1.202082051331828E+05,      /* J =  1 */
(PID.TID 0000.0001)                 1.563594089971120E+05,      /* J =  2 */
(PID.TID 0000.0001)                 1.835530058121492E+05,      /* J =  3 */
(PID.TID 0000.0001)                 2.045883481718707E+05,      /* J =  4 */
(PID.TID 0000.0001)                 2.218350349844185E+05,      /* J =  5 */
(PID.TID 0000.0001)                 2.364352994647058E+05,      /* J =  6 */
(PID.TID 0000.0001)                 2.490022710862746E+05,      /* J =  7 */
(PID.TID 0000.0001)                 2.598919724358304E+05,      /* J =  8 */
(PID.TID 0000.0001)                 2.693210245495156E+05,      /* J =  9 */
(PID.TID 0000.0001)                 2.774243179696503E+05,      /* J = 10 */
(PID.TID 0000.0001)                 2.842862532064524E+05,      /* J = 11 */
(PID.TID 0000.0001)                 2.899590699694043E+05,      /* J = 12 */
(PID.TID 0000.0001)                 2.944742915095688E+05,      /* J = 13 */
(PID.TID 0000.0001)                 2.978501920522794E+05,      /* J = 14 */
(PID.TID 0000.0001)                 3.000967749619962E+05,      /* J = 15 */
(PID.TID 0000.0001)                 3.012190981969055E+05       /* J = 16 */
(PID.TID 0000.0001)     ;
(PID.TID 0000.0001) dxG =  /* dxG(:,1,:,1) ( units: m ) */
(PID.TID 0000.0001)                 1.009837800879055E+05,      /* I =  1 */
(PID.TID 0000.0001)                 1.534505834330338E+05,      /* I =  2 */
(PID.TID 0000.0001)                 1.823321598773926E+05,      /* I =  3 */
(PID.TID 0000.0001)      . . .
(PID.TID 0000.0001)                 1.823321598773926E+05,      /* I = 94 */
(PID.TID 0000.0001)                 1.534505834330338E+05,      /* I = 95 */
(PID.TID 0000.0001)                 1.009837800879055E+05,      /* I = 96 */
(PID.TID 0000.0001)                 3.014246674484008E+05,      /* I = 97 */
(PID.TID 0000.0001)                 3.018694497480782E+05,      /* I = 98 */
(PID.TID 0000.0001)                 3.027399364062562E+05,      /* I = 99 */
(PID.TID 0000.0001)      . . .
(PID.TID 0000.0001)                 3.027399364062562E+05,      /* I =190 */
(PID.TID 0000.0001)                 3.018694497480782E+05,      /* I =191 */
(PID.TID 0000.0001)                 3.014246674484008E+05,      /* I =192 */
(PID.TID 0000.0001)                 1.009837800879055E+05,      /* I =193 */
(PID.TID 0000.0001)                 1.534505834330338E+05,      /* I =194 */
(PID.TID 0000.0001)                 1.823321598773926E+05,      /* I =195 */
(PID.TID 0000.0001)      . . .
(PID.TID 0000.0001)                 1.823321598773926E+05,      /* I =286 */
(PID.TID 0000.0001)                 1.534505834330338E+05,      /* I =287 */
(PID.TID 0000.0001)                 1.009837800879055E+05,      /* I =288 */
(PID.TID 0000.0001)                 3.014246674484008E+05,      /* I =289 */
(PID.TID 0000.0001)                 3.018694497480782E+05,      /* I =290 */
(PID.TID 0000.0001)                 3.027399364062562E+05,      /* I =291 */
(PID.TID 0000.0001)      . . .
(PID.TID 0000.0001)                 3.027399364062562E+05,      /* I =382 */
(PID.TID 0000.0001)                 3.018694497480782E+05,      /* I =383 */
(PID.TID 0000.0001)                 3.014246674484008E+05       /* I =384 */
(PID.TID 0000.0001)     ;
(PID.TID 0000.0001) dxG =  /* dxG(1,:,1,:) ( units: m ) */
(PID.TID 0000.0001)                 1.009837800879055E+05,      /* J =  1 */
(PID.TID 0000.0001)                 1.403701524205398E+05,      /* J =  2 */
(PID.TID 0000.0001)                 1.716197227386011E+05,      /* J =  3 */
(PID.TID 0000.0001)                 1.950254041626018E+05,      /* J =  4 */
(PID.TID 0000.0001)                 2.138410773065497E+05,      /* J =  5 */
(PID.TID 0000.0001)                 2.295958105911512E+05,      /* J =  6 */
(PID.TID 0000.0001)                 2.430829951739083E+05,      /* J =  7 */
(PID.TID 0000.0001)                 2.547526806712889E+05,      /* J =  8 */
(PID.TID 0000.0001)                 2.648750305193301E+05,      /* J =  9 */
(PID.TID 0000.0001)                 2.736173771018112E+05,      /* J = 10 */
(PID.TID 0000.0001)                 2.810845823202647E+05,      /* J = 11 */
(PID.TID 0000.0001)                 2.873420591008078E+05,      /* J = 12 */
(PID.TID 0000.0001)                 2.924298293668651E+05,      /* J = 13 */
(PID.TID 0000.0001)                 2.963715635865306E+05,      /* J = 14 */
(PID.TID 0000.0001)                 2.991805843171258E+05,      /* J = 15 */
(PID.TID 0000.0001)                 3.008638765647886E+05       /* J = 16 */
(PID.TID 0000.0001)     ;
(PID.TID 0000.0001) dyG =  /* dyG(:,1,:,1) ( units: m ) */
(PID.TID 0000.0001)                 1.009837800879055E+05,      /* I =  1 */
(PID.TID 0000.0001)                 1.403701524205398E+05,      /* I =  2 */
(PID.TID 0000.0001)                 1.716197227386011E+05,      /* I =  3 */
(PID.TID 0000.0001)      . . .
(PID.TID 0000.0001)                 1.950254041626018E+05,      /* I = 94 */
(PID.TID 0000.0001)                 1.716197227386011E+05,      /* I = 95 */
(PID.TID 0000.0001)                 1.403701524205398E+05,      /* I = 96 */
(PID.TID 0000.0001)                 3.011625828699101E+05,      /* I = 97 */
(PID.TID 0000.0001)                 3.013880313304323E+05,      /* I = 98 */
(PID.TID 0000.0001)                 3.020546438966793E+05,      /* I = 99 */
(PID.TID 0000.0001)      . . .
(PID.TID 0000.0001)                 3.031337933484788E+05,      /* I =190 */
(PID.TID 0000.0001)                 3.020546438966793E+05,      /* I =191 */
(PID.TID 0000.0001)                 3.013880313304323E+05,      /* I =192 */
(PID.TID 0000.0001)                 1.009837800879055E+05,      /* I =193 */
(PID.TID 0000.0001)                 1.403701524205398E+05,      /* I =194 */
(PID.TID 0000.0001)                 1.716197227386011E+05,      /* I =195 */
(PID.TID 0000.0001)      . . .
(PID.TID 0000.0001)                 1.950254041626018E+05,      /* I =286 */
(PID.TID 0000.0001)                 1.716197227386011E+05,      /* I =287 */
(PID.TID 0000.0001)                 1.403701524205398E+05,      /* I =288 */
(PID.TID 0000.0001)                 3.011625828699101E+05,      /* I =289 */
(PID.TID 0000.0001)                 3.013880313304323E+05,      /* I =290 */
(PID.TID 0000.0001)                 3.020546438966793E+05,      /* I =291 */
(PID.TID 0000.0001)      . . .
(PID.TID 0000.0001)                 3.031337933484788E+05,      /* I =382 */
(PID.TID 0000.0001)                 3.020546438966793E+05,      /* I =383 */
(PID.TID 0000.0001)                 3.013880313304323E+05       /* I =384 */
(PID.TID 0000.0001)     ;
(PID.TID 0000.0001) dyG =  /* dyG(1,:,1,:) ( units: m ) */
(PID.TID 0000.0001)                 1.009837800879055E+05,      /* J =  1 */
(PID.TID 0000.0001)                 1.534505834330338E+05,      /* J =  2 */
(PID.TID 0000.0001)                 1.823321598773926E+05,      /* J =  3 */
(PID.TID 0000.0001)                 2.038999045536999E+05,      /* J =  4 */
(PID.TID 0000.0001)                 2.213884732245467E+05,      /* J =  5 */
(PID.TID 0000.0001)                 2.361211699596122E+05,      /* J =  6 */
(PID.TID 0000.0001)                 2.487693460283865E+05,      /* J =  7 */
(PID.TID 0000.0001)                 2.597126963772147E+05,      /* J =  8 */
(PID.TID 0000.0001)                 2.691790288994575E+05,      /* J =  9 */
(PID.TID 0000.0001)                 2.773091043277394E+05,      /* J = 10 */
(PID.TID 0000.0001)                 2.841906470085516E+05,      /* J = 11 */
(PID.TID 0000.0001)                 2.898778860929753E+05,      /* J = 12 */
(PID.TID 0000.0001)                 2.944035815526416E+05,      /* J = 13 */
(PID.TID 0000.0001)                 2.977867909042096E+05,      /* J = 14 */
(PID.TID 0000.0001)                 3.000380090330854E+05,      /* J = 15 */
(PID.TID 0000.0001)                 3.011625828699101E+05       /* J = 16 */
(PID.TID 0000.0001)     ;
(PID.TID 0000.0001) dxC =  /* dxC(:,1,:,1) ( units: m ) */
(PID.TID 0000.0001)                 1.114203141013064E+05,      /* I =  1 */
(PID.TID 0000.0001)                 1.391343389937106E+05,      /* I =  2 */
(PID.TID 0000.0001)                 1.709574999026266E+05,      /* I =  3 */
(PID.TID 0000.0001)      . . .
(PID.TID 0000.0001)                 1.946503699269892E+05,      /* I = 94 */
(PID.TID 0000.0001)                 1.709574999026266E+05,      /* I = 95 */
(PID.TID 0000.0001)                 1.391343389937106E+05,      /* I = 96 */
(PID.TID 0000.0001)                 3.012281885409289E+05,      /* I = 97 */
(PID.TID 0000.0001)                 3.014528555318499E+05,      /* I = 98 */
(PID.TID 0000.0001)                 3.021172674809921E+05,      /* I = 99 */
(PID.TID 0000.0001)      . . .
(PID.TID 0000.0001)                 3.031928954490276E+05,      /* I =190 */
(PID.TID 0000.0001)                 3.021172674809921E+05,      /* I =191 */
(PID.TID 0000.0001)                 3.014528555318499E+05,      /* I =192 */
(PID.TID 0000.0001)                 1.114203141013064E+05,      /* I =193 */
(PID.TID 0000.0001)                 1.391343389937106E+05,      /* I =194 */
(PID.TID 0000.0001)                 1.709574999026266E+05,      /* I =195 */
(PID.TID 0000.0001)      . . .
(PID.TID 0000.0001)                 1.946503699269892E+05,      /* I =286 */
(PID.TID 0000.0001)                 1.709574999026266E+05,      /* I =287 */
(PID.TID 0000.0001)                 1.391343389937106E+05,      /* I =288 */
(PID.TID 0000.0001)                 3.012281885409289E+05,      /* I =289 */
(PID.TID 0000.0001)                 3.014528555318499E+05,      /* I =290 */
(PID.TID 0000.0001)                 3.021172674809921E+05,      /* I =291 */
(PID.TID 0000.0001)      . . .
(PID.TID 0000.0001)                 3.031928954490276E+05,      /* I =382 */
(PID.TID 0000.0001)                 3.021172674809921E+05,      /* I =383 */
(PID.TID 0000.0001)                 3.014528555318499E+05       /* I =384 */
(PID.TID 0000.0001)     ;
(PID.TID 0000.0001) dxC =  /* dxC(1,:,1,:) ( units: m ) */
(PID.TID 0000.0001)                 1.114203141013064E+05,      /* J =  1 */
(PID.TID 0000.0001)                 1.549545757850771E+05,      /* J =  2 */
(PID.TID 0000.0001)                 1.829777599966776E+05,      /* J =  3 */
(PID.TID 0000.0001)                 2.042717761866506E+05,      /* J =  4 */
(PID.TID 0000.0001)                 2.216367828252819E+05,      /* J =  5 */
(PID.TID 0000.0001)                 2.363029564123586E+05,      /* J =  6 */
(PID.TID 0000.0001)                 2.489113743322025E+05,      /* J =  7 */
(PID.TID 0000.0001)                 2.598293319150326E+05,      /* J =  8 */
(PID.TID 0000.0001)                 2.692787333338535E+05,      /* J =  9 */
(PID.TID 0000.0001)                 2.773972106720365E+05,      /* J = 10 */
(PID.TID 0000.0001)                 2.842706922224557E+05,      /* J = 11 */
(PID.TID 0000.0001)                 2.899523122489403E+05,      /* J = 12 */
(PID.TID 0000.0001)                 2.944741346384699E+05,      /* J = 13 */
(PID.TID 0000.0001)                 2.978547649292580E+05,      /* J = 14 */
(PID.TID 0000.0001)                 3.001044073506459E+05,      /* J = 15 */
(PID.TID 0000.0001)                 3.012281885409289E+05       /* J = 16 */
(PID.TID 0000.0001)     ;
(PID.TID 0000.0001) dyC =  /* dyC(:,1,:,1) ( units: m ) */
(PID.TID 0000.0001)                 1.114203141013064E+05,      /* I =  1 */
(PID.TID 0000.0001)                 1.549545757850771E+05,      /* I =  2 */
(PID.TID 0000.0001)                 1.829777599966776E+05,      /* I =  3 */
(PID.TID 0000.0001)      . . .
(PID.TID 0000.0001)                 1.829777599966776E+05,      /* I = 94 */
(PID.TID 0000.0001)                 1.549545757850771E+05,      /* I = 95 */
(PID.TID 0000.0001)                 1.114203141013064E+05,      /* I = 96 */
(PID.TID 0000.0001)                 3.013593857228136E+05,      /* I = 97 */
(PID.TID 0000.0001)                 3.018056440786431E+05,      /* I = 98 */
(PID.TID 0000.0001)                 3.026789946729719E+05,      /* I = 99 */
(PID.TID 0000.0001)      . . .
(PID.TID 0000.0001)                 3.026789946729719E+05,      /* I =190 */
(PID.TID 0000.0001)                 3.018056440786431E+05,      /* I =191 */
(PID.TID 0000.0001)                 3.013593857228136E+05,      /* I =192 */
(PID.TID 0000.0001)                 1.114203141013064E+05,      /* I =193 */
(PID.TID 0000.0001)                 1.549545757850771E+05,      /* I =194 */
(PID.TID 0000.0001)                 1.829777599966776E+05,      /* I =195 */
(PID.TID 0000.0001)      . . .
(PID.TID 0000.0001)                 1.829777599966776E+05,      /* I =286 */
(PID.TID 0000.0001)                 1.549545757850771E+05,      /* I =287 */
(PID.TID 0000.0001)                 1.114203141013064E+05,      /* I =288 */
(PID.TID 0000.0001)                 3.013593857228136E+05,      /* I =289 */
(PID.TID 0000.0001)                 3.018056440786431E+05,      /* I =290 */
(PID.TID 0000.0001)                 3.026789946729719E+05,      /* I =291 */
(PID.TID 0000.0001)      . . .
(PID.TID 0000.0001)                 3.026789946729719E+05,      /* I =382 */
(PID.TID 0000.0001)                 3.018056440786431E+05,      /* I =383 */
(PID.TID 0000.0001)                 3.013593857228136E+05       /* I =384 */
(PID.TID 0000.0001)     ;
(PID.TID 0000.0001) dyC =  /* dyC(1,:,1,:) ( units: m ) */
(PID.TID 0000.0001)                 1.114203141013064E+05,      /* J =  1 */
(PID.TID 0000.0001)                 1.391343389937106E+05,      /* J =  2 */
(PID.TID 0000.0001)                 1.709574999026266E+05,      /* J =  3 */
(PID.TID 0000.0001)                 1.946503699269892E+05,      /* J =  4 */
(PID.TID 0000.0001)                 2.135964483342134E+05,      /* J =  5 */
(PID.TID 0000.0001)                 2.294195678257306E+05,      /* J =  6 */
(PID.TID 0000.0001)                 2.429464709770498E+05,      /* J =  7 */
(PID.TID 0000.0001)                 2.546408290696998E+05,      /* J =  8 */
(PID.TID 0000.0001)                 2.647791839299727E+05,      /* J =  9 */
(PID.TID 0000.0001)                 2.735321911346108E+05,      /* J = 10 */
(PID.TID 0000.0001)                 2.810065951609633E+05,      /* J = 11 */
(PID.TID 0000.0001)                 2.872689479506990E+05,      /* J = 12 */
(PID.TID 0000.0001)                 2.923599955312932E+05,      /* J = 13 */
(PID.TID 0000.0001)                 2.963038832565530E+05,      /* J = 14 */
(PID.TID 0000.0001)                 2.991142470004740E+05,      /* J = 15 */
(PID.TID 0000.0001)                 3.007982711627968E+05       /* J = 16 */
(PID.TID 0000.0001)     ;
(PID.TID 0000.0001) dxV =  /* dxV(:,1,:,1) ( units: m ) */
(PID.TID 0000.0001)                 8.015229982413632E+04,      /* I =  1 */
(PID.TID 0000.0001)                 1.333130744933864E+05,      /* I =  2 */
(PID.TID 0000.0001)                 1.691744868129062E+05,      /* I =  3 */
(PID.TID 0000.0001)      . . .
(PID.TID 0000.0001)                 1.937548202849060E+05,      /* I = 94 */
(PID.TID 0000.0001)                 1.691744868129062E+05,      /* I = 95 */
(PID.TID 0000.0001)                 1.333130744933864E+05,      /* I = 96 */
(PID.TID 0000.0001)                 3.013686170436881E+05,      /* I = 97 */
(PID.TID 0000.0001)                 3.015922136961168E+05,      /* I = 98 */
(PID.TID 0000.0001)                 3.022533948177109E+05,      /* I = 99 */
(PID.TID 0000.0001)      . . .
(PID.TID 0000.0001)                 3.033238888442880E+05,      /* I =190 */
(PID.TID 0000.0001)                 3.022533948177109E+05,      /* I =191 */
(PID.TID 0000.0001)                 3.015922136961168E+05,      /* I =192 */
(PID.TID 0000.0001)                 8.015229982413632E+04,      /* I =193 */
(PID.TID 0000.0001)                 1.333130744933864E+05,      /* I =194 */
(PID.TID 0000.0001)                 1.691744868129062E+05,      /* I =195 */
(PID.TID 0000.0001)      . . .
(PID.TID 0000.0001)                 1.937548202849060E+05,      /* I =286 */
(PID.TID 0000.0001)                 1.691744868129062E+05,      /* I =287 */
(PID.TID 0000.0001)                 1.333130744933864E+05,      /* I =288 */
(PID.TID 0000.0001)                 3.013686170436881E+05,      /* I =289 */
(PID.TID 0000.0001)                 3.015922136961168E+05,      /* I =290 */
(PID.TID 0000.0001)                 3.022533948177109E+05,      /* I =291 */
(PID.TID 0000.0001)      . . .
(PID.TID 0000.0001)                 3.033238888442880E+05,      /* I =382 */
(PID.TID 0000.0001)                 3.022533948177109E+05,      /* I =383 */
(PID.TID 0000.0001)                 3.015922136961168E+05       /* I =384 */
(PID.TID 0000.0001)     ;
(PID.TID 0000.0001) dxV =  /* dxV(1,:,1,:) ( units: m ) */
(PID.TID 0000.0001)                 8.015229982413632E+04,      /* J =  1 */
(PID.TID 0000.0001)                 1.362652340208229E+05,      /* J =  2 */
(PID.TID 0000.0001)                 1.701080315742101E+05,      /* J =  3 */
(PID.TID 0000.0001)                 1.942331448101592E+05,      /* J =  4 */
(PID.TID 0000.0001)                 2.133486626971531E+05,      /* J =  5 */
(PID.TID 0000.0001)                 2.292584591272880E+05,      /* J =  6 */
(PID.TID 0000.0001)                 2.428369969078989E+05,      /* J =  7 */
(PID.TID 0000.0001)                 2.545652950875683E+05,      /* J =  8 */
(PID.TID 0000.0001)                 2.647274964828301E+05,      /* J =  9 */
(PID.TID 0000.0001)                 2.734980225206389E+05,      /* J = 10 */
(PID.TID 0000.0001)                 2.809856491525217E+05,      /* J = 11 */
(PID.TID 0000.0001)                 2.872580915202295E+05,      /* J = 12 */
(PID.TID 0000.0001)                 2.923567890694162E+05,      /* J = 13 */
(PID.TID 0000.0001)                 2.963063101754721E+05,      /* J = 14 */
(PID.TID 0000.0001)                 2.991205495886625E+05,      /* J = 15 */
(PID.TID 0000.0001)                 3.008068453676764E+05       /* J = 16 */
(PID.TID 0000.0001)     ;
(PID.TID 0000.0001) dyU =  /* dyU(:,1,:,1) ( units: m ) */
(PID.TID 0000.0001)                 8.015229982413632E+04,      /* I =  1 */
(PID.TID 0000.0001)                 1.362652340208229E+05,      /* I =  2 */
(PID.TID 0000.0001)                 1.701080315742101E+05,      /* I =  3 */
(PID.TID 0000.0001)      . . .
(PID.TID 0000.0001)                 1.942331448101592E+05,      /* I = 94 */
(PID.TID 0000.0001)                 1.701080315742101E+05,      /* I = 95 */
(PID.TID 0000.0001)                 1.362652340208229E+05,      /* I = 96 */
(PID.TID 0000.0001)                 3.013031486919771E+05,      /* I = 97 */
(PID.TID 0000.0001)                 3.015274890091515E+05,      /* I = 98 */
(PID.TID 0000.0001)                 3.021908563699420E+05,      /* I = 99 */
(PID.TID 0000.0001)      . . .
(PID.TID 0000.0001)                 3.032648502024415E+05,      /* I =190 */
(PID.TID 0000.0001)                 3.021908563699420E+05,      /* I =191 */
(PID.TID 0000.0001)                 3.015274890091515E+05,      /* I =192 */
(PID.TID 0000.0001)                 8.015229982413632E+04,      /* I =193 */
(PID.TID 0000.0001)                 1.362652340208229E+05,      /* I =194 */
(PID.TID 0000.0001)                 1.701080315742101E+05,      /* I =195 */
(PID.TID 0000.0001)      . . .
(PID.TID 0000.0001)                 1.942331448101592E+05,      /* I =286 */
(PID.TID 0000.0001)                 1.701080315742101E+05,      /* I =287 */
(PID.TID 0000.0001)                 1.362652340208229E+05,      /* I =288 */
(PID.TID 0000.0001)                 3.013031486919771E+05,      /* I =289 */
(PID.TID 0000.0001)                 3.015274890091515E+05,      /* I =290 */
(PID.TID 0000.0001)                 3.021908563699420E+05,      /* I =291 */
(PID.TID 0000.0001)      . . .
(PID.TID 0000.0001)                 3.032648502024415E+05,      /* I =382 */
(PID.TID 0000.0001)                 3.021908563699420E+05,      /* I =383 */
(PID.TID 0000.0001)                 3.015274890091515E+05       /* I =384 */
(PID.TID 0000.0001)     ;
(PID.TID 0000.0001) dyU =  /* dyU(1,:,1,:) ( units: m ) */
(PID.TID 0000.0001)                 8.015229982413632E+04,      /* J =  1 */
(PID.TID 0000.0001)                 1.333130744933864E+05,      /* J =  2 */
(PID.TID 0000.0001)                 1.691744868129062E+05,      /* J =  3 */
(PID.TID 0000.0001)                 1.937548202849060E+05,      /* J =  4 */
(PID.TID 0000.0001)                 2.130490056267208E+05,      /* J =  5 */
(PID.TID 0000.0001)                 2.290479919481738E+05,      /* J =  6 */
(PID.TID 0000.0001)                 2.426774358027003E+05,      /* J =  7 */
(PID.TID 0000.0001)                 2.544372984215561E+05,      /* J =  8 */
(PID.TID 0000.0001)                 2.646201463834826E+05,      /* J =  9 */
(PID.TID 0000.0001)                 2.734046499619031E+05,      /* J = 10 */
(PID.TID 0000.0001)                 2.809019351693761E+05,      /* J = 11 */
(PID.TID 0000.0001)                 2.871811105274442E+05,      /* J = 12 */
(PID.TID 0000.0001)                 2.922844849381675E+05,      /* J = 13 */
(PID.TID 0000.0001)                 2.962371870847826E+05,      /* J = 14 */
(PID.TID 0000.0001)                 2.990534755671296E+05,      /* J = 15 */
(PID.TID 0000.0001)                 3.007409169495504E+05       /* J = 16 */
(PID.TID 0000.0001)     ;
(PID.TID 0000.0001) rA  =  /* rA (:,1,:,1) ( units: m^2 ) */
(PID.TID 0000.0001)                 1.401900702255611E+10,      /* I =  1 */
(PID.TID 0000.0001)                 2.459906945574446E+10,      /* I =  2 */
(PID.TID 0000.0001)                 3.378518544307869E+10,      /* I =  3 */
(PID.TID 0000.0001)      . . .
(PID.TID 0000.0001)                 3.378518544304265E+10,      /* I = 94 */
(PID.TID 0000.0001)                 2.459906945574446E+10,      /* I = 95 */
(PID.TID 0000.0001)                 1.401900702259215E+10,      /* I = 96 */
(PID.TID 0000.0001)                 9.076111290422060E+10,      /* I = 97 */
(PID.TID 0000.0001)                 9.103111035233499E+10,      /* I = 98 */
(PID.TID 0000.0001)                 9.156064070993231E+10,      /* I = 99 */
(PID.TID 0000.0001)      . . .
(PID.TID 0000.0001)                 9.156064070993231E+10,      /* I =190 */
(PID.TID 0000.0001)                 9.103111035233499E+10,      /* I =191 */
(PID.TID 0000.0001)                 9.076111290418457E+10,      /* I =192 */
(PID.TID 0000.0001)                 1.401900702255611E+10,      /* I =193 */
(PID.TID 0000.0001)                 2.459906945574446E+10,      /* I =194 */
(PID.TID 0000.0001)                 3.378518544307869E+10,      /* I =195 */
(PID.TID 0000.0001)      . . .
(PID.TID 0000.0001)                 3.378518544304265E+10,      /* I =286 */
(PID.TID 0000.0001)                 2.459906945574446E+10,      /* I =287 */
(PID.TID 0000.0001)                 1.401900702259215E+10,      /* I =288 */
(PID.TID 0000.0001)                 9.076111290422060E+10,      /* I =289 */
(PID.TID 0000.0001)                 9.103111035233499E+10,      /* I =290 */
(PID.TID 0000.0001)                 9.156064070993231E+10,      /* I =291 */
(PID.TID 0000.0001)      . . .
(PID.TID 0000.0001)                 9.156064070993231E+10,      /* I =382 */
(PID.TID 0000.0001)                 9.103111035233499E+10,      /* I =383 */
(PID.TID 0000.0001)                 9.076111290418457E+10       /* I =384 */
(PID.TID 0000.0001)     ;
(PID.TID 0000.0001) rA  =  /* rA (1,:,1,:) ( units: m^2 ) */
(PID.TID 0000.0001)                 1.401900702255611E+10,      /* J =  1 */
(PID.TID 0000.0001)                 2.459906945574446E+10,      /* J =  2 */
(PID.TID 0000.0001)                 3.378518544307869E+10,      /* J =  3 */
(PID.TID 0000.0001)                 4.192037169898667E+10,      /* J =  4 */
(PID.TID 0000.0001)                 4.925938996118163E+10,      /* J =  5 */
(PID.TID 0000.0001)                 5.594154126607553E+10,      /* J =  6 */
(PID.TID 0000.0001)                 6.203683527776127E+10,      /* J =  7 */
(PID.TID 0000.0001)                 6.757541173817516E+10,      /* J =  8 */
(PID.TID 0000.0001)                 7.256353271748119E+10,      /* J =  9 */
(PID.TID 0000.0001)                 7.699293007098555E+10,      /* J = 10 */
(PID.TID 0000.0001)                 8.084683449728902E+10,      /* J = 11 */
(PID.TID 0000.0001)                 8.410423102799828E+10,      /* J = 12 */
(PID.TID 0000.0001)                 8.674306976737517E+10,      /* J = 13 */
(PID.TID 0000.0001)                 8.874277443041928E+10,      /* J = 14 */
(PID.TID 0000.0001)                 9.008620045350865E+10,      /* J = 15 */
(PID.TID 0000.0001)                 9.076111290418457E+10       /* J = 16 */
(PID.TID 0000.0001)     ;
(PID.TID 0000.0001) rAw =  /* rAw(:,1,:,1) ( units: m^2 ) */
(PID.TID 0000.0001)                 1.216690346714270E+10,      /* I =  1 */
(PID.TID 0000.0001)                 1.974052138506315E+10,      /* I =  2 */
(PID.TID 0000.0001)                 2.943712825252015E+10,      /* I =  3 */
(PID.TID 0000.0001)      . . .
(PID.TID 0000.0001)                 3.801790263325260E+10,      /* I = 94 */
(PID.TID 0000.0001)                 2.943712825251114E+10,      /* I = 95 */
(PID.TID 0000.0001)                 1.974052138509018E+10,      /* I = 96 */
(PID.TID 0000.0001)                 9.071447638299399E+10,      /* I = 97 */
(PID.TID 0000.0001)                 9.085012105610597E+10,      /* I = 98 */
(PID.TID 0000.0001)                 9.125179254955583E+10,      /* I = 99 */
(PID.TID 0000.0001)      . . .
(PID.TID 0000.0001)                 9.190392048045309E+10,      /* I =190 */
(PID.TID 0000.0001)                 9.125179254954683E+10,      /* I =191 */
(PID.TID 0000.0001)                 9.085012105606993E+10,      /* I =192 */
(PID.TID 0000.0001)                 1.216690346714270E+10,      /* I =193 */
(PID.TID 0000.0001)                 1.974052138506315E+10,      /* I =194 */
(PID.TID 0000.0001)                 2.943712825252015E+10,      /* I =195 */
(PID.TID 0000.0001)      . . .
(PID.TID 0000.0001)                 3.801790263325260E+10,      /* I =286 */
(PID.TID 0000.0001)                 2.943712825251114E+10,      /* I =287 */
(PID.TID 0000.0001)                 1.974052138509018E+10,      /* I =288 */
(PID.TID 0000.0001)                 9.071447638299399E+10,      /* I =289 */
(PID.TID 0000.0001)                 9.085012105610597E+10,      /* I =290 */
(PID.TID 0000.0001)                 9.125179254955583E+10,      /* I =291 */
(PID.TID 0000.0001)      . . .
(PID.TID 0000.0001)                 9.190392048045309E+10,      /* I =382 */
(PID.TID 0000.0001)                 9.125179254954683E+10,      /* I =383 */
(PID.TID 0000.0001)                 9.085012105606993E+10       /* I =384 */
(PID.TID 0000.0001)     ;
(PID.TID 0000.0001) rAw =  /* rAw(1,:,1,:) ( units: m^2 ) */
(PID.TID 0000.0001)                 1.216690346714270E+10,      /* J =  1 */
(PID.TID 0000.0001)                 2.390126200743558E+10,      /* J =  2 */
(PID.TID 0000.0001)                 3.341968103208270E+10,      /* J =  3 */
(PID.TID 0000.0001)                 4.168532893152940E+10,      /* J =  4 */
(PID.TID 0000.0001)                 4.909074590409593E+10,      /* J =  5 */
(PID.TID 0000.0001)                 5.581203765722643E+10,      /* J =  6 */
(PID.TID 0000.0001)                 6.193257577506788E+10,      /* J =  7 */
(PID.TID 0000.0001)                 6.748840226738273E+10,      /* J =  8 */
(PID.TID 0000.0001)                 7.248875782324815E+10,      /* J =  9 */
(PID.TID 0000.0001)                 7.692702995909871E+10,      /* J = 10 */
(PID.TID 0000.0001)                 8.078743937057304E+10,      /* J = 11 */
(PID.TID 0000.0001)                 8.404959656062837E+10,      /* J = 12 */
(PID.TID 0000.0001)                 8.669186205742538E+10,      /* J = 13 */
(PID.TID 0000.0001)                 8.869393350723613E+10,      /* J = 14 */
(PID.TID 0000.0001)                 9.003884657168852E+10,      /* J = 15 */
(PID.TID 0000.0001)                 9.071447638299399E+10       /* J = 16 */
(PID.TID 0000.0001)     ;
(PID.TID 0000.0001) rAs =  /* rAs(:,1,:,1) ( units: m^2 ) */
(PID.TID 0000.0001)                 1.216690346714270E+10,      /* I =  1 */
(PID.TID 0000.0001)                 2.390126200743558E+10,      /* I =  2 */
(PID.TID 0000.0001)                 3.341968103208270E+10,      /* I =  3 */
(PID.TID 0000.0001)      . . .
(PID.TID 0000.0001)                 3.341968103208270E+10,      /* I = 94 */
(PID.TID 0000.0001)                 2.390126200743558E+10,      /* I = 95 */
(PID.TID 0000.0001)                 1.216690346714270E+10,      /* I = 96 */
(PID.TID 0000.0001)                 9.083293515008307E+10,      /* I = 97 */
(PID.TID 0000.0001)                 9.110170898494536E+10,      /* I = 98 */
(PID.TID 0000.0001)                 9.162886297688426E+10,      /* I = 99 */
(PID.TID 0000.0001)      . . .
(PID.TID 0000.0001)                 9.162886297688426E+10,      /* I =190 */
(PID.TID 0000.0001)                 9.110170898494536E+10,      /* I =191 */
(PID.TID 0000.0001)                 9.083293515008307E+10,      /* I =192 */
(PID.TID 0000.0001)                 1.216690346714270E+10,      /* I =193 */
(PID.TID 0000.0001)                 2.390126200743558E+10,      /* I =194 */
(PID.TID 0000.0001)                 3.341968103208270E+10,      /* I =195 */
(PID.TID 0000.0001)      . . .
(PID.TID 0000.0001)                 3.341968103208270E+10,      /* I =286 */
(PID.TID 0000.0001)                 2.390126200743558E+10,      /* I =287 */
(PID.TID 0000.0001)                 1.216690346714270E+10,      /* I =288 */
(PID.TID 0000.0001)                 9.083293515008307E+10,      /* I =289 */
(PID.TID 0000.0001)                 9.110170898494536E+10,      /* I =290 */
(PID.TID 0000.0001)                 9.162886297688426E+10,      /* I =291 */
(PID.TID 0000.0001)      . . .
(PID.TID 0000.0001)                 9.162886297688426E+10,      /* I =382 */
(PID.TID 0000.0001)                 9.110170898494536E+10,      /* I =383 */
(PID.TID 0000.0001)                 9.083293515008307E+10       /* I =384 */
(PID.TID 0000.0001)     ;
(PID.TID 0000.0001) rAs =  /* rAs(1,:,1,:) ( units: m^2 ) */
(PID.TID 0000.0001)                 1.216690346714270E+10,      /* J =  1 */
(PID.TID 0000.0001)                 1.974052138506315E+10,      /* J =  2 */
(PID.TID 0000.0001)                 2.943712825252015E+10,      /* J =  3 */
(PID.TID 0000.0001)                 3.801790263324359E+10,      /* J =  4 */
(PID.TID 0000.0001)                 4.571243814189866E+10,      /* J =  5 */
(PID.TID 0000.0001)                 5.269930713599979E+10,      /* J =  6 */
(PID.TID 0000.0001)                 5.907428494299063E+10,      /* J =  7 */
(PID.TID 0000.0001)                 6.488320895111514E+10,      /* J =  8 */
(PID.TID 0000.0001)                 7.014205907741882E+10,      /* J =  9 */
(PID.TID 0000.0001)                 7.484854821847499E+10,      /* J = 10 */
(PID.TID 0000.0001)                 7.898934631431560E+10,      /* J = 11 */
(PID.TID 0000.0001)                 8.254500894894537E+10,      /* J = 12 */
(PID.TID 0000.0001)                 8.549360686473492E+10,      /* J = 13 */
(PID.TID 0000.0001)                 8.781353403175085E+10,      /* J = 14 */
(PID.TID 0000.0001)                 8.948571540392021E+10,      /* J = 15 */
(PID.TID 0000.0001)                 9.049530583086168E+10       /* J = 16 */
(PID.TID 0000.0001)     ;
(PID.TID 0000.0001) globalArea = /* Integrated horizontal Area (m^2) */
(PID.TID 0000.0001)                 3.638867375081599E+14
(PID.TID 0000.0001)     ;
(PID.TID 0000.0001) hasWetCSCorners = /* Domain contains CS corners (True/False) */
(PID.TID 0000.0001)                   T
(PID.TID 0000.0001)     ;
(PID.TID 0000.0001) // =======================================================
(PID.TID 0000.0001) // End of Model config. summary
(PID.TID 0000.0001) // =======================================================
(PID.TID 0000.0001) 
(PID.TID 0000.0001) == Packages configuration : Check & print summary ==
(PID.TID 0000.0001) 
(PID.TID 0000.0001) GMREDI_CHECK: #define GMREDI
(PID.TID 0000.0001) GM_AdvForm =     /* if FALSE => use SkewFlux Form */
(PID.TID 0000.0001)                   F
(PID.TID 0000.0001)     ;
(PID.TID 0000.0001) GM_InMomAsStress = /* if TRUE => apply as Eddy Stress */
(PID.TID 0000.0001)                   F
(PID.TID 0000.0001)     ;
(PID.TID 0000.0001) GM_AdvSeparate = /* Calc Bolus & Euler Adv. separately */
(PID.TID 0000.0001)                   F
(PID.TID 0000.0001)     ;
(PID.TID 0000.0001) GM_ExtraDiag =   /* Tensor Extra Diag (line 1&2) non 0 */
(PID.TID 0000.0001)                   F
(PID.TID 0000.0001)     ;
(PID.TID 0000.0001) GM_isopycK =    /* Background Isopyc. Diffusivity [m^2/s] */
(PID.TID 0000.0001)                 8.000000000000000E+02
(PID.TID 0000.0001)     ;
(PID.TID 0000.0001) GM_skewflx*K =  /* Background GM_SkewFlx Diffusivity [m^2/s] */
(PID.TID 0000.0001)                 8.000000000000000E+02
(PID.TID 0000.0001)     ;
(PID.TID 0000.0001) GM_advec*K =    /* Backg. GM-Advec(=Bolus) Diffusivity [m^2/s]*/
(PID.TID 0000.0001)                 0.000000000000000E+00
(PID.TID 0000.0001)     ;
(PID.TID 0000.0001) GM_Kmin_horiz = /* Minimum Horizontal Diffusivity [m^2/s] */
(PID.TID 0000.0001)                 5.000000000000000E+01
(PID.TID 0000.0001)     ;
(PID.TID 0000.0001) GM_Visbeck_alpha = /* Visbeck alpha coeff. [-] */
(PID.TID 0000.0001)                 0.000000000000000E+00
(PID.TID 0000.0001)     ;
(PID.TID 0000.0001) GM_Small_Number =  /* epsilon used in slope calc */
(PID.TID 0000.0001)                 9.999999999999999E-21
(PID.TID 0000.0001)     ;
(PID.TID 0000.0001) GM_slopeSqCutoff = /* Slope^2 cut-off value */
(PID.TID 0000.0001)                 1.000000000000000E+48
(PID.TID 0000.0001)     ;
(PID.TID 0000.0001) GM_taper_scheme =  /* Type of Tapering/Clipping scheme */
(PID.TID 0000.0001)               'gkw91                                   '
(PID.TID 0000.0001)     ;
(PID.TID 0000.0001) GM_maxSlope =  /* Maximum Slope (Tapering/Clipping) */
(PID.TID 0000.0001)                 1.000000000000000E-02
(PID.TID 0000.0001)     ;
(PID.TID 0000.0001) GM_facTrL2dz = /* Minimum Trans.Layer Thick. (factor of dz) */
(PID.TID 0000.0001)                 1.000000000000000E+00
(PID.TID 0000.0001)     ;
(PID.TID 0000.0001) GM_facTrL2ML = /* Max.Trans.Layer Thick. (factor of MxL Depth)*/
(PID.TID 0000.0001)                 5.000000000000000E+00
(PID.TID 0000.0001)     ;
(PID.TID 0000.0001) GM_maxTransLay = /* Maximum Transition Layer Thickness [m] */
(PID.TID 0000.0001)                 5.000000000000000E+02
(PID.TID 0000.0001)     ;
(PID.TID 0000.0001) GM_UseBVP = /* if TRUE => use bvp a la Ferrari et al. (2010) */
(PID.TID 0000.0001)                   F
(PID.TID 0000.0001)     ;
(PID.TID 0000.0001) GM_BVP_ModeNumber = /* Vertical mode number for BVP wave speed */
(PID.TID 0000.0001)                       1
(PID.TID 0000.0001)     ;
(PID.TID 0000.0001) GM_BVP_cMin = /* Minimum wave speed for BVP [m/s] */
(PID.TID 0000.0001)                 1.000000000000000E-01
(PID.TID 0000.0001)     ;
(PID.TID 0000.0001) GM_useSubMeso = /* if TRUE => use Sub-Meso param. (B.Fox-Kemper) */
(PID.TID 0000.0001)                   F
(PID.TID 0000.0001)     ;
(PID.TID 0000.0001) subMeso_Ceff = /* efficiency coeff. of Mixed-Layer Eddies [-] */
(PID.TID 0000.0001)                 7.000000000000001E-02
(PID.TID 0000.0001)     ;
(PID.TID 0000.0001) subMeso_invTau = /* inverse of Sub-Meso mixing time-scale [/s] */
(PID.TID 0000.0001)                 2.000000000000000E-06
(PID.TID 0000.0001)     ;
(PID.TID 0000.0001) subMeso_LfMin = /* minimum length-scale "Lf" [m] */
(PID.TID 0000.0001)                 1.000000000000000E+03
(PID.TID 0000.0001)     ;
(PID.TID 0000.0001) subMeso_Lmax = /* maximum grid-scale length [m] */
(PID.TID 0000.0001)                 1.100000000000000E+05
(PID.TID 0000.0001)     ;
(PID.TID 0000.0001) THSICE_CHECK: #define THSICE
(PID.TID 0000.0001) GAD_CHECK: #define ALLOW_GENERIC_ADVDIFF
(PID.TID 0000.0001) // =======================================================
(PID.TID 0000.0001) // Check Model config. (CONFIG_CHECK):
(PID.TID 0000.0001) // CONFIG_CHECK : Normal End
(PID.TID 0000.0001) // =======================================================
(PID.TID 0000.0001) 
(PID.TID 0000.0001)  MDS_READ_META: opening file: pickup.0000036000.meta
(PID.TID 0000.0001)  nRecords = 123 ; filePrec =  64 ; fileIter =     36000
(PID.TID 0000.0001)     nDims =   2 , dims:
(PID.TID 0000.0001)    1: 192   1 192
(PID.TID 0000.0001)    2:  32   1  32
(PID.TID 0000.0001)     nFlds =  11 , nFl3D =   8 , fields:
(PID.TID 0000.0001)  >Uvel    < >GuNm1   < >Vvel    < >GvNm1   < >Theta   < >GtNm1   < >Salt    < >GsNm1   < >EtaN    < >dEtaHdt < >EtaH    <
(PID.TID 0000.0001) missingVal=  1.00000000000000E+00 ; nTimRec =   0 , timeList:
(PID.TID 0000.0001) READ_MFLDS_3D_RL: read field: "Uvel    ", #   1 in fldList, rec=   1
(PID.TID 0000.0001)  MDS_READ_FIELD: opening global file: pickup.0000036000
(PID.TID 0000.0001) READ_MFLDS_3D_RL: read field: "Vvel    ", #   3 in fldList, rec=   3
(PID.TID 0000.0001)  MDS_READ_FIELD: opening global file: pickup.0000036000
(PID.TID 0000.0001) READ_MFLDS_3D_RL: read field: "Theta   ", #   5 in fldList, rec=   5
(PID.TID 0000.0001)  MDS_READ_FIELD: opening global file: pickup.0000036000
(PID.TID 0000.0001) READ_MFLDS_3D_RL: read field: "Salt    ", #   7 in fldList, rec=   7
(PID.TID 0000.0001)  MDS_READ_FIELD: opening global file: pickup.0000036000
(PID.TID 0000.0001) READ_MFLDS_3D_RL: read field: "GuNm1   ", #   2 in fldList, rec=   2
(PID.TID 0000.0001)  MDS_READ_FIELD: opening global file: pickup.0000036000
(PID.TID 0000.0001) READ_MFLDS_3D_RL: read field: "GvNm1   ", #   4 in fldList, rec=   4
(PID.TID 0000.0001)  MDS_READ_FIELD: opening global file: pickup.0000036000
(PID.TID 0000.0001) READ_MFLDS_3D_RL: read field: "GtNm1   ", #   6 in fldList, rec=   6
(PID.TID 0000.0001)  MDS_READ_FIELD: opening global file: pickup.0000036000
(PID.TID 0000.0001) READ_MFLDS_3D_RL: read field: "GsNm1   ", #   8 in fldList, rec=   8
(PID.TID 0000.0001)  MDS_READ_FIELD: opening global file: pickup.0000036000
(PID.TID 0000.0001) READ_MFLDS_3D_RL: read field: "EtaN    ", #   9 in fldList, rec= 121
(PID.TID 0000.0001)  MDS_READ_FIELD: opening global file: pickup.0000036000
(PID.TID 0000.0001) READ_MFLDS_3D_RL: read field: "dEtaHdt ", #  10 in fldList, rec= 122
(PID.TID 0000.0001)  MDS_READ_FIELD: opening global file: pickup.0000036000
(PID.TID 0000.0001) READ_MFLDS_3D_RL: read field: "EtaH    ", #  11 in fldList, rec= 123
(PID.TID 0000.0001)  MDS_READ_FIELD: opening global file: pickup.0000036000
(PID.TID 0000.0001) READ_MFLDS_CHECK: - normal end ; reset MFLDS file-name: pickup.0000036000
(PID.TID 0000.0001)  MDS_READ_FIELD: opening global file: trenberth_taux.bin
(PID.TID 0000.0001)  MDS_READ_FIELD: opening global file: trenberth_tauy.bin
(PID.TID 0000.0001)  MDS_READ_FIELD: opening global file: lev_surfT_cs_12m.bin
(PID.TID 0000.0001)  MDS_READ_FIELD: opening global file: lev_surfS_cs_12m.bin
(PID.TID 0000.0001)  write diagnostics summary to file ioUnit:      6
Iter.Nb:     36000 ; Time(s):  3.1104000000000E+09
------------------------------------------------------------------------
2D/3D diagnostics: Number of lists:     6
------------------------------------------------------------------------
listId=    1 ; file name: surfDiag
 nFlds, nActive,       freq     &     phase        , nLev               
   17  |   17  |1555200000.000000         0.000000 |   1
 levels:   1
 diag# | name   |   ipt  |  iMate | kLev|   count |   mate.C|           
    23 |ETAN    |      1 |      0 |   1 |       0 |
    24 |ETANSQ  |      2 |      0 |   1 |       0 |
    25 |DETADT2 |      3 |      0 |   1 |       0 |
    73 |PHIBOT  |      4 |      0 |   1 |       0 |
    74 |PHIBOTSQ|      5 |      0 |   1 |       0 |
    81 |oceTAUX |      6 |      7 |   1 |       0 |       0 |
    82 |oceTAUY |      7 |      6 |   1 |       0 |       0 |
    90 |TRELAX  |      8 |      0 |   1 |       0 |
    91 |SRELAX  |      9 |      0 |   1 |       0 |
    92 |surForcT|     10 |      0 |   1 |       0 |
    93 |surForcS|     11 |      0 |   1 |       0 |
    94 |TFLUX   |     12 |      0 |   1 |       0 |
    95 |SFLUX   |     13 |      0 |   1 |       0 |
    88 |oceQsw  |     14 |      0 |   1 |       0 |
    87 |oceQnet |     15 |      0 |   1 |       0 |
    86 |oceSflux|     16 |      0 |   1 |       0 |
    85 |oceFWflx|     17 |      0 |   1 |       0 |
------------------------------------------------------------------------
listId=    2 ; file name: dynDiag
 nFlds, nActive,       freq     &     phase        , nLev               
   15  |   15  |1555200000.000000         0.000000 |  15
 levels:   1   2   3   4   5   6   7   8   9  10  11  12  13  14  15
 diag# | name   |   ipt  |  iMate | kLev|   count |   mate.C|           
    30 |UVEL    |     18 |     33 |  15 |       0 |       0 |
    31 |VVEL    |     33 |     18 |  15 |       0 |       0 |
    32 |WVEL    |     48 |      0 |  15 |       0 |
    71 |PHIHYD  |     63 |      0 |  15 |       0 |
    46 |VVELMASS|     78 |     93 |  15 |       0 |       0 |
    45 |UVELMASS|     93 |     78 |  15 |       0 |       0 |
    38 |WVELSQ  |    108 |      0 |  15 |       0 |
    26 |THETA   |    123 |      0 |  15 |       0 |
    50 |UTHMASS |    138 |    153 |  15 |       0 |       0 |
    51 |VTHMASS |    153 |    138 |  15 |       0 |       0 |
    52 |WTHMASS |    168 |      0 |  15 |       0 |
    27 |SALT    |    183 |      0 |  15 |       0 |
    53 |USLTMASS|    198 |    213 |  15 |       0 |       0 |
    54 |VSLTMASS|    213 |    198 |  15 |       0 |       0 |
    55 |WSLTMASS|    228 |      0 |  15 |       0 |
------------------------------------------------------------------------
listId=    3 ; file name: thSIceDiag
 nFlds, nActive,       freq     &     phase        , nLev               
   16  |   16  |1555200000.000000         0.000000 |   1
 levels:   1
 diag# | name   |   ipt  |  iMate | kLev|   count |   mate.C|           
   216 |SI_Fract|    243 |      0 |   1 |      0(x 12) |
   217 |SI_Thick|    255 |    243 |   1 |      0(x 12) |
   218 |SI_SnowH|    267 |    243 |   1 |      0(x 12) |
   219 |SI_Tsrf |    279 |    243 |   1 |      0(x 12) |
   220 |SI_Tice1|    291 |    243 |   1 |      0(x 12) |
   221 |SI_Tice2|    303 |    243 |   1 |      0(x 12) |
   222 |SI_Qice1|    315 |    255 |   1 |      0(x 12) |
   223 |SI_Qice2|    327 |    255 |   1 |      0(x 12) |
   224 |SIsnwAge|    339 |      0 |   1 |      0(x 12) |
   226 |SIsnwPrc|    351 |    243 |   1 |      0(x 12) |
   225 |SIalbedo|    363 |    243 |   1 |      0(x 12) |
   229 |SIflx2oc|    375 |      0 |   1 |      0(x 12) |
   230 |SIfrw2oc|    387 |      0 |   1 |      0(x 12) |
   231 |SIsaltFx|    399 |      0 |   1 |      0(x 12) |
   227 |SIflxAtm|    411 |      0 |   1 |      0(x 12) |
   228 |SIfrwAtm|    423 |      0 |   1 |      0(x 12) |
------------------------------------------------------------------------
listId=    4 ; file name: surfInst
 nFlds, nActive,       freq     &     phase        , nLev               
    2  |    2  |   -777600.000000         0.000000 |   1
 levels:   1
 diag# | name   |   ipt  |  iMate | kLev|   count |   mate.C|           
    23 |ETAN    |    435 |      0 |   1 |       0 |
    85 |oceFWflx|    436 |      0 |   1 |       0 |
------------------------------------------------------------------------
listId=    5 ; file name: etaInst
 nFlds, nActive,       freq     &     phase        , nLev               
    1  |    1  |   -777600.000000     86400.000000 |   1
 levels:   1
 diag# | name   |   ipt  |  iMate | kLev|   count |   mate.C|           
    23 |ETAN    |    437 |      0 |   1 |       0 |
------------------------------------------------------------------------
listId=    6 ; file name: dynInst
 nFlds, nActive,       freq     &     phase        , nLev               
    2  |    2  |   -777600.000000         0.000000 |  15
 levels:   1   2   3   4   5   6   7   8   9  10  11  12  13  14  15
 diag# | name   |   ipt  |  iMate | kLev|   count |   mate.C|           
    26 |THETA   |    438 |      0 |  15 |       0 |
    27 |SALT    |    453 |      0 |  15 |       0 |
------------------------------------------------------------------------
Global & Regional Statistics diagnostics: Number of lists:     4
------------------------------------------------------------------------
listId=   1 ; file name: dynStDiag
 nFlds, nActive,       freq     &     phase        |                    
    6  |    6  |    864000.000000         0.000000 |
 Regions:   0
 diag# | name   |   ipt  |  iMate |    Volume   |   mate-Vol. |         
    23 |ETAN    |      1 |      0 | 0.00000E+00 |
    24 |ETANSQ  |      2 |      0 | 0.00000E+00 |
    25 |DETADT2 |      3 |      0 | 0.00000E+00 |
    26 |THETA   |      4 |      0 | 0.00000E+00 |
    27 |SALT    |     19 |      0 | 0.00000E+00 |
    80 |CONVADJ |     34 |      0 | 0.00000E+00 |
------------------------------------------------------------------------
listId=   2 ; file name: surfStDiag
 nFlds, nActive,       freq     &     phase        |                    
   11  |   11  |    777600.000000     86400.000000 |
 Regions:   0
 diag# | name   |   ipt  |  iMate |    Volume   |   mate-Vol. |         
    81 |oceTAUX |     49 |      0 | 0.00000E+00 |
    82 |oceTAUY |     50 |      0 | 0.00000E+00 |
    90 |TRELAX  |     51 |      0 | 0.00000E+00 |
    91 |SRELAX  |     52 |      0 | 0.00000E+00 |
    92 |surForcT|     53 |      0 | 0.00000E+00 |
    93 |surForcS|     54 |      0 | 0.00000E+00 |
    94 |TFLUX   |     55 |      0 | 0.00000E+00 |
    95 |SFLUX   |     56 |      0 | 0.00000E+00 |
    87 |oceQnet |     57 |      0 | 0.00000E+00 |
    86 |oceSflux|     58 |      0 | 0.00000E+00 |
    85 |oceFWflx|     59 |      0 | 0.00000E+00 |
------------------------------------------------------------------------
listId=   3 ; file name: instStDiag
 nFlds, nActive,       freq     &     phase        |                    
    3  |    3  |   -777600.000000     86400.000000 |
 Regions:   0
 diag# | name   |   ipt  |  iMate |    Volume   |   mate-Vol. |         
    23 |ETAN    |     60 |      0 | 0.00000E+00 |
    26 |THETA   |     61 |      0 | 0.00000E+00 |
    27 |SALT    |     76 |      0 | 0.00000E+00 |
------------------------------------------------------------------------
listId=   4 ; file name: thSIceStDiag
 nFlds, nActive,       freq     &     phase        |                    
   16  |   16  |    864000.000000         0.000000 |
 Regions:   0  1  3
 diag# | name   |   ipt  |  iMate |    Volume   |   mate-Vol. |         
   216 |SI_Fract|     91 |      0 | 0.00000E+00 |
   217 |SI_Thick|     92 |     91 | 0.00000E+00 | 0.00000E+00 |
   218 |SI_SnowH|     93 |     91 | 0.00000E+00 | 0.00000E+00 |
   219 |SI_Tsrf |     94 |     91 | 0.00000E+00 | 0.00000E+00 |
   220 |SI_Tice1|     95 |     91 | 0.00000E+00 | 0.00000E+00 |
   221 |SI_Tice2|     96 |     91 | 0.00000E+00 | 0.00000E+00 |
   222 |SI_Qice1|     97 |     92 | 0.00000E+00 | 0.00000E+00 |
   223 |SI_Qice2|     98 |     92 | 0.00000E+00 | 0.00000E+00 |
   226 |SIsnwPrc|     99 |     91 | 0.00000E+00 | 0.00000E+00 |
   225 |SIalbedo|    100 |     91 | 0.00000E+00 | 0.00000E+00 |
   224 |SIsnwAge|    101 |      0 | 0.00000E+00 |
   229 |SIflx2oc|    102 |      0 | 0.00000E+00 |
   230 |SIfrw2oc|    103 |      0 | 0.00000E+00 |
   231 |SIsaltFx|    104 |      0 | 0.00000E+00 |
   227 |SIflxAtm|    105 |      0 | 0.00000E+00 |
   228 |SIfrwAtm|    106 |      0 | 0.00000E+00 |
------------------------------------------------------------------------
(PID.TID 0000.0001)  MDS_READ_FIELD: opening global file: pickup_ic.0000036000
(PID.TID 0000.0001)  MDS_READ_FIELD: opening global file: pickup_ic.0000036000
(PID.TID 0000.0001)  MDS_READ_FIELD: opening global file: pickup_ic.0000036000
(PID.TID 0000.0001)  MDS_READ_FIELD: opening global file: pickup_ic.0000036000
(PID.TID 0000.0001)  MDS_READ_FIELD: opening global file: pickup_ic.0000036000
(PID.TID 0000.0001)  MDS_READ_FIELD: opening global file: pickup_ic.0000036000
(PID.TID 0000.0001)  MDS_READ_FIELD: opening global file: pickup_ic.0000036000
(PID.TID 0000.0001)  MDS_READ_FIELD: opening global file: pickup_ic.0000036000
(PID.TID 0000.0001)  MDS_READ_FIELD: opening global file: pickup_ic.0000036000
(PID.TID 0000.0001) // =======================================================
(PID.TID 0000.0001) // Model current state
(PID.TID 0000.0001) // =======================================================
(PID.TID 0000.0001) 
(PID.TID 0000.0001) // =======================================================
(PID.TID 0000.0001) // Begin MONITOR dynamic field statistics
(PID.TID 0000.0001) // =======================================================
(PID.TID 0000.0001) %MON time_tsnumber                =                 36000
(PID.TID 0000.0001) %MON time_secondsf                =   3.1104000000000E+09
(PID.TID 0000.0001) %MON dynstat_eta_max              =   7.3500434503471E-01
(PID.TID 0000.0001) %MON dynstat_eta_min              =  -1.1986891348601E+01
(PID.TID 0000.0001) %MON dynstat_eta_mean             =  -5.8045564487853E-01
(PID.TID 0000.0001) %MON dynstat_eta_sd               =   1.6994311255501E+00
(PID.TID 0000.0001) %MON dynstat_eta_del2             =   2.0900254542352E-02
(PID.TID 0000.0001) %MON dynstat_uvel_max             =   1.7235154042170E-01
(PID.TID 0000.0001) %MON dynstat_uvel_min             =  -2.7145887709522E-01
(PID.TID 0000.0001) %MON dynstat_uvel_mean            =  -5.2887824837157E-04
(PID.TID 0000.0001) %MON dynstat_uvel_sd              =   1.2989468965472E-02
(PID.TID 0000.0001) %MON dynstat_uvel_del2            =   5.8837039483483E-05
(PID.TID 0000.0001) %MON dynstat_vvel_max             =   1.9306786753954E-01
(PID.TID 0000.0001) %MON dynstat_vvel_min             =  -2.1050631286072E-01
(PID.TID 0000.0001) %MON dynstat_vvel_mean            =  -4.2470116939793E-04
(PID.TID 0000.0001) %MON dynstat_vvel_sd              =   1.3472945317820E-02
(PID.TID 0000.0001) %MON dynstat_vvel_del2            =   5.6407764932197E-05
(PID.TID 0000.0001) %MON dynstat_wvel_max             =   8.3888727589247E-05
(PID.TID 0000.0001) %MON dynstat_wvel_min             =  -1.7681850941337E-04
(PID.TID 0000.0001) %MON dynstat_wvel_mean            =  -1.2631701181817E-09
(PID.TID 0000.0001) %MON dynstat_wvel_sd              =   4.6274614748344E-06
(PID.TID 0000.0001) %MON dynstat_wvel_del2            =   4.0327258278207E-08
(PID.TID 0000.0001) %MON dynstat_theta_max            =   3.0162021109834E+01
(PID.TID 0000.0001) %MON dynstat_theta_min            =  -5.5087736803077E+00
(PID.TID 0000.0001) %MON dynstat_theta_mean           =   3.5027154873320E+00
(PID.TID 0000.0001) %MON dynstat_theta_sd             =   4.7490175075967E+00
(PID.TID 0000.0001) %MON dynstat_theta_del2           =   2.9355189374162E-03
(PID.TID 0000.0001) %MON dynstat_salt_max             =   4.0815425249776E+01
(PID.TID 0000.0001) %MON dynstat_salt_min             =   1.8030178312691E+01
(PID.TID 0000.0001) %MON dynstat_salt_mean            =   3.4756092396968E+01
(PID.TID 0000.0001) %MON dynstat_salt_sd              =   5.1193688315107E-01
(PID.TID 0000.0001) %MON dynstat_salt_del2            =   8.3648722179445E-04
(PID.TID 0000.0001) %MON forcing_qnet_max             =   0.0000000000000E+00
(PID.TID 0000.0001) %MON forcing_qnet_min             =   0.0000000000000E+00
(PID.TID 0000.0001) %MON forcing_qnet_mean            =   0.0000000000000E+00
(PID.TID 0000.0001) %MON forcing_qnet_sd              =   0.0000000000000E+00
(PID.TID 0000.0001) %MON forcing_qnet_del2            =   0.0000000000000E+00
(PID.TID 0000.0001) %MON forcing_qsw_max              =   0.0000000000000E+00
(PID.TID 0000.0001) %MON forcing_qsw_min              =   0.0000000000000E+00
(PID.TID 0000.0001) %MON forcing_qsw_mean             =   0.0000000000000E+00
(PID.TID 0000.0001) %MON forcing_qsw_sd               =   0.0000000000000E+00
(PID.TID 0000.0001) %MON forcing_qsw_del2             =   0.0000000000000E+00
(PID.TID 0000.0001) %MON forcing_empmr_max            =   0.0000000000000E+00
(PID.TID 0000.0001) %MON forcing_empmr_min            =   0.0000000000000E+00
(PID.TID 0000.0001) %MON forcing_empmr_mean           =   0.0000000000000E+00
(PID.TID 0000.0001) %MON forcing_empmr_sd             =   0.0000000000000E+00
(PID.TID 0000.0001) %MON forcing_empmr_del2           =   0.0000000000000E+00
(PID.TID 0000.0001) %MON forcing_fu_max               =   2.4892781143428E-01
(PID.TID 0000.0001) %MON forcing_fu_min               =  -2.5159107438040E-01
(PID.TID 0000.0001) %MON forcing_fu_mean              =  -3.8956966288612E-03
(PID.TID 0000.0001) %MON forcing_fu_sd                =   6.5480383395885E-02
(PID.TID 0000.0001) %MON forcing_fu_del2              =   2.3114393556995E-04
(PID.TID 0000.0001) %MON forcing_fv_max               =   2.9305960402537E-01
(PID.TID 0000.0001) %MON forcing_fv_min               =  -3.3950131228473E-01
(PID.TID 0000.0001) %MON forcing_fv_mean              =  -1.3743384707768E-02
(PID.TID 0000.0001) %MON forcing_fv_sd                =   7.6816469815204E-02
(PID.TID 0000.0001) %MON forcing_fv_del2              =   2.5671701728584E-04
(PID.TID 0000.0001) %MON trAdv_CFL_u_max              =   0.0000000000000E+00
(PID.TID 0000.0001) %MON trAdv_CFL_v_max              =   0.0000000000000E+00
(PID.TID 0000.0001) %MON trAdv_CFL_w_max              =   0.0000000000000E+00
(PID.TID 0000.0001) %MON advcfl_uvel_max              =   7.6990886762546E-02
(PID.TID 0000.0001) %MON advcfl_vvel_max              =   8.4155563479013E-02
(PID.TID 0000.0001) %MON advcfl_wvel_max              =   5.7649506465342E-02
(PID.TID 0000.0001) %MON advcfl_W_hf_max              =   6.5892167239956E-02
(PID.TID 0000.0001) %MON pe_b_mean                    =   4.2969665467446E-03
(PID.TID 0000.0001) %MON ke_max                       =   3.6920742855791E-02
(PID.TID 0000.0001) %MON ke_mean                      =   1.6194090277160E-04
(PID.TID 0000.0001) %MON ke_vol                       =   1.3395912415612E+18
(PID.TID 0000.0001) %MON vort_r_min                   =  -1.2103928619458E-06
(PID.TID 0000.0001) %MON vort_r_max                   =   1.3658356323918E-06
(PID.TID 0000.0001) %MON vort_a_mean                  =  -2.0549865324846E-05
(PID.TID 0000.0001) %MON vort_a_sd                    =   7.5259583459532E-05
(PID.TID 0000.0001) %MON vort_p_mean                  =  -2.4787190757548E-05
(PID.TID 0000.0001) %MON vort_p_sd                    =   1.2817278044840E-04
(PID.TID 0000.0001) %MON surfExpan_theta_mean         =   8.4664546923379E-08
(PID.TID 0000.0001) %MON surfExpan_salt_mean          =   2.0573162615946E-08
(PID.TID 0000.0001) // =======================================================
(PID.TID 0000.0001) // End MONITOR dynamic field statistics
(PID.TID 0000.0001) // =======================================================
(PID.TID 0000.0001) // =======================================================
(PID.TID 0000.0001) // Begin MONITOR Therm.SeaIce statistics
(PID.TID 0000.0001) // =======================================================
(PID.TID 0000.0001) %MON thSI_time_sec                =   3.1104000000000E+09
(PID.TID 0000.0001) %MON thSI_Ice_Area_G              =   2.4716044426698E+13
(PID.TID 0000.0001) %MON thSI_Ice_Area_S              =   1.2123515471256E+13
(PID.TID 0000.0001) %MON thSI_Ice_Area_N              =   1.2592528955442E+13
(PID.TID 0000.0001) %MON thSI_IceH_ave_G              =   4.5665991101486E+00
(PID.TID 0000.0001) %MON thSI_IceH_ave_S              =   5.6548113929333E+00
(PID.TID 0000.0001) %MON thSI_IceH_ave_N              =   3.5189177037341E+00
(PID.TID 0000.0001) %MON thSI_IceH_max_S              =   1.0000000000000E+01
(PID.TID 0000.0001) %MON thSI_IceH_max_N              =   1.0000000000000E+01
(PID.TID 0000.0001) %MON thSI_SnwH_ave_G              =   1.0642325960795E+00
(PID.TID 0000.0001) %MON thSI_SnwH_ave_S              =   1.8039252994821E+00
(PID.TID 0000.0001) %MON thSI_SnwH_ave_N              =   3.5209002603598E-01
(PID.TID 0000.0001) %MON thSI_SnwH_max_S              =   4.0920173287519E+00
(PID.TID 0000.0001) %MON thSI_SnwH_max_N              =   4.0933581672150E+00
(PID.TID 0000.0001) %MON thSI_Tsrf_ave_G              =  -1.6644740861567E+01
(PID.TID 0000.0001) %MON thSI_Tsrf_ave_S              =  -1.2271804409750E-01
(PID.TID 0000.0001) %MON thSI_Tsrf_ave_N              =  -3.2551394715834E+01
(PID.TID 0000.0001) %MON thSI_Tsrf_min_S              =  -5.2879155123950E+00
(PID.TID 0000.0001) %MON thSI_Tsrf_min_N              =  -4.6099403861095E+01
(PID.TID 0000.0001) %MON thSI_Tsrf_max_S              =   0.0000000000000E+00
(PID.TID 0000.0001) %MON thSI_Tsrf_max_N              =  -1.7223298637424E+00
(PID.TID 0000.0001) %MON thSI_Tic1_ave_G              =  -8.3503593345479E+00
(PID.TID 0000.0001) %MON thSI_Tic1_ave_S              =  -5.1859254669298E+00
(PID.TID 0000.0001) %MON thSI_Tic1_ave_N              =  -1.3246125323351E+01
(PID.TID 0000.0001) %MON thSI_Tic1_min_S              =  -1.7372153208148E+01
(PID.TID 0000.0001) %MON thSI_Tic1_min_N              =  -2.0584120855350E+01
(PID.TID 0000.0001) %MON thSI_Tic1_max_S              =  -1.5363024655854E-01
(PID.TID 0000.0001) %MON thSI_Tic1_max_N              =  -5.8630083767312E-01
(PID.TID 0000.0001) %MON thSI_Tic2_ave_G              =  -3.7701031784537E+00
(PID.TID 0000.0001) %MON thSI_Tic2_ave_S              =  -3.1173552909385E+00
(PID.TID 0000.0001) %MON thSI_Tic2_ave_N              =  -4.7799839472262E+00
(PID.TID 0000.0001) %MON thSI_Tic2_min_S              =  -8.8326933331569E+00
(PID.TID 0000.0001) %MON thSI_Tic2_min_N              =  -7.3985906582730E+00
(PID.TID 0000.0001) %MON thSI_Tic2_max_S              =  -1.1778332319913E+00
(PID.TID 0000.0001) %MON thSI_Tic2_max_N              =  -1.1561961802541E+00
(PID.TID 0000.0001) %MON thSI_TotEnerg_G              =  -3.7927617991529E+22
(PID.TID 0000.0001) // =======================================================
(PID.TID 0000.0001) // End MONITOR Therm.SeaIce statistics
(PID.TID 0000.0001) // =======================================================
 BULKF_FIELDS_LOAD,     36000 : iP,iLd,i0,i1=   12    0   12    1 ; Wght=  0.5000000000  0.5000000000
 BULKF_FIELDS_LOAD, it=     36000 : Reading new data, i0,i1=   12    1 (prev=   12    0 )
(PID.TID 0000.0001)  MDS_READ_FIELD: opening global file: ncep_tair_cs.bin
(PID.TID 0000.0001)  MDS_READ_FIELD: opening global file: ncep_tair_cs.bin
(PID.TID 0000.0001)  MDS_READ_FIELD: opening global file: ncep_qair_cs.bin
(PID.TID 0000.0001)  MDS_READ_FIELD: opening global file: ncep_qair_cs.bin
(PID.TID 0000.0001)  MDS_READ_FIELD: opening global file: ncep_downsolar_cs.bin
(PID.TID 0000.0001)  MDS_READ_FIELD: opening global file: ncep_downsolar_cs.bin
(PID.TID 0000.0001)  MDS_READ_FIELD: opening global file: ncep_downlw_cs.bin
(PID.TID 0000.0001)  MDS_READ_FIELD: opening global file: ncep_downlw_cs.bin
(PID.TID 0000.0001)  MDS_READ_FIELD: opening global file: ncep_windspeed_cs.bin
(PID.TID 0000.0001)  MDS_READ_FIELD: opening global file: ncep_windspeed_cs.bin
(PID.TID 0000.0001)  MDS_READ_FIELD: opening global file: ncep_pr_scal_cs.bin
(PID.TID 0000.0001)  MDS_READ_FIELD: opening global file: ncep_pr_scal_cs.bin
 EXTERNAL_FIELDS_LOAD,     36000 : iP,iLd,i0,i1=   12    0   12    1 ; Wght=  0.5000000000  0.5000000000
 EXTERNAL_FIELDS_LOAD, it=     36000 : Reading new data, i0,i1=   12    1 (prev=   12    0 )
(PID.TID 0000.0001)  MDS_READ_FIELD: opening global file: trenberth_taux.bin
(PID.TID 0000.0001)  MDS_READ_FIELD: opening global file: trenberth_taux.bin
(PID.TID 0000.0001)  MDS_READ_FIELD: opening global file: trenberth_tauy.bin
(PID.TID 0000.0001)  MDS_READ_FIELD: opening global file: trenberth_tauy.bin
(PID.TID 0000.0001)  MDS_READ_FIELD: opening global file: lev_surfT_cs_12m.bin
(PID.TID 0000.0001)  MDS_READ_FIELD: opening global file: lev_surfT_cs_12m.bin
(PID.TID 0000.0001)  MDS_READ_FIELD: opening global file: lev_surfS_cs_12m.bin
(PID.TID 0000.0001)  MDS_READ_FIELD: opening global file: lev_surfS_cs_12m.bin
(PID.TID 0000.0001) SOLVE_FOR_PRESSURE: putPmEinXvector =    F
(PID.TID 0000.0001) SOLVE_FOR_PRESSURE: zeroPsNH=    F , zeroMeanPnh=    F
(PID.TID 0000.0001) SOLVE_FOR_PRESSURE: oldFreeSurfTerm =    F
 cg2d: Sum(rhs),rhsMax =   3.91123171841600E+02  2.29216701449013E+02
(PID.TID 0000.0001)      cg2d_init_res =   1.95240795428599E+01
(PID.TID 0000.0001)      cg2d_iters(min,last) =      -1      72
(PID.TID 0000.0001)      cg2d_last_res =   5.47026461918076E-07
(PID.TID 0000.0001) // =======================================================
(PID.TID 0000.0001) // Begin MONITOR dynamic field statistics
(PID.TID 0000.0001) // =======================================================
(PID.TID 0000.0001) %MON time_tsnumber                =                 36001
(PID.TID 0000.0001) %MON time_secondsf                =   3.1104864000000E+09
(PID.TID 0000.0001) %MON dynstat_eta_max              =   7.3388313801279E-01
(PID.TID 0000.0001) %MON dynstat_eta_min              =  -1.1986231036037E+01
(PID.TID 0000.0001) %MON dynstat_eta_mean             =  -5.8173432388293E-01
(PID.TID 0000.0001) %MON dynstat_eta_sd               =   1.7027385336389E+00
(PID.TID 0000.0001) %MON dynstat_eta_del2             =   2.1076781989700E-02
(PID.TID 0000.0001) %MON dynstat_uvel_max             =   1.7286761781347E-01
(PID.TID 0000.0001) %MON dynstat_uvel_min             =  -2.7121219205987E-01
(PID.TID 0000.0001) %MON dynstat_uvel_mean            =  -5.2865954593174E-04
(PID.TID 0000.0001) %MON dynstat_uvel_sd              =   1.2989905382744E-02
(PID.TID 0000.0001) %MON dynstat_uvel_del2            =   5.8829339787865E-05
(PID.TID 0000.0001) %MON dynstat_vvel_max             =   1.9357144658413E-01
(PID.TID 0000.0001) %MON dynstat_vvel_min             =  -2.1067218504601E-01
(PID.TID 0000.0001) %MON dynstat_vvel_mean            =  -4.2461686148358E-04
(PID.TID 0000.0001) %MON dynstat_vvel_sd              =   1.3475559854927E-02
(PID.TID 0000.0001) %MON dynstat_vvel_del2            =   5.6372032895066E-05
(PID.TID 0000.0001) %MON dynstat_wvel_max             =   8.3985362153257E-05
(PID.TID 0000.0001) %MON dynstat_wvel_min             =  -1.7706549469950E-04
(PID.TID 0000.0001) %MON dynstat_wvel_mean            =   1.7402913342030E-09
(PID.TID 0000.0001) %MON dynstat_wvel_sd              =   4.6302435396866E-06
(PID.TID 0000.0001) %MON dynstat_wvel_del2            =   4.0408810280281E-08
(PID.TID 0000.0001) %MON dynstat_theta_max            =   3.0143982436859E+01
(PID.TID 0000.0001) %MON dynstat_theta_min            =  -4.0278011831757E+00
(PID.TID 0000.0001) %MON dynstat_theta_mean           =   3.5028309630015E+00
(PID.TID 0000.0001) %MON dynstat_theta_sd             =   4.7489713259588E+00
(PID.TID 0000.0001) %MON dynstat_theta_del2           =   2.9391454927432E-03
(PID.TID 0000.0001) %MON dynstat_salt_max             =   4.0818100176454E+01
(PID.TID 0000.0001) %MON dynstat_salt_min             =   1.8030808794671E+01
(PID.TID 0000.0001) %MON dynstat_salt_mean            =   3.4756104174727E+01
(PID.TID 0000.0001) %MON dynstat_salt_sd              =   5.1189179681612E-01
(PID.TID 0000.0001) %MON dynstat_salt_del2            =   8.3943677369864E-04
(PID.TID 0000.0001) %MON forcing_qnet_max             =   7.7549616936275E+02
(PID.TID 0000.0001) %MON forcing_qnet_min             =  -8.9676147940171E+03
(PID.TID 0000.0001) %MON forcing_qnet_mean            =  -1.4533423828233E+01
(PID.TID 0000.0001) %MON forcing_qnet_sd              =   2.3414680962637E+02
(PID.TID 0000.0001) %MON forcing_qnet_del2            =   6.0318213655136E+00
(PID.TID 0000.0001) %MON forcing_qsw_max              =  -0.0000000000000E+00
(PID.TID 0000.0001) %MON forcing_qsw_min              =  -3.4195662119167E+02
(PID.TID 0000.0001) %MON forcing_qsw_mean             =  -1.8643093634317E+02
(PID.TID 0000.0001) %MON forcing_qsw_sd               =   8.0933736225501E+01
(PID.TID 0000.0001) %MON forcing_qsw_del2             =   6.9770666111232E-01
(PID.TID 0000.0001) %MON forcing_empmr_max            =   2.6554484665544E-02
(PID.TID 0000.0001) %MON forcing_empmr_min            =  -4.0448513424106E-04
(PID.TID 0000.0001) %MON forcing_empmr_mean           =   1.5317508906792E-05
(PID.TID 0000.0001) %MON forcing_empmr_sd             =   5.1033105559495E-04
(PID.TID 0000.0001) %MON forcing_empmr_del2           =   1.5991115450607E-05
(PID.TID 0000.0001) %MON forcing_fu_max               =   2.4760613571392E-01
(PID.TID 0000.0001) %MON forcing_fu_min               =  -2.0293190974520E-01
(PID.TID 0000.0001) %MON forcing_fu_mean              =  -4.5478806648627E-03
(PID.TID 0000.0001) %MON forcing_fu_sd                =   6.3937396831278E-02
(PID.TID 0000.0001) %MON forcing_fu_del2              =   2.0509729664672E-04
(PID.TID 0000.0001) %MON forcing_fv_max               =   2.5281098043587E-01
(PID.TID 0000.0001) %MON forcing_fv_min               =  -3.2691992401999E-01
(PID.TID 0000.0001) %MON forcing_fv_mean              =  -1.3684501518858E-02
(PID.TID 0000.0001) %MON forcing_fv_sd                =   7.5153512230531E-02
(PID.TID 0000.0001) %MON forcing_fv_del2              =   2.3373863441584E-04
(PID.TID 0000.0001) %MON trAdv_CFL_u_max              =   7.6490870086192E-02
(PID.TID 0000.0001) %MON trAdv_CFL_v_max              =   8.9765120446612E-02
(PID.TID 0000.0001) %MON trAdv_CFL_w_max              =   6.3775303108678E-02
(PID.TID 0000.0001) %MON advcfl_uvel_max              =   7.6920922207230E-02
(PID.TID 0000.0001) %MON advcfl_vvel_max              =   8.4375066490023E-02
(PID.TID 0000.0001) %MON advcfl_wvel_max              =   8.8668887926684E-02
(PID.TID 0000.0001) %MON advcfl_W_hf_max              =   6.5640844943441E-02
(PID.TID 0000.0001) %MON pe_b_mean                    =  -1.9285657437857E-03
(PID.TID 0000.0001) %MON ke_max                       =   3.6835170141194E-02
(PID.TID 0000.0001) %MON ke_mean                      =   1.6197865865350E-04
(PID.TID 0000.0001) %MON ke_vol                       =   1.3395912252519E+18
(PID.TID 0000.0001) %MON vort_r_min                   =  -1.2135635374197E-06
(PID.TID 0000.0001) %MON vort_r_max                   =   1.3680213355717E-06
(PID.TID 0000.0001) %MON vort_a_mean                  =  -2.0549865324846E-05
(PID.TID 0000.0001) %MON vort_a_sd                    =   7.5259583286291E-05
(PID.TID 0000.0001) %MON vort_p_mean                  =  -2.4787190486060E-05
(PID.TID 0000.0001) %MON vort_p_sd                    =   1.2817278623870E-04
(PID.TID 0000.0001) %MON surfExpan_theta_mean         =   3.7814156376208E-08
(PID.TID 0000.0001) %MON surfExpan_salt_mean          =   9.2670175632230E-10
(PID.TID 0000.0001) // =======================================================
(PID.TID 0000.0001) // End MONITOR dynamic field statistics
(PID.TID 0000.0001) // =======================================================
(PID.TID 0000.0001) // =======================================================
(PID.TID 0000.0001) // Begin MONITOR Therm.SeaIce statistics
(PID.TID 0000.0001) // =======================================================
(PID.TID 0000.0001) %MON thSI_time_sec                =   3.1104864000000E+09
(PID.TID 0000.0001) %MON thSI_Ice_Area_G              =   2.4738356411237E+13
(PID.TID 0000.0001) %MON thSI_Ice_Area_S              =   1.2042847194238E+13
(PID.TID 0000.0001) %MON thSI_Ice_Area_N              =   1.2695509216998E+13
(PID.TID 0000.0001) %MON thSI_IceH_ave_G              =   4.5846834480039E+00
(PID.TID 0000.0001) %MON thSI_IceH_ave_S              =   5.6904735119020E+00
(PID.TID 0000.0001) %MON thSI_IceH_ave_N              =   3.5357408226382E+00
(PID.TID 0000.0001) %MON thSI_IceH_max_S              =   1.0000000000000E+01
(PID.TID 0000.0001) %MON thSI_IceH_max_N              =   1.0000000000000E+01
(PID.TID 0000.0001) %MON thSI_SnwH_ave_G              =   1.0583997408712E+00
(PID.TID 0000.0001) %MON thSI_SnwH_ave_S              =   1.8029351955650E+00
(PID.TID 0000.0001) %MON thSI_SnwH_ave_N              =   3.5214002664359E-01
(PID.TID 0000.0001) %MON thSI_SnwH_max_S              =   4.0985942889861E+00
(PID.TID 0000.0001) %MON thSI_SnwH_max_N              =   4.1095075267918E+00
(PID.TID 0000.0001) %MON thSI_Tsrf_ave_G              =  -1.6749297971996E+01
(PID.TID 0000.0001) %MON thSI_Tsrf_ave_S              =  -1.0618241809861E-01
(PID.TID 0000.0001) %MON thSI_Tsrf_ave_N              =  -3.2536809447570E+01
(PID.TID 0000.0001) %MON thSI_Tsrf_min_S              =  -5.3043441467213E+00
(PID.TID 0000.0001) %MON thSI_Tsrf_min_N              =  -4.6213990021686E+01
(PID.TID 0000.0001) %MON thSI_Tsrf_max_S              =   0.0000000000000E+00
(PID.TID 0000.0001) %MON thSI_Tsrf_max_N              =  -6.7474323125520E+00
(PID.TID 0000.0001) %MON thSI_Tic1_ave_G              =  -8.3521197353959E+00
(PID.TID 0000.0001) %MON thSI_Tic1_ave_S              =  -5.1622181897384E+00
(PID.TID 0000.0001) %MON thSI_Tic1_ave_N              =  -1.3222067613469E+01
(PID.TID 0000.0001) %MON thSI_Tic1_min_S              =  -1.7216897768510E+01
(PID.TID 0000.0001) %MON thSI_Tic1_min_N              =  -2.0666395739877E+01
(PID.TID 0000.0001) %MON thSI_Tic1_max_S              =  -2.1831092533945E-01
(PID.TID 0000.0001) %MON thSI_Tic1_max_N              =  -5.9497842414135E-01
(PID.TID 0000.0001) %MON thSI_Tic2_ave_G              =  -3.7741536126138E+00
(PID.TID 0000.0001) %MON thSI_Tic2_ave_S              =  -3.1128115907687E+00
(PID.TID 0000.0001) %MON thSI_Tic2_ave_N              =  -4.7838089671339E+00
(PID.TID 0000.0001) %MON thSI_Tic2_min_S              =  -8.8094598422842E+00
(PID.TID 0000.0001) %MON thSI_Tic2_min_N              =  -7.4380986141887E+00
(PID.TID 0000.0001) %MON thSI_Tic2_max_S              =  -1.1539915958877E+00
(PID.TID 0000.0001) %MON thSI_Tic2_max_N              =  -1.1753502729289E+00
(PID.TID 0000.0001) %MON thSI_TotEnerg_G              =  -3.8086152333288E+22
(PID.TID 0000.0001) // =======================================================
(PID.TID 0000.0001) // End MONITOR Therm.SeaIce statistics
(PID.TID 0000.0001) // =======================================================
 Computing Diagnostic #     23  ETAN         Counter:       1   Parms: SM      M1      
 Computing Diagnostic #     85  oceFWflx     Counter:       1   Parms: SM      U1      
 Computing Diagnostic #     26  THETA        Counter:       1   Parms: SMR     MR      
 Computing Diagnostic #     27  SALT         Counter:       1   Parms: SMR     MR      
 Compute Stats, Diag. #     81  oceTAUX   vol(   0 ): 3.457E+14  Parms: UU      U1      
 Compute Stats, Diag. #     82  oceTAUY   vol(   0 ): 3.478E+14  Parms: VV      U1      
 Compute Stats, Diag. #     90  TRELAX    vol(   0 ): 3.639E+14  Parms: SM      U1      
 Compute Stats, Diag. #     91  SRELAX    vol(   0 ): 3.639E+14  Parms: SM      U1      
 Compute Stats, Diag. #     92  surForcT  vol(   0 ): 3.639E+14  Parms: SM      U1      
 Compute Stats, Diag. #     93  surForcS  vol(   0 ): 3.639E+14  Parms: SM      U1      
 Compute Stats, Diag. #     94  TFLUX     vol(   0 ): 3.639E+14  Parms: SM      U1      
 Compute Stats, Diag. #     95  SFLUX     vol(   0 ): 3.639E+14  Parms: SM      U1      
 Compute Stats, Diag. #     87  oceQnet   vol(   0 ): 3.639E+14  Parms: SM      U1      
 Compute Stats, Diag. #     86  oceSflux  vol(   0 ): 3.639E+14  Parms: SM      U1      
 Compute Stats, Diag. #     85  oceFWflx  vol(   0 ): 3.639E+14  Parms: SM      U1      
 BULKF_FIELDS_LOAD,     36001 : iP,iLd,i0,i1=   12    1   12    1 ; Wght=  0.4666666667  0.5333333333
 EXTERNAL_FIELDS_LOAD,     36001 : iP,iLd,i0,i1=   12    1   12    1 ; Wght=  0.4666666667  0.5333333333
 cg2d: Sum(rhs),rhsMax =   3.91131914519933E+02  2.29255075632629E+02
(PID.TID 0000.0001)      cg2d_init_res =   2.74861892167740E+00
(PID.TID 0000.0001)      cg2d_iters(min,last) =      -1      69
(PID.TID 0000.0001)      cg2d_last_res =   5.41164323969409E-07
(PID.TID 0000.0001) // =======================================================
(PID.TID 0000.0001) // Begin MONITOR dynamic field statistics
(PID.TID 0000.0001) // =======================================================
(PID.TID 0000.0001) %MON time_tsnumber                =                 36002
(PID.TID 0000.0001) %MON time_secondsf                =   3.1105728000000E+09
(PID.TID 0000.0001) %MON dynstat_eta_max              =   7.3252828172001E-01
(PID.TID 0000.0001) %MON dynstat_eta_min              =  -1.1985096075431E+01
(PID.TID 0000.0001) %MON dynstat_eta_mean             =  -5.8174732724462E-01
(PID.TID 0000.0001) %MON dynstat_eta_sd               =   1.7022730149899E+00
(PID.TID 0000.0001) %MON dynstat_eta_del2             =   2.1086598547446E-02
(PID.TID 0000.0001) %MON dynstat_uvel_max             =   1.7330036430560E-01
(PID.TID 0000.0001) %MON dynstat_uvel_min             =  -2.7088484156789E-01
(PID.TID 0000.0001) %MON dynstat_uvel_mean            =  -5.2837760855219E-04
(PID.TID 0000.0001) %MON dynstat_uvel_sd              =   1.2989039464054E-02
(PID.TID 0000.0001) %MON dynstat_uvel_del2            =   5.8810209490109E-05
(PID.TID 0000.0001) %MON dynstat_vvel_max             =   1.9399674809690E-01
(PID.TID 0000.0001) %MON dynstat_vvel_min             =  -2.1078224772276E-01
(PID.TID 0000.0001) %MON dynstat_vvel_mean            =  -4.2452872829195E-04
(PID.TID 0000.0001) %MON dynstat_vvel_sd              =   1.3477083970548E-02
(PID.TID 0000.0001) %MON dynstat_vvel_del2            =   5.6327842801728E-05
(PID.TID 0000.0001) %MON dynstat_wvel_max             =   8.3878579413254E-05
(PID.TID 0000.0001) %MON dynstat_wvel_min             =  -1.7741927204414E-04
(PID.TID 0000.0001) %MON dynstat_wvel_mean            =  -1.2001905393310E-09
(PID.TID 0000.0001) %MON dynstat_wvel_sd              =   4.6257267289301E-06
(PID.TID 0000.0001) %MON dynstat_wvel_del2            =   4.0321879450927E-08
(PID.TID 0000.0001) %MON dynstat_theta_max            =   3.0124612322596E+01
(PID.TID 0000.0001) %MON dynstat_theta_min            =  -3.3553043077048E+00
(PID.TID 0000.0001) %MON dynstat_theta_mean           =   3.5028877743253E+00
(PID.TID 0000.0001) %MON dynstat_theta_sd             =   4.7490129279420E+00
(PID.TID 0000.0001) %MON dynstat_theta_del2           =   2.9390916008613E-03
(PID.TID 0000.0001) %MON dynstat_salt_max             =   4.0820623225163E+01
(PID.TID 0000.0001) %MON dynstat_salt_min             =   1.8031424126812E+01
(PID.TID 0000.0001) %MON dynstat_salt_mean            =   3.4756104652991E+01
(PID.TID 0000.0001) %MON dynstat_salt_sd              =   5.1188354826098E-01
(PID.TID 0000.0001) %MON dynstat_salt_del2            =   8.3859158468087E-04
(PID.TID 0000.0001) %MON forcing_qnet_max             =   7.7879139272330E+02
(PID.TID 0000.0001) %MON forcing_qnet_min             =  -2.4011442299303E+02
(PID.TID 0000.0001) %MON forcing_qnet_mean            =  -4.7129694872473E+00
(PID.TID 0000.0001) %MON forcing_qnet_sd              =   1.2148808766057E+02
(PID.TID 0000.0001) %MON forcing_qnet_del2            =   1.3035219166096E+00
(PID.TID 0000.0001) %MON forcing_qsw_max              =  -0.0000000000000E+00
(PID.TID 0000.0001) %MON forcing_qsw_min              =  -3.4175257854448E+02
(PID.TID 0000.0001) %MON forcing_qsw_mean             =  -1.8646518663948E+02
(PID.TID 0000.0001) %MON forcing_qsw_sd               =   8.0799357798136E+01
(PID.TID 0000.0001) %MON forcing_qsw_del2             =   6.9872957671444E-01
(PID.TID 0000.0001) %MON forcing_empmr_max            =   5.9712076588198E-04
(PID.TID 0000.0001) %MON forcing_empmr_min            =  -3.9950781568112E-04
(PID.TID 0000.0001) %MON forcing_empmr_mean           =   1.5576943692700E-07
(PID.TID 0000.0001) %MON forcing_empmr_sd             =   5.5506186009138E-05
(PID.TID 0000.0001) %MON forcing_empmr_del2           =   1.0608625076480E-06
(PID.TID 0000.0001) %MON forcing_fu_max               =   2.4755808644372E-01
(PID.TID 0000.0001) %MON forcing_fu_min               =  -2.0607770640355E-01
(PID.TID 0000.0001) %MON forcing_fu_mean              =  -4.5044017291293E-03
(PID.TID 0000.0001) %MON forcing_fu_sd                =   6.3947166868600E-02
(PID.TID 0000.0001) %MON forcing_fu_del2              =   2.0524826999043E-04
(PID.TID 0000.0001) %MON forcing_fv_max               =   2.5549422200851E-01
(PID.TID 0000.0001) %MON forcing_fv_min               =  -3.2770782795392E-01
(PID.TID 0000.0001) %MON forcing_fv_mean              =  -1.3688427064785E-02
(PID.TID 0000.0001) %MON forcing_fv_sd                =   7.5192943168452E-02
(PID.TID 0000.0001) %MON forcing_fv_del2              =   2.3392164091250E-04
(PID.TID 0000.0001) %MON trAdv_CFL_u_max              =   7.6398546069837E-02
(PID.TID 0000.0001) %MON trAdv_CFL_v_max              =   8.9962244656419E-02
(PID.TID 0000.0001) %MON trAdv_CFL_w_max              =   6.3902789165990E-02
(PID.TID 0000.0001) %MON advcfl_uvel_max              =   7.6828079398294E-02
(PID.TID 0000.0001) %MON advcfl_vvel_max              =   8.4560449427701E-02
(PID.TID 0000.0001) %MON advcfl_wvel_max              =   5.7845377753259E-02
(PID.TID 0000.0001) %MON advcfl_W_hf_max              =   6.5328915392358E-02
(PID.TID 0000.0001) %MON pe_b_mean                    =  -1.9270104945516E-03
(PID.TID 0000.0001) %MON ke_max                       =   3.6728572796570E-02
(PID.TID 0000.0001) %MON ke_mean                      =   1.6198722307881E-04
(PID.TID 0000.0001) %MON ke_vol                       =   1.3395907599575E+18
(PID.TID 0000.0001) %MON vort_r_min                   =  -1.2170226549984E-06
(PID.TID 0000.0001) %MON vort_r_max                   =   1.3705418475327E-06
(PID.TID 0000.0001) %MON vort_a_mean                  =  -2.0549865324846E-05
(PID.TID 0000.0001) %MON vort_a_sd                    =   7.5259583112395E-05
(PID.TID 0000.0001) %MON vort_p_mean                  =  -2.4787196680593E-05
(PID.TID 0000.0001) %MON vort_p_sd                    =   1.2817293487582E-04
(PID.TID 0000.0001) %MON surfExpan_theta_mean         =   8.5077659532202E-08
(PID.TID 0000.0001) %MON surfExpan_salt_mean          =   1.8910775501690E-08
(PID.TID 0000.0001) // =======================================================
(PID.TID 0000.0001) // End MONITOR dynamic field statistics
(PID.TID 0000.0001) // =======================================================
(PID.TID 0000.0001) // =======================================================
(PID.TID 0000.0001) // Begin MONITOR Therm.SeaIce statistics
(PID.TID 0000.0001) // =======================================================
(PID.TID 0000.0001) %MON thSI_time_sec                =   3.1105728000000E+09
(PID.TID 0000.0001) %MON thSI_Ice_Area_G              =   2.4756282039964E+13
(PID.TID 0000.0001) %MON thSI_Ice_Area_S              =   1.1991786835735E+13
(PID.TID 0000.0001) %MON thSI_Ice_Area_N              =   1.2764495204229E+13
(PID.TID 0000.0001) %MON thSI_IceH_ave_G              =   4.5821676514924E+00
(PID.TID 0000.0001) %MON thSI_IceH_ave_S              =   5.7074957122977E+00
(PID.TID 0000.0001) %MON thSI_IceH_ave_N              =   3.5249621757147E+00
(PID.TID 0000.0001) %MON thSI_IceH_max_S              =   1.0000000000000E+01
(PID.TID 0000.0001) %MON thSI_IceH_max_N              =   1.0000000000000E+01
(PID.TID 0000.0001) %MON thSI_SnwH_ave_G              =   1.0529444570808E+00
(PID.TID 0000.0001) %MON thSI_SnwH_ave_S              =   1.7979823432942E+00
(PID.TID 0000.0001) %MON thSI_SnwH_ave_N              =   3.5300800263671E-01
(PID.TID 0000.0001) %MON thSI_SnwH_max_S              =   4.0952678965309E+00
(PID.TID 0000.0001) %MON thSI_SnwH_max_N              =   4.1020848926816E+00
(PID.TID 0000.0001) %MON thSI_Tsrf_ave_G              =  -1.6871696495437E+01
(PID.TID 0000.0001) %MON thSI_Tsrf_ave_S              =  -1.2634336011904E-01
(PID.TID 0000.0001) %MON thSI_Tsrf_ave_N              =  -3.2603357017454E+01
(PID.TID 0000.0001) %MON thSI_Tsrf_min_S              =  -5.3207170352752E+00
(PID.TID 0000.0001) %MON thSI_Tsrf_min_N              =  -4.6355041687304E+01
(PID.TID 0000.0001) %MON thSI_Tsrf_max_S              =   0.0000000000000E+00
(PID.TID 0000.0001) %MON thSI_Tsrf_max_N              =  -7.6783592621614E+00
(PID.TID 0000.0001) %MON thSI_Tic1_ave_G              =  -8.3768873773144E+00
(PID.TID 0000.0001) %MON thSI_Tic1_ave_S              =  -5.1376630868416E+00
(PID.TID 0000.0001) %MON thSI_Tic1_ave_N              =  -1.3304225991204E+01
(PID.TID 0000.0001) %MON thSI_Tic1_min_S              =  -1.6689794567922E+01
(PID.TID 0000.0001) %MON thSI_Tic1_min_N              =  -2.0726706592973E+01
(PID.TID 0000.0001) %MON thSI_Tic1_max_S              =  -2.2651862845697E-01
(PID.TID 0000.0001) %MON thSI_Tic1_max_N              =  -6.4311679080906E-01
(PID.TID 0000.0001) %MON thSI_Tic2_ave_G              =  -3.7793621323651E+00
(PID.TID 0000.0001) %MON thSI_Tic2_ave_S              =  -3.1002033715621E+00
(PID.TID 0000.0001) %MON thSI_Tic2_ave_N              =  -4.8124629265608E+00
(PID.TID 0000.0001) %MON thSI_Tic2_min_S              =  -8.7485368035172E+00
(PID.TID 0000.0001) %MON thSI_Tic2_min_N              =  -7.4594173060855E+00
(PID.TID 0000.0001) %MON thSI_Tic2_max_S              =  -1.1905054734432E+00
(PID.TID 0000.0001) %MON thSI_Tic2_max_N              =  -1.1847736593441E+00
(PID.TID 0000.0001) %MON thSI_TotEnerg_G              =  -3.8083630932856E+22
(PID.TID 0000.0001) // =======================================================
(PID.TID 0000.0001) // End MONITOR Therm.SeaIce statistics
(PID.TID 0000.0001) // =======================================================
 Computing Diagnostic #     23  ETAN         Counter:       1   Parms: SM      M1      
 Compute Stats, Diag. #     23  ETAN      vol(   0 ): 3.639E+14  Parms: SM      M1      
 Compute Stats, Diag. #     26  THETA     vol(   0 ): 1.340E+18  Parms: SMR     MR      
 Compute Stats, Diag. #     27  SALT      vol(   0 ): 1.340E+18  Parms: SMR     MR      
 BULKF_FIELDS_LOAD,     36002 : iP,iLd,i0,i1=   12    1   12    1 ; Wght=  0.4333333333  0.5666666667
 EXTERNAL_FIELDS_LOAD,     36002 : iP,iLd,i0,i1=   12    1   12    1 ; Wght=  0.4333333333  0.5666666667
 cg2d: Sum(rhs),rhsMax =   3.91306442567235E+02  2.29298959832850E+02
(PID.TID 0000.0001)      cg2d_init_res =   6.05879331101452E+00
(PID.TID 0000.0001)      cg2d_iters(min,last) =      -1      69
(PID.TID 0000.0001)      cg2d_last_res =   5.32387093696273E-07
(PID.TID 0000.0001) // =======================================================
(PID.TID 0000.0001) // Begin MONITOR dynamic field statistics
(PID.TID 0000.0001) // =======================================================
(PID.TID 0000.0001) %MON time_tsnumber                =                 36003
(PID.TID 0000.0001) %MON time_secondsf                =   3.1106592000000E+09
(PID.TID 0000.0001) %MON dynstat_eta_max              =   7.3125099508123E-01
(PID.TID 0000.0001) %MON dynstat_eta_min              =  -1.1983413371154E+01
(PID.TID 0000.0001) %MON dynstat_eta_mean             =  -5.8200691031948E-01
(PID.TID 0000.0001) %MON dynstat_eta_sd               =   1.7027113436529E+00
(PID.TID 0000.0001) %MON dynstat_eta_del2             =   2.1151934201770E-02
(PID.TID 0000.0001) %MON dynstat_uvel_max             =   1.7367409159501E-01
(PID.TID 0000.0001) %MON dynstat_uvel_min             =  -2.7054634538813E-01
(PID.TID 0000.0001) %MON dynstat_uvel_mean            =  -5.2790795872268E-04
(PID.TID 0000.0001) %MON dynstat_uvel_sd              =   1.2987925943784E-02
(PID.TID 0000.0001) %MON dynstat_uvel_del2            =   5.8788653692829E-05
(PID.TID 0000.0001) %MON dynstat_vvel_max             =   1.9436030624194E-01
(PID.TID 0000.0001) %MON dynstat_vvel_min             =  -2.1088459586779E-01
(PID.TID 0000.0001) %MON dynstat_vvel_mean            =  -4.2437401480452E-04
(PID.TID 0000.0001) %MON dynstat_vvel_sd              =   1.3478629061629E-02
(PID.TID 0000.0001) %MON dynstat_vvel_del2            =   5.6284503118135E-05
(PID.TID 0000.0001) %MON dynstat_wvel_max             =   8.3856499631023E-05
(PID.TID 0000.0001) %MON dynstat_wvel_min             =  -1.7771661381012E-04
(PID.TID 0000.0001) %MON dynstat_wvel_mean            =  -6.4586530652340E-10
(PID.TID 0000.0001) %MON dynstat_wvel_sd              =   4.6253634717718E-06
(PID.TID 0000.0001) %MON dynstat_wvel_del2            =   4.0334276866351E-08
(PID.TID 0000.0001) %MON dynstat_theta_max            =   3.0104717139919E+01
(PID.TID 0000.0001) %MON dynstat_theta_min            =  -3.3518901824583E+00
(PID.TID 0000.0001) %MON dynstat_theta_mean           =   3.5029533054110E+00
(PID.TID 0000.0001) %MON dynstat_theta_sd             =   4.7490564736513E+00
(PID.TID 0000.0001) %MON dynstat_theta_del2           =   2.9416598805375E-03
(PID.TID 0000.0001) %MON dynstat_salt_max             =   4.0822995831427E+01
(PID.TID 0000.0001) %MON dynstat_salt_min             =   1.8032025242092E+01
(PID.TID 0000.0001) %MON dynstat_salt_mean            =   3.4756107659955E+01
(PID.TID 0000.0001) %MON dynstat_salt_sd              =   5.1186958167780E-01
(PID.TID 0000.0001) %MON dynstat_salt_del2            =   8.3919152973025E-04
(PID.TID 0000.0001) %MON forcing_qnet_max             =   7.8157100915397E+02
(PID.TID 0000.0001) %MON forcing_qnet_min             =  -3.0899265051593E+03
(PID.TID 0000.0001) %MON forcing_qnet_mean            =  -5.9486121466375E+00
(PID.TID 0000.0001) %MON forcing_qnet_sd              =   1.3220616029796E+02
(PID.TID 0000.0001) %MON forcing_qnet_del2            =   2.1651953354234E+00
(PID.TID 0000.0001) %MON forcing_qsw_max              =  -0.0000000000000E+00
(PID.TID 0000.0001) %MON forcing_qsw_min              =  -3.4154853589728E+02
(PID.TID 0000.0001) %MON forcing_qsw_mean             =  -1.8648590905059E+02
(PID.TID 0000.0001) %MON forcing_qsw_sd               =   8.0655748367602E+01
(PID.TID 0000.0001) %MON forcing_qsw_del2             =   6.9722792062721E-01
(PID.TID 0000.0001) %MON forcing_empmr_max            =   9.1468874465983E-03
(PID.TID 0000.0001) %MON forcing_empmr_min            =  -3.9320359223547E-04
(PID.TID 0000.0001) %MON forcing_empmr_mean           =   3.1095889175903E-06
(PID.TID 0000.0001) %MON forcing_empmr_sd             =   1.6474618334573E-04
(PID.TID 0000.0001) %MON forcing_empmr_del2           =   5.2074218848128E-06
(PID.TID 0000.0001) %MON forcing_fu_max               =   2.4751003717351E-01
(PID.TID 0000.0001) %MON forcing_fu_min               =  -2.0922350306190E-01
(PID.TID 0000.0001) %MON forcing_fu_mean              =  -4.4609227933959E-03
(PID.TID 0000.0001) %MON forcing_fu_sd                =   6.3970406478471E-02
(PID.TID 0000.0001) %MON forcing_fu_del2              =   2.0564087338622E-04
(PID.TID 0000.0001) %MON forcing_fv_max               =   2.5817746358114E-01
(PID.TID 0000.0001) %MON forcing_fv_min               =  -3.2849573188785E-01
(PID.TID 0000.0001) %MON forcing_fv_mean              =  -1.3692352610712E-02
(PID.TID 0000.0001) %MON forcing_fv_sd                =   7.5242720295677E-02
(PID.TID 0000.0001) %MON forcing_fv_del2              =   2.3430754301775E-04
(PID.TID 0000.0001) %MON trAdv_CFL_u_max              =   7.6303078554190E-02
(PID.TID 0000.0001) %MON trAdv_CFL_v_max              =   9.0130737629248E-02
(PID.TID 0000.0001) %MON trAdv_CFL_w_max              =   6.4009880336915E-02
(PID.TID 0000.0001) %MON advcfl_uvel_max              =   7.6732075460887E-02
(PID.TID 0000.0001) %MON advcfl_vvel_max              =   8.4718919301239E-02
(PID.TID 0000.0001) %MON advcfl_wvel_max              =   5.7942322389414E-02
(PID.TID 0000.0001) %MON advcfl_W_hf_max              =   6.4980978187409E-02
(PID.TID 0000.0001) %MON pe_b_mean                    =  -1.9300229491612E-03
(PID.TID 0000.0001) %MON ke_max                       =   3.6619338894063E-02
(PID.TID 0000.0001) %MON ke_mean                      =   1.6199297093823E-04
(PID.TID 0000.0001) %MON ke_vol                       =   1.3395907552258E+18
(PID.TID 0000.0001) %MON vort_r_min                   =  -1.2207839774114E-06
(PID.TID 0000.0001) %MON vort_r_max                   =   1.3733234428346E-06
(PID.TID 0000.0001) %MON vort_a_mean                  =  -2.0549865324846E-05
(PID.TID 0000.0001) %MON vort_a_sd                    =   7.5259582968203E-05
(PID.TID 0000.0001) %MON vort_p_mean                  =  -2.4787196249089E-05
(PID.TID 0000.0001) %MON vort_p_sd                    =   1.2817294235734E-04
(PID.TID 0000.0001) %MON surfExpan_theta_mean         =   7.0386083403640E-08
(PID.TID 0000.0001) %MON surfExpan_salt_mean          =   1.4811511592950E-08
(PID.TID 0000.0001) // =======================================================
(PID.TID 0000.0001) // End MONITOR dynamic field statistics
(PID.TID 0000.0001) // =======================================================
(PID.TID 0000.0001) // =======================================================
(PID.TID 0000.0001) // Begin MONITOR Therm.SeaIce statistics
(PID.TID 0000.0001) // =======================================================
(PID.TID 0000.0001) %MON thSI_time_sec                =   3.1106592000000E+09
(PID.TID 0000.0001) %MON thSI_Ice_Area_G              =   2.4763711841380E+13
(PID.TID 0000.0001) %MON thSI_Ice_Area_S              =   1.1938341698035E+13
(PID.TID 0000.0001) %MON thSI_Ice_Area_N              =   1.2825370143346E+13
(PID.TID 0000.0001) %MON thSI_IceH_ave_G              =   4.5857500535626E+00
(PID.TID 0000.0001) %MON thSI_IceH_ave_S              =   5.7260539683759E+00
(PID.TID 0000.0001) %MON thSI_IceH_ave_N              =   3.5243118554838E+00
(PID.TID 0000.0001) %MON thSI_IceH_max_S              =   1.0000000000000E+01
(PID.TID 0000.0001) %MON thSI_IceH_max_N              =   1.0000000000000E+01
(PID.TID 0000.0001) %MON thSI_SnwH_ave_G              =   1.0481640605875E+00
(PID.TID 0000.0001) %MON thSI_SnwH_ave_S              =   1.7937021632008E+00
(PID.TID 0000.0001) %MON thSI_SnwH_ave_N              =   3.5418887558911E-01
(PID.TID 0000.0001) %MON thSI_SnwH_max_S              =   4.0939886671374E+00
(PID.TID 0000.0001) %MON thSI_SnwH_max_N              =   4.1023287836990E+00
(PID.TID 0000.0001) %MON thSI_Tsrf_ave_G              =  -1.6948700264437E+01
(PID.TID 0000.0001) %MON thSI_Tsrf_ave_S              =  -1.0911650820802E-01
(PID.TID 0000.0001) %MON thSI_Tsrf_ave_N              =  -3.2623624472285E+01
(PID.TID 0000.0001) %MON thSI_Tsrf_min_S              =  -5.3370576572133E+00
(PID.TID 0000.0001) %MON thSI_Tsrf_min_N              =  -4.6469445803443E+01
(PID.TID 0000.0001) %MON thSI_Tsrf_max_S              =   0.0000000000000E+00
(PID.TID 0000.0001) %MON thSI_Tsrf_max_N              =  -1.8310283914060E+00
(PID.TID 0000.0001) %MON thSI_Tic1_ave_G              =  -8.3963073463026E+00
(PID.TID 0000.0001) %MON thSI_Tic1_ave_S              =  -5.1158340733609E+00
(PID.TID 0000.0001) %MON thSI_Tic1_ave_N              =  -1.3357564146255E+01
(PID.TID 0000.0001) %MON thSI_Tic1_min_S              =  -1.6541939746611E+01
(PID.TID 0000.0001) %MON thSI_Tic1_min_N              =  -2.0804073002466E+01
(PID.TID 0000.0001) %MON thSI_Tic1_max_S              =  -2.2966489201503E-01
(PID.TID 0000.0001) %MON thSI_Tic1_max_N              =  -6.5768702896769E-01
(PID.TID 0000.0001) %MON thSI_Tic2_ave_G              =  -3.7898206775473E+00
(PID.TID 0000.0001) %MON thSI_Tic2_ave_S              =  -3.0964921444281E+00
(PID.TID 0000.0001) %MON thSI_Tic2_ave_N              =  -4.8383830688066E+00
(PID.TID 0000.0001) %MON thSI_Tic2_min_S              =  -8.7237674426095E+00
(PID.TID 0000.0001) %MON thSI_Tic2_min_N              =  -7.4973446114219E+00
(PID.TID 0000.0001) %MON thSI_Tic2_max_S              =  -1.1903015144854E+00
(PID.TID 0000.0001) %MON thSI_Tic2_max_N              =  -1.1960827283333E+00
(PID.TID 0000.0001) %MON thSI_TotEnerg_G              =  -3.8112828290080E+22
(PID.TID 0000.0001) // =======================================================
(PID.TID 0000.0001) // End MONITOR Therm.SeaIce statistics
(PID.TID 0000.0001) // =======================================================
 BULKF_FIELDS_LOAD,     36003 : iP,iLd,i0,i1=   12    1   12    1 ; Wght=  0.4000000000  0.6000000000
 EXTERNAL_FIELDS_LOAD,     36003 : iP,iLd,i0,i1=   12    1   12    1 ; Wght=  0.4000000000  0.6000000000
 cg2d: Sum(rhs),rhsMax =   3.91399699449526E+02  2.29352917558188E+02
(PID.TID 0000.0001)      cg2d_init_res =   4.24482056520540E+00
(PID.TID 0000.0001)      cg2d_iters(min,last) =      -1      68
(PID.TID 0000.0001)      cg2d_last_res =   5.47699676680846E-07
(PID.TID 0000.0001) // =======================================================
(PID.TID 0000.0001) // Begin MONITOR dynamic field statistics
(PID.TID 0000.0001) // =======================================================
(PID.TID 0000.0001) %MON time_tsnumber                =                 36004
(PID.TID 0000.0001) %MON time_secondsf                =   3.1107456000000E+09
(PID.TID 0000.0001) %MON dynstat_eta_max              =   7.3005570427185E-01
(PID.TID 0000.0001) %MON dynstat_eta_min              =  -1.1981543271651E+01
(PID.TID 0000.0001) %MON dynstat_eta_mean             =  -5.8214561529344E-01
(PID.TID 0000.0001) %MON dynstat_eta_sd               =   1.7027220364251E+00
(PID.TID 0000.0001) %MON dynstat_eta_del2             =   2.1196828002167E-02
(PID.TID 0000.0001) %MON dynstat_uvel_max             =   1.7398445891253E-01
(PID.TID 0000.0001) %MON dynstat_uvel_min             =  -2.7019625911424E-01
(PID.TID 0000.0001) %MON dynstat_uvel_mean            =  -5.2732805455663E-04
(PID.TID 0000.0001) %MON dynstat_uvel_sd              =   1.2986496500474E-02
(PID.TID 0000.0001) %MON dynstat_uvel_del2            =   5.8765285771006E-05
(PID.TID 0000.0001) %MON dynstat_vvel_max             =   1.9466013519677E-01
(PID.TID 0000.0001) %MON dynstat_vvel_min             =  -2.1097936421296E-01
(PID.TID 0000.0001) %MON dynstat_vvel_mean            =  -4.2416389614943E-04
(PID.TID 0000.0001) %MON dynstat_vvel_sd              =   1.3479976689573E-02
(PID.TID 0000.0001) %MON dynstat_vvel_del2            =   5.6242134640458E-05
(PID.TID 0000.0001) %MON dynstat_wvel_max             =   8.3911840409849E-05
(PID.TID 0000.0001) %MON dynstat_wvel_min             =  -1.7794545948149E-04
(PID.TID 0000.0001) %MON dynstat_wvel_mean            =  -8.6068704426276E-10
(PID.TID 0000.0001) %MON dynstat_wvel_sd              =   4.6244211198243E-06
(PID.TID 0000.0001) %MON dynstat_wvel_del2            =   4.0332913700277E-08
(PID.TID 0000.0001) %MON dynstat_theta_max            =   3.0084413519911E+01
(PID.TID 0000.0001) %MON dynstat_theta_min            =  -3.3484361026790E+00
(PID.TID 0000.0001) %MON dynstat_theta_mean           =   3.5030174998778E+00
(PID.TID 0000.0001) %MON dynstat_theta_sd             =   4.7491143592253E+00
(PID.TID 0000.0001) %MON dynstat_theta_del2           =   2.9440133124809E-03
(PID.TID 0000.0001) %MON dynstat_salt_max             =   4.0825219432041E+01
(PID.TID 0000.0001) %MON dynstat_salt_min             =   1.8032613345077E+01
(PID.TID 0000.0001) %MON dynstat_salt_mean            =   3.4756109580237E+01
(PID.TID 0000.0001) %MON dynstat_salt_sd              =   5.1185921177111E-01
(PID.TID 0000.0001) %MON dynstat_salt_del2            =   8.3935568953910E-04
(PID.TID 0000.0001) %MON forcing_qnet_max             =   7.8344395493440E+02
(PID.TID 0000.0001) %MON forcing_qnet_min             =  -1.7555180099926E+03
(PID.TID 0000.0001) %MON forcing_qnet_mean            =  -5.6789214118189E+00
(PID.TID 0000.0001) %MON forcing_qnet_sd              =   1.2476647374079E+02
(PID.TID 0000.0001) %MON forcing_qnet_del2            =   1.6429829908325E+00
(PID.TID 0000.0001) %MON forcing_qsw_max              =  -0.0000000000000E+00
(PID.TID 0000.0001) %MON forcing_qsw_min              =  -3.4134449325008E+02
(PID.TID 0000.0001) %MON forcing_qsw_mean             =  -1.8650863956706E+02
(PID.TID 0000.0001) %MON forcing_qsw_sd               =   8.0514168217718E+01
(PID.TID 0000.0001) %MON forcing_qsw_del2             =   6.9648830132373E-01
(PID.TID 0000.0001) %MON forcing_empmr_max            =   5.1962653758680E-03
(PID.TID 0000.0001) %MON forcing_empmr_min            =  -3.8541003828508E-04
(PID.TID 0000.0001) %MON forcing_empmr_mean           =   1.6615700005966E-06
(PID.TID 0000.0001) %MON forcing_empmr_sd             =   1.0272097100848E-04
(PID.TID 0000.0001) %MON forcing_empmr_del2           =   3.0744395604021E-06
(PID.TID 0000.0001) %MON forcing_fu_max               =   2.4746198790331E-01
(PID.TID 0000.0001) %MON forcing_fu_min               =  -2.1236929972025E-01
(PID.TID 0000.0001) %MON forcing_fu_mean              =  -4.4174438576624E-03
(PID.TID 0000.0001) %MON forcing_fu_sd                =   6.4007100989353E-02
(PID.TID 0000.0001) %MON forcing_fu_del2              =   2.0627372714610E-04
(PID.TID 0000.0001) %MON forcing_fv_max               =   2.6086070515377E-01
(PID.TID 0000.0001) %MON forcing_fv_min               =  -3.2928363582178E-01
(PID.TID 0000.0001) %MON forcing_fv_mean              =  -1.3696278156640E-02
(PID.TID 0000.0001) %MON forcing_fv_sd                =   7.5302823094907E-02
(PID.TID 0000.0001) %MON forcing_fv_del2              =   2.3489534074143E-04
(PID.TID 0000.0001) %MON trAdv_CFL_u_max              =   7.6204342289759E-02
(PID.TID 0000.0001) %MON trAdv_CFL_v_max              =   9.0269679349739E-02
(PID.TID 0000.0001) %MON trAdv_CFL_w_max              =   6.4092320833706E-02
(PID.TID 0000.0001) %MON advcfl_uvel_max              =   7.6632784352935E-02
(PID.TID 0000.0001) %MON advcfl_vvel_max              =   8.4849610518592E-02
(PID.TID 0000.0001) %MON advcfl_wvel_max              =   5.8016934713964E-02
(PID.TID 0000.0001) %MON advcfl_W_hf_max              =   6.4597907580965E-02
(PID.TID 0000.0001) %MON pe_b_mean                    =  -1.9314075182830E-03
(PID.TID 0000.0001) %MON ke_max                       =   3.6507421384365E-02
(PID.TID 0000.0001) %MON ke_mean                      =   1.6199241257551E-04
(PID.TID 0000.0001) %MON ke_vol                       =   1.3395906607670E+18
(PID.TID 0000.0001) %MON vort_r_min                   =  -1.2248077243196E-06
(PID.TID 0000.0001) %MON vort_r_max                   =   1.3763253055447E-06
(PID.TID 0000.0001) %MON vort_a_mean                  =  -2.0549865324846E-05
(PID.TID 0000.0001) %MON vort_a_sd                    =   7.5259582844431E-05
(PID.TID 0000.0001) %MON vort_p_mean                  =  -2.4787197131631E-05
(PID.TID 0000.0001) %MON vort_p_sd                    =   1.2817297529408E-04
(PID.TID 0000.0001) %MON surfExpan_theta_mean         =   7.5089758383116E-08
(PID.TID 0000.0001) %MON surfExpan_salt_mean          =   1.6695310903784E-08
(PID.TID 0000.0001) // =======================================================
(PID.TID 0000.0001) // End MONITOR dynamic field statistics
(PID.TID 0000.0001) // =======================================================
(PID.TID 0000.0001) // =======================================================
(PID.TID 0000.0001) // Begin MONITOR Therm.SeaIce statistics
(PID.TID 0000.0001) // =======================================================
(PID.TID 0000.0001) %MON thSI_time_sec                =   3.1107456000000E+09
(PID.TID 0000.0001) %MON thSI_Ice_Area_G              =   2.4781212184898E+13
(PID.TID 0000.0001) %MON thSI_Ice_Area_S              =   1.1893662734144E+13
(PID.TID 0000.0001) %MON thSI_Ice_Area_N              =   1.2887549450754E+13
(PID.TID 0000.0001) %MON thSI_IceH_ave_G              =   4.5854422255176E+00
(PID.TID 0000.0001) %MON thSI_IceH_ave_S              =   5.7406892193543E+00
(PID.TID 0000.0001) %MON thSI_IceH_ave_N              =   3.5192877815072E+00
(PID.TID 0000.0001) %MON thSI_IceH_max_S              =   1.0000000000000E+01
(PID.TID 0000.0001) %MON thSI_IceH_max_N              =   1.0000000000000E+01
(PID.TID 0000.0001) %MON thSI_SnwH_ave_G              =   1.0430867667790E+00
(PID.TID 0000.0001) %MON thSI_SnwH_ave_S              =   1.7882918783825E+00
(PID.TID 0000.0001) %MON thSI_SnwH_ave_N              =   3.5535180994799E-01
(PID.TID 0000.0001) %MON thSI_SnwH_max_S              =   4.0939946854331E+00
(PID.TID 0000.0001) %MON thSI_SnwH_max_N              =   4.1021818844315E+00
(PID.TID 0000.0001) %MON thSI_Tsrf_ave_G              =  -1.7035508796396E+01
(PID.TID 0000.0001) %MON thSI_Tsrf_ave_S              =  -1.2969658711648E-01
(PID.TID 0000.0001) %MON thSI_Tsrf_ave_N              =  -3.2637546207176E+01
(PID.TID 0000.0001) %MON thSI_Tsrf_min_S              =  -5.3533619611947E+00
(PID.TID 0000.0001) %MON thSI_Tsrf_min_N              =  -4.6583877690420E+01
(PID.TID 0000.0001) %MON thSI_Tsrf_max_S              =   0.0000000000000E+00
(PID.TID 0000.0001) %MON thSI_Tsrf_max_N              =  -5.7999332652774E+00
(PID.TID 0000.0001) %MON thSI_Tic1_ave_G              =  -8.4161537804759E+00
(PID.TID 0000.0001) %MON thSI_Tic1_ave_S              =  -5.0890571074700E+00
(PID.TID 0000.0001) %MON thSI_Tic1_ave_N              =  -1.3424795297487E+01
(PID.TID 0000.0001) %MON thSI_Tic1_min_S              =  -1.6056754945563E+01
(PID.TID 0000.0001) %MON thSI_Tic1_min_N              =  -2.0878819431908E+01
(PID.TID 0000.0001) %MON thSI_Tic1_max_S              =  -2.1348011875062E-01
(PID.TID 0000.0001) %MON thSI_Tic1_max_N              =  -6.7286382740888E-01
(PID.TID 0000.0001) %MON thSI_Tic2_ave_G              =  -3.8013073693924E+00
(PID.TID 0000.0001) %MON thSI_Tic2_ave_S              =  -3.0927038659492E+00
(PID.TID 0000.0001) %MON thSI_Tic2_ave_N              =  -4.8680455123627E+00
(PID.TID 0000.0001) %MON thSI_Tic2_min_S              =  -8.6974973382431E+00
(PID.TID 0000.0001) %MON thSI_Tic2_min_N              =  -7.5341002575066E+00
(PID.TID 0000.0001) %MON thSI_Tic2_max_S              =  -1.1883317760459E+00
(PID.TID 0000.0001) %MON thSI_Tic2_max_N              =  -1.2097997442653E+00
(PID.TID 0000.0001) %MON thSI_TotEnerg_G              =  -3.8126515944465E+22
(PID.TID 0000.0001) // =======================================================
(PID.TID 0000.0001) // End MONITOR Therm.SeaIce statistics
(PID.TID 0000.0001) // =======================================================
 BULKF_FIELDS_LOAD,     36004 : iP,iLd,i0,i1=   12    1   12    1 ; Wght=  0.3666666667  0.6333333333
 EXTERNAL_FIELDS_LOAD,     36004 : iP,iLd,i0,i1=   12    1   12    1 ; Wght=  0.3666666667  0.6333333333
 cg2d: Sum(rhs),rhsMax =   3.91464639601457E+02  2.29415626793781E+02
(PID.TID 0000.0001)      cg2d_init_res =   3.32100668910055E+00
(PID.TID 0000.0001)      cg2d_iters(min,last) =      -1      67
(PID.TID 0000.0001)      cg2d_last_res =   5.66705929525782E-07
(PID.TID 0000.0001) // =======================================================
(PID.TID 0000.0001) // Begin MONITOR dynamic field statistics
(PID.TID 0000.0001) // =======================================================
(PID.TID 0000.0001) %MON time_tsnumber                =                 36005
(PID.TID 0000.0001) %MON time_secondsf                =   3.1108320000000E+09
(PID.TID 0000.0001) %MON dynstat_eta_max              =   7.2889316216841E-01
(PID.TID 0000.0001) %MON dynstat_eta_min              =  -1.1979599812206E+01
(PID.TID 0000.0001) %MON dynstat_eta_mean             =  -5.8224220357584E-01
(PID.TID 0000.0001) %MON dynstat_eta_sd               =   1.7024572894524E+00
(PID.TID 0000.0001) %MON dynstat_eta_del2             =   2.1226412436039E-02
(PID.TID 0000.0001) %MON dynstat_uvel_max             =   1.7422877912857E-01
(PID.TID 0000.0001) %MON dynstat_uvel_min             =  -2.6983450032965E-01
(PID.TID 0000.0001) %MON dynstat_uvel_mean            =  -5.2672516445719E-04
(PID.TID 0000.0001) %MON dynstat_uvel_sd              =   1.2984810091051E-02
(PID.TID 0000.0001) %MON dynstat_uvel_del2            =   5.8740690323505E-05
(PID.TID 0000.0001) %MON dynstat_vvel_max             =   1.9489598386043E-01
(PID.TID 0000.0001) %MON dynstat_vvel_min             =  -2.1106672735985E-01
(PID.TID 0000.0001) %MON dynstat_vvel_mean            =  -4.2381929930598E-04
(PID.TID 0000.0001) %MON dynstat_vvel_sd              =   1.3481067565093E-02
(PID.TID 0000.0001) %MON dynstat_vvel_del2            =   5.6201031658042E-05
(PID.TID 0000.0001) %MON dynstat_wvel_max             =   8.4615826667694E-05
(PID.TID 0000.0001) %MON dynstat_wvel_min             =  -1.7811135215923E-04
(PID.TID 0000.0001) %MON dynstat_wvel_mean            =  -9.8332608981663E-10
(PID.TID 0000.0001) %MON dynstat_wvel_sd              =   4.6236971842420E-06
(PID.TID 0000.0001) %MON dynstat_wvel_del2            =   4.0334504964121E-08
(PID.TID 0000.0001) %MON dynstat_theta_max            =   3.0063783350706E+01
(PID.TID 0000.0001) %MON dynstat_theta_min            =  -3.3449485885977E+00
(PID.TID 0000.0001) %MON dynstat_theta_mean           =   3.5030821884253E+00
(PID.TID 0000.0001) %MON dynstat_theta_sd             =   4.7491821872012E+00
(PID.TID 0000.0001) %MON dynstat_theta_del2           =   2.9459820084859E-03
(PID.TID 0000.0001) %MON dynstat_salt_max             =   4.0827296482067E+01
(PID.TID 0000.0001) %MON dynstat_salt_min             =   1.8033189944649E+01
(PID.TID 0000.0001) %MON dynstat_salt_mean            =   3.4756111155684E+01
(PID.TID 0000.0001) %MON dynstat_salt_sd              =   5.1184894440053E-01
(PID.TID 0000.0001) %MON dynstat_salt_del2            =   8.3892499008227E-04
(PID.TID 0000.0001) %MON forcing_qnet_max             =   7.8364399482990E+02
(PID.TID 0000.0001) %MON forcing_qnet_min             =  -1.0231690805851E+03
(PID.TID 0000.0001) %MON forcing_qnet_mean            =  -5.6996693791982E+00
(PID.TID 0000.0001) %MON forcing_qnet_sd              =   1.2201000301467E+02
(PID.TID 0000.0001) %MON forcing_qnet_del2            =   1.4284890535597E+00
(PID.TID 0000.0001) %MON forcing_qsw_max              =  -0.0000000000000E+00
(PID.TID 0000.0001) %MON forcing_qsw_min              =  -3.4114045060289E+02
(PID.TID 0000.0001) %MON forcing_qsw_mean             =  -1.8652562763912E+02
(PID.TID 0000.0001) %MON forcing_qsw_sd               =   8.0373064736183E+01
(PID.TID 0000.0001) %MON forcing_qsw_del2             =   6.9484549738069E-01
(PID.TID 0000.0001) %MON forcing_empmr_max            =   3.0282746454503E-03
(PID.TID 0000.0001) %MON forcing_empmr_min            =  -3.7600116427152E-04
(PID.TID 0000.0001) %MON forcing_empmr_mean           =   1.1570471329776E-06
(PID.TID 0000.0001) %MON forcing_empmr_sd             =   7.5100310217082E-05
(PID.TID 0000.0001) %MON forcing_empmr_del2           =   2.0740682195572E-06
(PID.TID 0000.0001) %MON forcing_fu_max               =   2.4741393863310E-01
(PID.TID 0000.0001) %MON forcing_fu_min               =  -2.1551509637860E-01
(PID.TID 0000.0001) %MON forcing_fu_mean              =  -4.3739649219290E-03
(PID.TID 0000.0001) %MON forcing_fu_sd                =   6.4057227278753E-02
(PID.TID 0000.0001) %MON forcing_fu_del2              =   2.0714462929353E-04
(PID.TID 0000.0001) %MON forcing_fv_max               =   2.6354394672640E-01
(PID.TID 0000.0001) %MON forcing_fv_min               =  -3.3007153975572E-01
(PID.TID 0000.0001) %MON forcing_fv_mean              =  -1.3700203702567E-02
(PID.TID 0000.0001) %MON forcing_fv_sd                =   7.5373226864996E-02
(PID.TID 0000.0001) %MON forcing_fv_del2              =   2.3568352349763E-04
(PID.TID 0000.0001) %MON trAdv_CFL_u_max              =   7.6102314013689E-02
(PID.TID 0000.0001) %MON trAdv_CFL_v_max              =   9.0378954553607E-02
(PID.TID 0000.0001) %MON trAdv_CFL_w_max              =   6.4152098865974E-02
(PID.TID 0000.0001) %MON advcfl_uvel_max              =   7.6530182699537E-02
(PID.TID 0000.0001) %MON advcfl_vvel_max              =   8.4952413628396E-02
(PID.TID 0000.0001) %MON advcfl_wvel_max              =   5.8071021987008E-02
(PID.TID 0000.0001) %MON advcfl_W_hf_max              =   6.4180576519640E-02
(PID.TID 0000.0001) %MON pe_b_mean                    =  -1.9317667762448E-03
(PID.TID 0000.0001) %MON ke_max                       =   3.6392872810942E-02
(PID.TID 0000.0001) %MON ke_mean                      =   1.6198551761443E-04
(PID.TID 0000.0001) %MON ke_vol                       =   1.3395906102941E+18
(PID.TID 0000.0001) %MON vort_r_min                   =  -1.2290677953444E-06
(PID.TID 0000.0001) %MON vort_r_max                   =   1.3795075762581E-06
(PID.TID 0000.0001) %MON vort_a_mean                  =  -2.0549865324846E-05
(PID.TID 0000.0001) %MON vort_a_sd                    =   7.5259582739862E-05
(PID.TID 0000.0001) %MON vort_p_mean                  =  -2.4787197416828E-05
(PID.TID 0000.0001) %MON vort_p_sd                    =   1.2817299320588E-04
(PID.TID 0000.0001) %MON surfExpan_theta_mean         =   7.7316422377512E-08
(PID.TID 0000.0001) %MON surfExpan_salt_mean          =   1.7651389293004E-08
(PID.TID 0000.0001) // =======================================================
(PID.TID 0000.0001) // End MONITOR dynamic field statistics
(PID.TID 0000.0001) // =======================================================
(PID.TID 0000.0001) // =======================================================
(PID.TID 0000.0001) // Begin MONITOR Therm.SeaIce statistics
(PID.TID 0000.0001) // =======================================================
(PID.TID 0000.0001) %MON thSI_time_sec                =   3.1108320000000E+09
(PID.TID 0000.0001) %MON thSI_Ice_Area_G              =   2.4859218745448E+13
(PID.TID 0000.0001) %MON thSI_Ice_Area_S              =   1.1854624304236E+13
(PID.TID 0000.0001) %MON thSI_Ice_Area_N              =   1.3004594441211E+13
(PID.TID 0000.0001) %MON thSI_IceH_ave_G              =   4.5732938227866E+00
(PID.TID 0000.0001) %MON thSI_IceH_ave_S              =   5.7528418624001E+00
(PID.TID 0000.0001) %MON thSI_IceH_ave_N              =   3.4980508444970E+00
(PID.TID 0000.0001) %MON thSI_IceH_max_S              =   1.0000000000000E+01
(PID.TID 0000.0001) %MON thSI_IceH_max_N              =   1.0000000000000E+01
(PID.TID 0000.0001) %MON thSI_SnwH_ave_G              =   1.0355518442666E+00
(PID.TID 0000.0001) %MON thSI_SnwH_ave_S              =   1.7820857800232E+00
(PID.TID 0000.0001) %MON thSI_SnwH_ave_N              =   3.5503240332859E-01
(PID.TID 0000.0001) %MON thSI_SnwH_max_S              =   4.0938712621771E+00
(PID.TID 0000.0001) %MON thSI_SnwH_max_N              =   4.1023368313135E+00
(PID.TID 0000.0001) %MON thSI_Tsrf_ave_G              =  -1.7061780996759E+01
(PID.TID 0000.0001) %MON thSI_Tsrf_ave_S              =  -1.1189328401257E-01
(PID.TID 0000.0001) %MON thSI_Tsrf_ave_N              =  -3.2512824221670E+01
(PID.TID 0000.0001) %MON thSI_Tsrf_min_S              =  -5.3696273356650E+00
(PID.TID 0000.0001) %MON thSI_Tsrf_min_N              =  -4.6698372886417E+01
(PID.TID 0000.0001) %MON thSI_Tsrf_max_S              =   0.0000000000000E+00
(PID.TID 0000.0001) %MON thSI_Tsrf_max_N              =  -1.6927899966567E+00
(PID.TID 0000.0001) %MON thSI_Tic1_ave_G              =  -8.4392086676551E+00
(PID.TID 0000.0001) %MON thSI_Tic1_ave_S              =  -5.0679040004590E+00
(PID.TID 0000.0001) %MON thSI_Tic1_ave_N              =  -1.3493325792742E+01
(PID.TID 0000.0001) %MON thSI_Tic1_min_S              =  -1.5909889413080E+01
(PID.TID 0000.0001) %MON thSI_Tic1_min_N              =  -2.0951035740015E+01
(PID.TID 0000.0001) %MON thSI_Tic1_max_S              =  -2.0069592892801E-01
(PID.TID 0000.0001) %MON thSI_Tic1_max_N              =  -6.8868211283649E-01
(PID.TID 0000.0001) %MON thSI_Tic2_ave_G              =  -3.8125611319493E+00
(PID.TID 0000.0001) %MON thSI_Tic2_ave_S              =  -3.0888481070414E+00
(PID.TID 0000.0001) %MON thSI_Tic2_ave_N              =  -4.8975210373610E+00
(PID.TID 0000.0001) %MON thSI_Tic2_min_S              =  -8.6709856512459E+00
(PID.TID 0000.0001) %MON thSI_Tic2_min_N              =  -7.5697097573048E+00
(PID.TID 0000.0001) %MON thSI_Tic2_max_S              =  -1.1884072185942E+00
(PID.TID 0000.0001) %MON thSI_Tic2_max_N              =  -1.2242233825855E+00
(PID.TID 0000.0001) %MON thSI_TotEnerg_G              =  -3.8135380682502E+22
(PID.TID 0000.0001) // =======================================================
(PID.TID 0000.0001) // End MONITOR Therm.SeaIce statistics
(PID.TID 0000.0001) // =======================================================
 BULKF_FIELDS_LOAD,     36005 : iP,iLd,i0,i1=   12    1   12    1 ; Wght=  0.3333333333  0.6666666667
 EXTERNAL_FIELDS_LOAD,     36005 : iP,iLd,i0,i1=   12    1   12    1 ; Wght=  0.3333333333  0.6666666667
 cg2d: Sum(rhs),rhsMax =   3.91499349532974E+02  2.29486983475869E+02
(PID.TID 0000.0001)      cg2d_init_res =   2.92900726521472E+00
(PID.TID 0000.0001)      cg2d_iters(min,last) =      -1      67
(PID.TID 0000.0001)      cg2d_last_res =   5.58088595594362E-07
(PID.TID 0000.0001) // =======================================================
(PID.TID 0000.0001) // Begin MONITOR dynamic field statistics
(PID.TID 0000.0001) // =======================================================
(PID.TID 0000.0001) %MON time_tsnumber                =                 36006
(PID.TID 0000.0001) %MON time_secondsf                =   3.1109184000000E+09
(PID.TID 0000.0001) %MON dynstat_eta_max              =   7.2772957015276E-01
(PID.TID 0000.0001) %MON dynstat_eta_min              =  -1.1977585941059E+01
(PID.TID 0000.0001) %MON dynstat_eta_mean             =  -5.8229382915059E-01
(PID.TID 0000.0001) %MON dynstat_eta_sd               =   1.7020377926216E+00
(PID.TID 0000.0001) %MON dynstat_eta_del2             =   2.1247544527406E-02
(PID.TID 0000.0001) %MON dynstat_uvel_max             =   1.7440543955507E-01
(PID.TID 0000.0001) %MON dynstat_uvel_min             =  -2.6946103108172E-01
(PID.TID 0000.0001) %MON dynstat_uvel_mean            =  -5.2614813930588E-04
(PID.TID 0000.0001) %MON dynstat_uvel_sd              =   1.2982928018496E-02
(PID.TID 0000.0001) %MON dynstat_uvel_del2            =   5.8715683247060E-05
(PID.TID 0000.0001) %MON dynstat_vvel_max             =   1.9506809331092E-01
(PID.TID 0000.0001) %MON dynstat_vvel_min             =  -2.1114686136866E-01
(PID.TID 0000.0001) %MON dynstat_vvel_mean            =  -4.2332322063738E-04
(PID.TID 0000.0001) %MON dynstat_vvel_sd              =   1.3481852462266E-02
(PID.TID 0000.0001) %MON dynstat_vvel_del2            =   5.6161283829076E-05
(PID.TID 0000.0001) %MON dynstat_wvel_max             =   8.5350571885908E-05
(PID.TID 0000.0001) %MON dynstat_wvel_min             =  -1.7821813770971E-04
(PID.TID 0000.0001) %MON dynstat_wvel_mean            =  -1.0970571970463E-09
(PID.TID 0000.0001) %MON dynstat_wvel_sd              =   4.6231060756926E-06
(PID.TID 0000.0001) %MON dynstat_wvel_del2            =   4.0337372161461E-08
(PID.TID 0000.0001) %MON dynstat_theta_max            =   3.0042898346617E+01
(PID.TID 0000.0001) %MON dynstat_theta_min            =  -3.3414288716803E+00
(PID.TID 0000.0001) %MON dynstat_theta_mean           =   3.5031477113318E+00
(PID.TID 0000.0001) %MON dynstat_theta_sd             =   4.7492600869311E+00
(PID.TID 0000.0001) %MON dynstat_theta_del2           =   2.9487061491598E-03
(PID.TID 0000.0001) %MON dynstat_salt_max             =   4.0829230592038E+01
(PID.TID 0000.0001) %MON dynstat_salt_min             =   1.8033757031511E+01
(PID.TID 0000.0001) %MON dynstat_salt_mean            =   3.4756112400417E+01
(PID.TID 0000.0001) %MON dynstat_salt_sd              =   5.1183999842622E-01
(PID.TID 0000.0001) %MON dynstat_salt_del2            =   8.3893150248510E-04
(PID.TID 0000.0001) %MON forcing_qnet_max             =   7.8711940765318E+02
(PID.TID 0000.0001) %MON forcing_qnet_min             =  -6.0486516771131E+02
(PID.TID 0000.0001) %MON forcing_qnet_mean            =  -5.7671749647866E+00
(PID.TID 0000.0001) %MON forcing_qnet_sd              =   1.2106275301993E+02
(PID.TID 0000.0001) %MON forcing_qnet_del2            =   1.3657309562736E+00
(PID.TID 0000.0001) %MON forcing_qsw_max              =  -0.0000000000000E+00
(PID.TID 0000.0001) %MON forcing_qsw_min              =  -3.4093640795569E+02
(PID.TID 0000.0001) %MON forcing_qsw_mean             =  -1.8653699066280E+02
(PID.TID 0000.0001) %MON forcing_qsw_sd               =   8.0234994000143E+01
(PID.TID 0000.0001) %MON forcing_qsw_del2             =   6.9288988929268E-01
(PID.TID 0000.0001) %MON forcing_empmr_max            =   1.7900220717548E-03
(PID.TID 0000.0001) %MON forcing_empmr_min            =  -3.6484519877699E-04
(PID.TID 0000.0001) %MON forcing_empmr_mean           =   6.1843136414266E-07
(PID.TID 0000.0001) %MON forcing_empmr_sd             =   6.2706764077626E-05
(PID.TID 0000.0001) %MON forcing_empmr_del2           =   1.5667321345987E-06
(PID.TID 0000.0001) %MON forcing_fu_max               =   2.4736588936290E-01
(PID.TID 0000.0001) %MON forcing_fu_min               =  -2.1866089303695E-01
(PID.TID 0000.0001) %MON forcing_fu_mean              =  -4.3304859861956E-03
(PID.TID 0000.0001) %MON forcing_fu_sd                =   6.4120753845867E-02
(PID.TID 0000.0001) %MON forcing_fu_del2              =   2.0825059330114E-04
(PID.TID 0000.0001) %MON forcing_fv_max               =   2.6622718829904E-01
(PID.TID 0000.0001) %MON forcing_fv_min               =  -3.3085944368965E-01
(PID.TID 0000.0001) %MON forcing_fv_mean              =  -1.3704129248494E-02
(PID.TID 0000.0001) %MON forcing_fv_sd                =   7.5453902771370E-02
(PID.TID 0000.0001) %MON forcing_fv_del2              =   2.3667008926707E-04
(PID.TID 0000.0001) %MON trAdv_CFL_u_max              =   7.5996982981825E-02
(PID.TID 0000.0001) %MON trAdv_CFL_v_max              =   9.0458673753972E-02
(PID.TID 0000.0001) %MON trAdv_CFL_w_max              =   6.4190582996345E-02
(PID.TID 0000.0001) %MON advcfl_uvel_max              =   7.6424259736601E-02
(PID.TID 0000.0001) %MON advcfl_vvel_max              =   8.5027433713148E-02
(PID.TID 0000.0001) %MON advcfl_wvel_max              =   5.8105838106108E-02
(PID.TID 0000.0001) %MON advcfl_W_hf_max              =   6.4190582996345E-02
(PID.TID 0000.0001) %MON pe_b_mean                    =  -1.9315167492270E-03
(PID.TID 0000.0001) %MON ke_max                       =   3.6275760328501E-02
(PID.TID 0000.0001) %MON ke_mean                      =   1.6197241949680E-04
(PID.TID 0000.0001) %MON ke_vol                       =   1.3395905751469E+18
(PID.TID 0000.0001) %MON vort_r_min                   =  -1.2335388882651E-06
(PID.TID 0000.0001) %MON vort_r_max                   =   1.3828284800736E-06
(PID.TID 0000.0001) %MON vort_a_mean                  =  -2.0549865324846E-05
(PID.TID 0000.0001) %MON vort_a_sd                    =   7.5259582653641E-05
(PID.TID 0000.0001) %MON vort_p_mean                  =  -2.4787197542182E-05
(PID.TID 0000.0001) %MON vort_p_sd                    =   1.2817300399496E-04
(PID.TID 0000.0001) %MON surfExpan_theta_mean         =   7.8571292579103E-08
(PID.TID 0000.0001) %MON surfExpan_salt_mean          =   1.8272911601284E-08
(PID.TID 0000.0001) // =======================================================
(PID.TID 0000.0001) // End MONITOR dynamic field statistics
(PID.TID 0000.0001) // =======================================================
(PID.TID 0000.0001) // =======================================================
(PID.TID 0000.0001) // Begin MONITOR Therm.SeaIce statistics
(PID.TID 0000.0001) // =======================================================
(PID.TID 0000.0001) %MON thSI_time_sec                =   3.1109184000000E+09
(PID.TID 0000.0001) %MON thSI_Ice_Area_G              =   2.4886455496164E+13
(PID.TID 0000.0001) %MON thSI_Ice_Area_S              =   1.1812503017600E+13
(PID.TID 0000.0001) %MON thSI_Ice_Area_N              =   1.3073952478565E+13
(PID.TID 0000.0001) %MON thSI_IceH_ave_G              =   4.5698048809489E+00
(PID.TID 0000.0001) %MON thSI_IceH_ave_S              =   5.7665675832702E+00
(PID.TID 0000.0001) %MON thSI_IceH_ave_N              =   3.4885126660890E+00
(PID.TID 0000.0001) %MON thSI_IceH_max_S              =   1.0000000000000E+01
(PID.TID 0000.0001) %MON thSI_IceH_max_N              =   1.0000000000000E+01
(PID.TID 0000.0001) %MON thSI_SnwH_ave_G              =   1.0302370988540E+00
(PID.TID 0000.0001) %MON thSI_SnwH_ave_S              =   1.7764038860791E+00
(PID.TID 0000.0001) %MON thSI_SnwH_ave_N              =   3.5606473665665E-01
(PID.TID 0000.0001) %MON thSI_SnwH_max_S              =   4.0937747879961E+00
(PID.TID 0000.0001) %MON thSI_SnwH_max_N              =   4.1025402942603E+00
(PID.TID 0000.0001) %MON thSI_Tsrf_ave_G              =  -1.7163481636785E+01
(PID.TID 0000.0001) %MON thSI_Tsrf_ave_S              =  -1.3314523909614E-01
(PID.TID 0000.0001) %MON thSI_Tsrf_ave_N              =  -3.2550634100300E+01
(PID.TID 0000.0001) %MON thSI_Tsrf_min_S              =  -5.3858531482046E+00
(PID.TID 0000.0001) %MON thSI_Tsrf_min_N              =  -4.6813002555550E+01
(PID.TID 0000.0001) %MON thSI_Tsrf_max_S              =   0.0000000000000E+00
(PID.TID 0000.0001) %MON thSI_Tsrf_max_N              =  -7.3473233865508E+00
(PID.TID 0000.0001) %MON thSI_Tic1_ave_G              =  -8.4607724742763E+00
(PID.TID 0000.0001) %MON thSI_Tic1_ave_S              =  -5.0419382087028E+00
(PID.TID 0000.0001) %MON thSI_Tic1_ave_N              =  -1.3566882404690E+01
(PID.TID 0000.0001) %MON thSI_Tic1_min_S              =  -1.5764667967969E+01
(PID.TID 0000.0001) %MON thSI_Tic1_min_N              =  -2.1020816519694E+01
(PID.TID 0000.0001) %MON thSI_Tic1_max_S              =  -1.9066092114317E-01
(PID.TID 0000.0001) %MON thSI_Tic1_max_N              =  -7.0517890900630E-01
(PID.TID 0000.0001) %MON thSI_Tic2_ave_G              =  -3.8241901484365E+00
(PID.TID 0000.0001) %MON thSI_Tic2_ave_S              =  -3.0850022476257E+00
(PID.TID 0000.0001) %MON thSI_Tic2_ave_N              =  -4.9281847815715E+00
(PID.TID 0000.0001) %MON thSI_Tic2_min_S              =  -8.6430485267560E+00
(PID.TID 0000.0001) %MON thSI_Tic2_min_N              =  -7.6042062349797E+00
(PID.TID 0000.0001) %MON thSI_Tic2_max_S              =  -1.1904793094726E+00
(PID.TID 0000.0001) %MON thSI_Tic2_max_N              =  -1.2394010194768E+00
(PID.TID 0000.0001) %MON thSI_TotEnerg_G              =  -3.8138766016275E+22
(PID.TID 0000.0001) // =======================================================
(PID.TID 0000.0001) // End MONITOR Therm.SeaIce statistics
(PID.TID 0000.0001) // =======================================================
 BULKF_FIELDS_LOAD,     36006 : iP,iLd,i0,i1=   12    1   12    1 ; Wght=  0.3000000000  0.7000000000
 EXTERNAL_FIELDS_LOAD,     36006 : iP,iLd,i0,i1=   12    1   12    1 ; Wght=  0.3000000000  0.7000000000
 cg2d: Sum(rhs),rhsMax =   3.91509230760246E+02  2.29566486981574E+02
(PID.TID 0000.0001)      cg2d_init_res =   2.77968735343684E+00
(PID.TID 0000.0001)      cg2d_iters(min,last) =      -1      68
(PID.TID 0000.0001)      cg2d_last_res =   5.38104275068394E-07
(PID.TID 0000.0001) // =======================================================
(PID.TID 0000.0001) // Begin MONITOR dynamic field statistics
(PID.TID 0000.0001) // =======================================================
(PID.TID 0000.0001) %MON time_tsnumber                =                 36007
(PID.TID 0000.0001) %MON time_secondsf                =   3.1110048000000E+09
(PID.TID 0000.0001) %MON dynstat_eta_max              =   7.2653905144279E-01
(PID.TID 0000.0001) %MON dynstat_eta_min              =  -1.1975492809844E+01
(PID.TID 0000.0001) %MON dynstat_eta_mean             =  -5.8230852592511E-01
(PID.TID 0000.0001) %MON dynstat_eta_sd               =   1.7015406325327E+00
(PID.TID 0000.0001) %MON dynstat_eta_del2             =   2.1263288044254E-02
(PID.TID 0000.0001) %MON dynstat_uvel_max             =   1.7451395521781E-01
(PID.TID 0000.0001) %MON dynstat_uvel_min             =  -2.6907571355906E-01
(PID.TID 0000.0001) %MON dynstat_uvel_mean            =  -5.2561448004462E-04
(PID.TID 0000.0001) %MON dynstat_uvel_sd              =   1.2980920549897E-02
(PID.TID 0000.0001) %MON dynstat_uvel_del2            =   5.8690471926582E-05
(PID.TID 0000.0001) %MON dynstat_vvel_max             =   1.9517674755313E-01
(PID.TID 0000.0001) %MON dynstat_vvel_min             =  -2.1122000683464E-01
(PID.TID 0000.0001) %MON dynstat_vvel_mean            =  -4.2269012555397E-04
(PID.TID 0000.0001) %MON dynstat_vvel_sd              =   1.3482288380363E-02
(PID.TID 0000.0001) %MON dynstat_vvel_del2            =   5.6122925659512E-05
(PID.TID 0000.0001) %MON dynstat_wvel_max             =   8.6108973858232E-05
(PID.TID 0000.0001) %MON dynstat_wvel_min             =  -1.7827135498324E-04
(PID.TID 0000.0001) %MON dynstat_wvel_mean            =  -1.1665356789062E-09
(PID.TID 0000.0001) %MON dynstat_wvel_sd              =   4.6225511056352E-06
(PID.TID 0000.0001) %MON dynstat_wvel_del2            =   4.0338210686094E-08
(PID.TID 0000.0001) %MON dynstat_theta_max            =   3.0021826794944E+01
(PID.TID 0000.0001) %MON dynstat_theta_min            =  -3.3490501365675E+00
(PID.TID 0000.0001) %MON dynstat_theta_mean           =   3.5032138131763E+00
(PID.TID 0000.0001) %MON dynstat_theta_sd             =   4.7493470061655E+00
(PID.TID 0000.0001) %MON dynstat_theta_del2           =   2.9518732698181E-03
(PID.TID 0000.0001) %MON dynstat_salt_max             =   4.0831025772510E+01
(PID.TID 0000.0001) %MON dynstat_salt_min             =   1.8034317387621E+01
(PID.TID 0000.0001) %MON dynstat_salt_mean            =   3.4756113372097E+01
(PID.TID 0000.0001) %MON dynstat_salt_sd              =   5.1183253121518E-01
(PID.TID 0000.0001) %MON dynstat_salt_del2            =   8.3912527920470E-04
(PID.TID 0000.0001) %MON forcing_qnet_max             =   7.9038471823411E+02
(PID.TID 0000.0001) %MON forcing_qnet_min             =  -3.6658353328708E+02
(PID.TID 0000.0001) %MON forcing_qnet_mean            =  -5.8073195202284E+00
(PID.TID 0000.0001) %MON forcing_qnet_sd              =   1.2059672988379E+02
(PID.TID 0000.0001) %MON forcing_qnet_del2            =   1.3247605064692E+00
(PID.TID 0000.0001) %MON forcing_qsw_max              =  -0.0000000000000E+00
(PID.TID 0000.0001) %MON forcing_qsw_min              =  -3.4073236530849E+02
(PID.TID 0000.0001) %MON forcing_qsw_mean             =  -1.8655107769716E+02
(PID.TID 0000.0001) %MON forcing_qsw_sd               =   8.0098436795554E+01
(PID.TID 0000.0001) %MON forcing_qsw_del2             =   6.9183898926470E-01
(PID.TID 0000.0001) %MON forcing_empmr_max            =   1.0846890561491E-03
(PID.TID 0000.0001) %MON forcing_empmr_min            =  -3.5176006151355E-04
(PID.TID 0000.0001) %MON forcing_empmr_mean           =   1.7605511144498E-07
(PID.TID 0000.0001) %MON forcing_empmr_sd             =   5.5235249636662E-05
(PID.TID 0000.0001) %MON forcing_empmr_del2           =   1.1706750232233E-06
(PID.TID 0000.0001) %MON forcing_fu_max               =   2.4731784009269E-01
(PID.TID 0000.0001) %MON forcing_fu_min               =  -2.2180668969530E-01
(PID.TID 0000.0001) %MON forcing_fu_mean              =  -4.2870070504621E-03
(PID.TID 0000.0001) %MON forcing_fu_sd                =   6.4197640910106E-02
(PID.TID 0000.0001) %MON forcing_fu_del2              =   2.0958789804308E-04
(PID.TID 0000.0001) %MON forcing_fv_max               =   2.6891042987167E-01
(PID.TID 0000.0001) %MON forcing_fv_min               =  -3.3164734762358E-01
(PID.TID 0000.0001) %MON forcing_fv_mean              =  -1.3708054794422E-02
(PID.TID 0000.0001) %MON forcing_fv_sd                =   7.5544817904543E-02
(PID.TID 0000.0001) %MON forcing_fv_del2              =   2.3785256950118E-04
(PID.TID 0000.0001) %MON trAdv_CFL_u_max              =   7.5888310336663E-02
(PID.TID 0000.0001) %MON trAdv_CFL_v_max              =   9.0508967204954E-02
(PID.TID 0000.0001) %MON trAdv_CFL_w_max              =   6.4209765518226E-02
(PID.TID 0000.0001) %MON advcfl_uvel_max              =   7.6314976378208E-02
(PID.TID 0000.0001) %MON advcfl_vvel_max              =   8.5074794566587E-02
(PID.TID 0000.0001) %MON advcfl_wvel_max              =   5.8123188945478E-02
(PID.TID 0000.0001) %MON advcfl_W_hf_max              =   6.4209765518226E-02
(PID.TID 0000.0001) %MON pe_b_mean                    =  -1.9308718886615E-03
(PID.TID 0000.0001) %MON ke_max                       =   3.6156121629266E-02
(PID.TID 0000.0001) %MON ke_mean                      =   1.6195343321079E-04
(PID.TID 0000.0001) %MON ke_vol                       =   1.3395905563610E+18
(PID.TID 0000.0001) %MON vort_r_min                   =  -1.2381939664355E-06
(PID.TID 0000.0001) %MON vort_r_max                   =   1.3862428790157E-06
(PID.TID 0000.0001) %MON vort_a_mean                  =  -2.0549865324846E-05
(PID.TID 0000.0001) %MON vort_a_sd                    =   7.5259582580943E-05
(PID.TID 0000.0001) %MON vort_p_mean                  =  -2.4787197428684E-05
(PID.TID 0000.0001) %MON vort_p_sd                    =   1.2817300917664E-04
(PID.TID 0000.0001) %MON surfExpan_theta_mean         =   7.9605555221138E-08
(PID.TID 0000.0001) %MON surfExpan_salt_mean          =   1.8726456969398E-08
(PID.TID 0000.0001) // =======================================================
(PID.TID 0000.0001) // End MONITOR dynamic field statistics
(PID.TID 0000.0001) // =======================================================
(PID.TID 0000.0001) // =======================================================
(PID.TID 0000.0001) // Begin MONITOR Therm.SeaIce statistics
(PID.TID 0000.0001) // =======================================================
(PID.TID 0000.0001) %MON thSI_time_sec                =   3.1110048000000E+09
(PID.TID 0000.0001) %MON thSI_Ice_Area_G              =   2.4923169444088E+13
(PID.TID 0000.0001) %MON thSI_Ice_Area_S              =   1.1771752968622E+13
(PID.TID 0000.0001) %MON thSI_Ice_Area_N              =   1.3151416475466E+13
(PID.TID 0000.0001) %MON thSI_IceH_ave_G              =   4.5639600105226E+00
(PID.TID 0000.0001) %MON thSI_IceH_ave_S              =   5.7796909789909E+00
(PID.TID 0000.0001) %MON thSI_IceH_ave_N              =   3.4757666084043E+00
(PID.TID 0000.0001) %MON thSI_IceH_max_S              =   1.0000000000000E+01
(PID.TID 0000.0001) %MON thSI_IceH_max_N              =   1.0000000000000E+01
(PID.TID 0000.0001) %MON thSI_SnwH_ave_G              =   1.0246905808629E+00
(PID.TID 0000.0001) %MON thSI_SnwH_ave_S              =   1.7707515082484E+00
(PID.TID 0000.0001) %MON thSI_SnwH_ave_N              =   3.5689597842548E-01
(PID.TID 0000.0001) %MON thSI_SnwH_max_S              =   4.0936813753313E+00
(PID.TID 0000.0001) %MON thSI_SnwH_max_N              =   4.1027632353367E+00
(PID.TID 0000.0001) %MON thSI_Tsrf_ave_G              =  -1.7216904309068E+01
(PID.TID 0000.0001) %MON thSI_Tsrf_ave_S              =  -1.1521198623121E-01
(PID.TID 0000.0001) %MON thSI_Tsrf_ave_N              =  -3.2524525183624E+01
(PID.TID 0000.0001) %MON thSI_Tsrf_min_S              =  -5.4020394711968E+00
(PID.TID 0000.0001) %MON thSI_Tsrf_min_N              =  -4.6927731317289E+01
(PID.TID 0000.0001) %MON thSI_Tsrf_max_S              =   0.0000000000000E+00
(PID.TID 0000.0001) %MON thSI_Tsrf_max_N              =  -1.8883341925285E+00
(PID.TID 0000.0001) %MON thSI_Tic1_ave_G              =  -8.4847458819176E+00
(PID.TID 0000.0001) %MON thSI_Tic1_ave_S              =  -5.0214280900112E+00
(PID.TID 0000.0001) %MON thSI_Tic1_ave_N              =  -1.3639583210430E+01
(PID.TID 0000.0001) %MON thSI_Tic1_min_S              =  -1.5621093497714E+01
(PID.TID 0000.0001) %MON thSI_Tic1_min_N              =  -2.1088252322952E+01
(PID.TID 0000.0001) %MON thSI_Tic1_max_S              =  -1.8291420873303E-01
(PID.TID 0000.0001) %MON thSI_Tic1_max_N              =  -7.2239286168128E-01
(PID.TID 0000.0001) %MON thSI_Tic2_ave_G              =  -3.8354811035333E+00
(PID.TID 0000.0001) %MON thSI_Tic2_ave_S              =  -3.0811512783398E+00
(PID.TID 0000.0001) %MON thSI_Tic2_ave_N              =  -4.9582332662152E+00
(PID.TID 0000.0001) %MON thSI_Tic2_min_S              =  -8.6149136765438E+00
(PID.TID 0000.0001) %MON thSI_Tic2_min_N              =  -7.6376222486585E+00
(PID.TID 0000.0001) %MON thSI_Tic2_max_S              =  -1.1941113202829E+00
(PID.TID 0000.0001) %MON thSI_Tic2_max_N              =  -1.2550493149865E+00
(PID.TID 0000.0001) %MON thSI_TotEnerg_G              =  -3.8137939039978E+22
(PID.TID 0000.0001) // =======================================================
(PID.TID 0000.0001) // End MONITOR Therm.SeaIce statistics
(PID.TID 0000.0001) // =======================================================
 BULKF_FIELDS_LOAD,     36007 : iP,iLd,i0,i1=   12    1   12    1 ; Wght=  0.2666666667  0.7333333333
 EXTERNAL_FIELDS_LOAD,     36007 : iP,iLd,i0,i1=   12    1   12    1 ; Wght=  0.2666666667  0.7333333333
 cg2d: Sum(rhs),rhsMax =   3.91503695242407E+02  2.29653530707001E+02
(PID.TID 0000.0001)      cg2d_init_res =   2.70206153946383E+00
(PID.TID 0000.0001)      cg2d_iters(min,last) =      -1      69
(PID.TID 0000.0001)      cg2d_last_res =   5.11805474317622E-07
(PID.TID 0000.0001) // =======================================================
(PID.TID 0000.0001) // Begin MONITOR dynamic field statistics
(PID.TID 0000.0001) // =======================================================
(PID.TID 0000.0001) %MON time_tsnumber                =                 36008
(PID.TID 0000.0001) %MON time_secondsf                =   3.1110912000000E+09
(PID.TID 0000.0001) %MON dynstat_eta_max              =   7.2530783908343E-01
(PID.TID 0000.0001) %MON dynstat_eta_min              =  -1.1973312629544E+01
(PID.TID 0000.0001) %MON dynstat_eta_mean             =  -5.8230029271123E-01
(PID.TID 0000.0001) %MON dynstat_eta_sd               =   1.7010227556819E+00
(PID.TID 0000.0001) %MON dynstat_eta_del2             =   2.1276525186738E-02
(PID.TID 0000.0001) %MON dynstat_uvel_max             =   1.7455496736984E-01
(PID.TID 0000.0001) %MON dynstat_uvel_min             =  -2.6867826915103E-01
(PID.TID 0000.0001) %MON dynstat_uvel_mean            =  -5.2512319196277E-04
(PID.TID 0000.0001) %MON dynstat_uvel_sd              =   1.2978862679948E-02
(PID.TID 0000.0001) %MON dynstat_uvel_del2            =   5.8665364825445E-05
(PID.TID 0000.0001) %MON dynstat_vvel_max             =   1.9522171115653E-01
(PID.TID 0000.0001) %MON dynstat_vvel_min             =  -2.1128647770100E-01
(PID.TID 0000.0001) %MON dynstat_vvel_mean            =  -4.2196091728750E-04
(PID.TID 0000.0001) %MON dynstat_vvel_sd              =   1.3482334472350E-02
(PID.TID 0000.0001) %MON dynstat_vvel_del2            =   5.6085936416948E-05
(PID.TID 0000.0001) %MON dynstat_wvel_max             =   8.6878827767165E-05
(PID.TID 0000.0001) %MON dynstat_wvel_min             =  -1.7827425769381E-04
(PID.TID 0000.0001) %MON dynstat_wvel_mean            =  -1.1943896936041E-09
(PID.TID 0000.0001) %MON dynstat_wvel_sd              =   4.6221293259290E-06
(PID.TID 0000.0001) %MON dynstat_wvel_del2            =   4.0338794556552E-08
(PID.TID 0000.0001) %MON dynstat_theta_max            =   3.0000633570701E+01
(PID.TID 0000.0001) %MON dynstat_theta_min            =  -3.3672613427441E+00
(PID.TID 0000.0001) %MON dynstat_theta_mean           =   3.5032806851785E+00
(PID.TID 0000.0001) %MON dynstat_theta_sd             =   4.7494425245458E+00
(PID.TID 0000.0001) %MON dynstat_theta_del2           =   2.9553818121902E-03
(PID.TID 0000.0001) %MON dynstat_salt_max             =   4.0832685366173E+01
(PID.TID 0000.0001) %MON dynstat_salt_min             =   1.8034875176610E+01
(PID.TID 0000.0001) %MON dynstat_salt_mean            =   3.4756114166066E+01
(PID.TID 0000.0001) %MON dynstat_salt_sd              =   5.1182559716574E-01
(PID.TID 0000.0001) %MON dynstat_salt_del2            =   8.3946028346733E-04
(PID.TID 0000.0001) %MON forcing_qnet_max             =   7.9361560010947E+02
(PID.TID 0000.0001) %MON forcing_qnet_min             =  -2.3631263263538E+02
(PID.TID 0000.0001) %MON forcing_qnet_mean            =  -5.8820294239777E+00
(PID.TID 0000.0001) %MON forcing_qnet_sd              =   1.2044996830020E+02
(PID.TID 0000.0001) %MON forcing_qnet_del2            =   1.3164306790722E+00
(PID.TID 0000.0001) %MON forcing_qsw_max              =  -0.0000000000000E+00
(PID.TID 0000.0001) %MON forcing_qsw_min              =  -3.4052832266130E+02
(PID.TID 0000.0001) %MON forcing_qsw_mean             =  -1.8656786989786E+02
(PID.TID 0000.0001) %MON forcing_qsw_sd               =   7.9956853072247E+01
(PID.TID 0000.0001) %MON forcing_qsw_del2             =   6.8937894231752E-01
(PID.TID 0000.0001) %MON forcing_empmr_max            =   7.7359790573326E-04
(PID.TID 0000.0001) %MON forcing_empmr_min            =  -3.3749745413193E-04
(PID.TID 0000.0001) %MON forcing_empmr_mean           =  -9.8627041288715E-08
(PID.TID 0000.0001) %MON forcing_empmr_sd             =   5.2342679837764E-05
(PID.TID 0000.0001) %MON forcing_empmr_del2           =   1.0347035584347E-06
(PID.TID 0000.0001) %MON forcing_fu_max               =   2.4726979082249E-01
(PID.TID 0000.0001) %MON forcing_fu_min               =  -2.2495248635365E-01
(PID.TID 0000.0001) %MON forcing_fu_mean              =  -4.2435281147287E-03
(PID.TID 0000.0001) %MON forcing_fu_sd                =   6.4287840534767E-02
(PID.TID 0000.0001) %MON forcing_fu_del2              =   2.1115214806548E-04
(PID.TID 0000.0001) %MON forcing_fv_max               =   2.7159367144430E-01
(PID.TID 0000.0001) %MON forcing_fv_min               =  -3.3243525155752E-01
(PID.TID 0000.0001) %MON forcing_fv_mean              =  -1.3711980340349E-02
(PID.TID 0000.0001) %MON forcing_fv_sd                =   7.5645935346452E-02
(PID.TID 0000.0001) %MON forcing_fv_del2              =   2.3922805906111E-04
(PID.TID 0000.0001) %MON trAdv_CFL_u_max              =   7.5776217548127E-02
(PID.TID 0000.0001) %MON trAdv_CFL_v_max              =   9.0529724569428E-02
(PID.TID 0000.0001) %MON trAdv_CFL_w_max              =   6.4210822143465E-02
(PID.TID 0000.0001) %MON advcfl_uvel_max              =   7.6202253605092E-02
(PID.TID 0000.0001) %MON advcfl_vvel_max              =   8.5094393567852E-02
(PID.TID 0000.0001) %MON advcfl_wvel_max              =   5.8124135338661E-02
(PID.TID 0000.0001) %MON advcfl_W_hf_max              =   6.4210822143465E-02
(PID.TID 0000.0001) %MON pe_b_mean                    =  -1.9300396263383E-03
(PID.TID 0000.0001) %MON ke_max                       =   3.6033951183535E-02
(PID.TID 0000.0001) %MON ke_mean                      =   1.6192895820645E-04
(PID.TID 0000.0001) %MON ke_vol                       =   1.3395905510130E+18
(PID.TID 0000.0001) %MON vort_r_min                   =  -1.2430043845384E-06
(PID.TID 0000.0001) %MON vort_r_max                   =   1.3897062673569E-06
(PID.TID 0000.0001) %MON vort_a_mean                  =  -2.0549865324846E-05
(PID.TID 0000.0001) %MON vort_a_sd                    =   7.5259582515393E-05
(PID.TID 0000.0001) %MON vort_p_mean                  =  -2.4787197077866E-05
(PID.TID 0000.0001) %MON vort_p_sd                    =   1.2817301165629E-04
(PID.TID 0000.0001) %MON surfExpan_theta_mean         =   8.0214960566313E-08
(PID.TID 0000.0001) %MON surfExpan_salt_mean          =   1.9005745626677E-08
(PID.TID 0000.0001) // =======================================================
(PID.TID 0000.0001) // End MONITOR dynamic field statistics
(PID.TID 0000.0001) // =======================================================
(PID.TID 0000.0001) // =======================================================
(PID.TID 0000.0001) // Begin MONITOR Therm.SeaIce statistics
(PID.TID 0000.0001) // =======================================================
(PID.TID 0000.0001) %MON thSI_time_sec                =   3.1110912000000E+09
(PID.TID 0000.0001) %MON thSI_Ice_Area_G              =   2.4935808336167E+13
(PID.TID 0000.0001) %MON thSI_Ice_Area_S              =   1.1733826280257E+13
(PID.TID 0000.0001) %MON thSI_Ice_Area_N              =   1.3201982055910E+13
(PID.TID 0000.0001) %MON thSI_IceH_ave_G              =   4.5620734039723E+00
(PID.TID 0000.0001) %MON thSI_IceH_ave_S              =   5.7915135449355E+00
(PID.TID 0000.0001) %MON thSI_IceH_ave_N              =   3.4693558881521E+00
(PID.TID 0000.0001) %MON thSI_IceH_max_S              =   1.0000000000000E+01
(PID.TID 0000.0001) %MON thSI_IceH_max_N              =   1.0000000000000E+01
(PID.TID 0000.0001) %MON thSI_SnwH_ave_G              =   1.0204786973133E+00
(PID.TID 0000.0001) %MON thSI_SnwH_ave_S              =   1.7653452663729E+00
(PID.TID 0000.0001) %MON thSI_SnwH_ave_N              =   3.5844667164455E-01
(PID.TID 0000.0001) %MON thSI_SnwH_max_S              =   4.0935949862076E+00
(PID.TID 0000.0001) %MON thSI_SnwH_max_N              =   4.1030058295127E+00
(PID.TID 0000.0001) %MON thSI_Tsrf_ave_G              =  -1.7309553988278E+01
(PID.TID 0000.0001) %MON thSI_Tsrf_ave_S              =  -1.3696062452209E-01
(PID.TID 0000.0001) %MON thSI_Tsrf_ave_N              =  -3.2572430915277E+01
(PID.TID 0000.0001) %MON thSI_Tsrf_min_S              =  -5.4181865571619E+00
(PID.TID 0000.0001) %MON thSI_Tsrf_min_N              =  -4.7042518382769E+01
(PID.TID 0000.0001) %MON thSI_Tsrf_max_S              =   0.0000000000000E+00
(PID.TID 0000.0001) %MON thSI_Tsrf_max_N              =  -8.1883373916441E+00
(PID.TID 0000.0001) %MON thSI_Tic1_ave_G              =  -8.5056506286492E+00
(PID.TID 0000.0001) %MON thSI_Tic1_ave_S              =  -4.9956416349843E+00
(PID.TID 0000.0001) %MON thSI_Tic1_ave_N              =  -1.3713422714898E+01
(PID.TID 0000.0001) %MON thSI_Tic1_min_S              =  -1.5479148851782E+01
(PID.TID 0000.0001) %MON thSI_Tic1_min_N              =  -2.1153429885843E+01
(PID.TID 0000.0001) %MON thSI_Tic1_max_S              =  -1.9879480598009E-01
(PID.TID 0000.0001) %MON thSI_Tic1_max_N              =  -7.4036437570830E-01
(PID.TID 0000.0001) %MON thSI_Tic2_ave_G              =  -3.8467266415229E+00
(PID.TID 0000.0001) %MON thSI_Tic2_ave_S              =  -3.0772609066482E+00
(PID.TID 0000.0001) %MON thSI_Tic2_ave_N              =  -4.9883767577016E+00
(PID.TID 0000.0001) %MON thSI_Tic2_min_S              =  -8.5854003205539E+00
(PID.TID 0000.0001) %MON thSI_Tic2_min_N              =  -7.6699897676757E+00
(PID.TID 0000.0001) %MON thSI_Tic2_max_S              =  -1.2009690365049E+00
(PID.TID 0000.0001) %MON thSI_Tic2_max_N              =  -1.2709246402001E+00
(PID.TID 0000.0001) %MON thSI_TotEnerg_G              =  -3.8133862210046E+22
(PID.TID 0000.0001) // =======================================================
(PID.TID 0000.0001) // End MONITOR Therm.SeaIce statistics
(PID.TID 0000.0001) // =======================================================
 BULKF_FIELDS_LOAD,     36008 : iP,iLd,i0,i1=   12    1   12    1 ; Wght=  0.2333333333  0.7666666667
 EXTERNAL_FIELDS_LOAD,     36008 : iP,iLd,i0,i1=   12    1   12    1 ; Wght=  0.2333333333  0.7666666667
 cg2d: Sum(rhs),rhsMax =   3.91486057378295E+02  2.29746764289200E+02
(PID.TID 0000.0001)      cg2d_init_res =   2.67159830578360E+00
(PID.TID 0000.0001)      cg2d_iters(min,last) =      -1      69
(PID.TID 0000.0001)      cg2d_last_res =   5.44097983306595E-07
(PID.TID 0000.0001) // =======================================================
(PID.TID 0000.0001) // Begin MONITOR dynamic field statistics
(PID.TID 0000.0001) // =======================================================
(PID.TID 0000.0001) %MON time_tsnumber                =                 36009
(PID.TID 0000.0001) %MON time_secondsf                =   3.1111776000000E+09
(PID.TID 0000.0001) %MON dynstat_eta_max              =   7.2402531410939E-01
(PID.TID 0000.0001) %MON dynstat_eta_min              =  -1.1971035581511E+01
(PID.TID 0000.0001) %MON dynstat_eta_mean             =  -5.8227405915696E-01
(PID.TID 0000.0001) %MON dynstat_eta_sd               =   1.7005207455832E+00
(PID.TID 0000.0001) %MON dynstat_eta_del2             =   2.1288528456433E-02
(PID.TID 0000.0001) %MON dynstat_uvel_max             =   1.7453016213346E-01
(PID.TID 0000.0001) %MON dynstat_uvel_min             =  -2.6826833216813E-01
(PID.TID 0000.0001) %MON dynstat_uvel_mean            =  -5.2465896990151E-04
(PID.TID 0000.0001) %MON dynstat_uvel_sd              =   1.2976821266813E-02
(PID.TID 0000.0001) %MON dynstat_uvel_del2            =   5.8640813198371E-05
(PID.TID 0000.0001) %MON dynstat_vvel_max             =   1.9520283053003E-01
(PID.TID 0000.0001) %MON dynstat_vvel_min             =  -2.1134663135440E-01
(PID.TID 0000.0001) %MON dynstat_vvel_mean            =  -4.2119180249217E-04
(PID.TID 0000.0001) %MON dynstat_vvel_sd              =   1.3481959317665E-02
(PID.TID 0000.0001) %MON dynstat_vvel_del2            =   5.6050387855961E-05
(PID.TID 0000.0001) %MON dynstat_wvel_max             =   8.7648740527391E-05
(PID.TID 0000.0001) %MON dynstat_wvel_min             =  -1.7822953340157E-04
(PID.TID 0000.0001) %MON dynstat_wvel_mean            =  -1.2225080286967E-09
(PID.TID 0000.0001) %MON dynstat_wvel_sd              =   4.6218494648642E-06
(PID.TID 0000.0001) %MON dynstat_wvel_del2            =   4.0339783476304E-08
(PID.TID 0000.0001) %MON dynstat_theta_max            =   2.9979379200216E+01
(PID.TID 0000.0001) %MON dynstat_theta_min            =  -3.3854724950606E+00
(PID.TID 0000.0001) %MON dynstat_theta_mean           =   3.5033482353667E+00
(PID.TID 0000.0001) %MON dynstat_theta_sd             =   4.7495464391047E+00
(PID.TID 0000.0001) %MON dynstat_theta_del2           =   2.9583737744993E-03
(PID.TID 0000.0001) %MON dynstat_salt_max             =   4.0834211413444E+01
(PID.TID 0000.0001) %MON dynstat_salt_min             =   1.8035437169753E+01
(PID.TID 0000.0001) %MON dynstat_salt_mean            =   3.4756114830184E+01
(PID.TID 0000.0001) %MON dynstat_salt_sd              =   5.1181887138245E-01
(PID.TID 0000.0001) %MON dynstat_salt_del2            =   8.3967331875390E-04
(PID.TID 0000.0001) %MON forcing_qnet_max             =   7.9679651998359E+02
(PID.TID 0000.0001) %MON forcing_qnet_min             =  -2.3593063300890E+02
(PID.TID 0000.0001) %MON forcing_qnet_mean            =  -5.9427687600758E+00
(PID.TID 0000.0001) %MON forcing_qnet_sd              =   1.2037477171036E+02
(PID.TID 0000.0001) %MON forcing_qnet_del2            =   1.3129261536552E+00
(PID.TID 0000.0001) %MON forcing_qsw_max              =  -0.0000000000000E+00
(PID.TID 0000.0001) %MON forcing_qsw_min              =  -3.4032428001410E+02
(PID.TID 0000.0001) %MON forcing_qsw_mean             =  -1.8658003713089E+02
(PID.TID 0000.0001) %MON forcing_qsw_sd               =   7.9818061726680E+01
(PID.TID 0000.0001) %MON forcing_qsw_del2             =   6.8732465296354E-01
(PID.TID 0000.0001) %MON forcing_empmr_max            =   5.1408449045082E-04
(PID.TID 0000.0001) %MON forcing_empmr_min            =  -3.0320167154218E-04
(PID.TID 0000.0001) %MON forcing_empmr_mean           =  -3.1425611882866E-07
(PID.TID 0000.0001) %MON forcing_empmr_sd             =   4.9948432021174E-05
(PID.TID 0000.0001) %MON forcing_empmr_del2           =   9.5480445449328E-07
(PID.TID 0000.0001) %MON forcing_fu_max               =   2.4722174155228E-01
(PID.TID 0000.0001) %MON forcing_fu_min               =  -2.2809828301201E-01
(PID.TID 0000.0001) %MON forcing_fu_mean              =  -4.2000491789953E-03
(PID.TID 0000.0001) %MON forcing_fu_sd                =   6.4391296774987E-02
(PID.TID 0000.0001) %MON forcing_fu_del2              =   2.1293834199113E-04
(PID.TID 0000.0001) %MON forcing_fv_max               =   2.7427691301694E-01
(PID.TID 0000.0001) %MON forcing_fv_min               =  -3.3322315549145E-01
(PID.TID 0000.0001) %MON forcing_fv_mean              =  -1.3715905886277E-02
(PID.TID 0000.0001) %MON forcing_fv_sd                =   7.5757214244312E-02
(PID.TID 0000.0001) %MON forcing_fv_del2              =   2.4079325037298E-04
(PID.TID 0000.0001) %MON trAdv_CFL_u_max              =   7.5660601530742E-02
(PID.TID 0000.0001) %MON trAdv_CFL_v_max              =   9.0520873687683E-02
(PID.TID 0000.0001) %MON trAdv_CFL_w_max              =   6.4194725057208E-02
(PID.TID 0000.0001) %MON advcfl_uvel_max              =   7.6085987700778E-02
(PID.TID 0000.0001) %MON advcfl_vvel_max              =   8.5086163768755E-02
(PID.TID 0000.0001) %MON advcfl_wvel_max              =   5.8109553531682E-02
(PID.TID 0000.0001) %MON advcfl_W_hf_max              =   6.4194725057208E-02
(PID.TID 0000.0001) %MON pe_b_mean                    =  -1.9291724397295E-03
(PID.TID 0000.0001) %MON ke_max                       =   3.5909216047852E-02
(PID.TID 0000.0001) %MON ke_mean                      =   1.6189941314328E-04
(PID.TID 0000.0001) %MON ke_vol                       =   1.3395905540090E+18
(PID.TID 0000.0001) %MON vort_r_min                   =  -1.2479407762290E-06
(PID.TID 0000.0001) %MON vort_r_max                   =   1.3931713094365E-06
(PID.TID 0000.0001) %MON vort_a_mean                  =  -2.0549865324846E-05
(PID.TID 0000.0001) %MON vort_a_sd                    =   7.5259582451782E-05
(PID.TID 0000.0001) %MON vort_p_mean                  =  -2.4787196613709E-05
(PID.TID 0000.0001) %MON vort_p_sd                    =   1.2817301263626E-04
(PID.TID 0000.0001) %MON surfExpan_theta_mean         =   8.0396030816261E-08
(PID.TID 0000.0001) %MON surfExpan_salt_mean          =   1.9156110412479E-08
(PID.TID 0000.0001) // =======================================================
(PID.TID 0000.0001) // End MONITOR dynamic field statistics
(PID.TID 0000.0001) // =======================================================
(PID.TID 0000.0001) // =======================================================
(PID.TID 0000.0001) // Begin MONITOR Therm.SeaIce statistics
(PID.TID 0000.0001) // =======================================================
(PID.TID 0000.0001) %MON thSI_time_sec                =   3.1111776000000E+09
(PID.TID 0000.0001) %MON thSI_Ice_Area_G              =   2.4936047489679E+13
(PID.TID 0000.0001) %MON thSI_Ice_Area_S              =   1.1697660988357E+13
(PID.TID 0000.0001) %MON thSI_Ice_Area_N              =   1.3238386501322E+13
(PID.TID 0000.0001) %MON thSI_IceH_ave_G              =   4.5621222537091E+00
(PID.TID 0000.0001) %MON thSI_IceH_ave_S              =   5.8026408315582E+00
(PID.TID 0000.0001) %MON thSI_IceH_ave_N              =   3.4659791722249E+00
(PID.TID 0000.0001) %MON thSI_IceH_max_S              =   1.0000000000000E+01
(PID.TID 0000.0001) %MON thSI_IceH_max_N              =   1.0000000000000E+01
(PID.TID 0000.0001) %MON thSI_SnwH_ave_G              =   1.0169728442075E+00
(PID.TID 0000.0001) %MON thSI_SnwH_ave_S              =   1.7600375521855E+00
(PID.TID 0000.0001) %MON thSI_SnwH_ave_N              =   3.6038836954577E-01
(PID.TID 0000.0001) %MON thSI_SnwH_max_S              =   4.0935144066085E+00
(PID.TID 0000.0001) %MON thSI_SnwH_max_N              =   4.1032669339978E+00
(PID.TID 0000.0001) %MON thSI_Tsrf_ave_G              =  -1.7380521373522E+01
(PID.TID 0000.0001) %MON thSI_Tsrf_ave_S              =  -1.1853597175660E-01
(PID.TID 0000.0001) %MON thSI_Tsrf_ave_N              =  -3.2633502029107E+01
(PID.TID 0000.0001) %MON thSI_Tsrf_min_S              =  -5.4342947034051E+00
(PID.TID 0000.0001) %MON thSI_Tsrf_min_N              =  -4.7157365723245E+01
(PID.TID 0000.0001) %MON thSI_Tsrf_max_S              =   0.0000000000000E+00
(PID.TID 0000.0001) %MON thSI_Tsrf_max_N              =  -9.3208081576773E+00
(PID.TID 0000.0001) %MON thSI_Tic1_ave_G              =  -8.5284880607134E+00
(PID.TID 0000.0001) %MON thSI_Tic1_ave_S              =  -4.9739270912749E+00
(PID.TID 0000.0001) %MON thSI_Tic1_ave_N              =  -1.3786840405601E+01
(PID.TID 0000.0001) %MON thSI_Tic1_min_S              =  -1.5338817064593E+01
(PID.TID 0000.0001) %MON thSI_Tic1_min_N              =  -2.1216432316332E+01
(PID.TID 0000.0001) %MON thSI_Tic1_max_S              =  -1.9135530835044E-01
(PID.TID 0000.0001) %MON thSI_Tic1_max_N              =  -7.5913576556183E-01
(PID.TID 0000.0001) %MON thSI_Tic2_ave_G              =  -3.8577656374377E+00
(PID.TID 0000.0001) %MON thSI_Tic2_ave_S              =  -3.0733285216320E+00
(PID.TID 0000.0001) %MON thSI_Tic2_ave_N              =  -5.0182033912923E+00
(PID.TID 0000.0001) %MON thSI_Tic2_min_S              =  -8.5557359420046E+00
(PID.TID 0000.0001) %MON thSI_Tic2_min_N              =  -7.7013401351020E+00
(PID.TID 0000.0001) %MON thSI_Tic2_max_S              =  -1.1586830629168E+00
(PID.TID 0000.0001) %MON thSI_Tic2_max_N              =  -1.2868244431019E+00
(PID.TID 0000.0001) %MON thSI_TotEnerg_G              =  -3.8127723781607E+22
(PID.TID 0000.0001) // =======================================================
(PID.TID 0000.0001) // End MONITOR Therm.SeaIce statistics
(PID.TID 0000.0001) // =======================================================
 BULKF_FIELDS_LOAD,     36009 : iP,iLd,i0,i1=   12    1   12    1 ; Wght=  0.2000000000  0.8000000000
 EXTERNAL_FIELDS_LOAD,     36009 : iP,iLd,i0,i1=   12    1   12    1 ; Wght=  0.2000000000  0.8000000000
 cg2d: Sum(rhs),rhsMax =   3.91457795289820E+02  2.29845662717487E+02
(PID.TID 0000.0001)      cg2d_init_res =   2.66061321393039E+00
(PID.TID 0000.0001)      cg2d_iters(min,last) =      -1      69
(PID.TID 0000.0001)      cg2d_last_res =   5.49731377703224E-07
(PID.TID 0000.0001) // =======================================================
(PID.TID 0000.0001) // Begin MONITOR dynamic field statistics
(PID.TID 0000.0001) // =======================================================
(PID.TID 0000.0001) %MON time_tsnumber                =                 36010
(PID.TID 0000.0001) %MON time_secondsf                =   3.1112640000000E+09
(PID.TID 0000.0001) %MON dynstat_eta_max              =   7.2269461894415E-01
(PID.TID 0000.0001) %MON dynstat_eta_min              =  -1.1968643298618E+01
(PID.TID 0000.0001) %MON dynstat_eta_mean             =  -5.8223202373663E-01
(PID.TID 0000.0001) %MON dynstat_eta_sd               =   1.7000247572929E+00
(PID.TID 0000.0001) %MON dynstat_eta_del2             =   2.1298962218718E-02
(PID.TID 0000.0001) %MON dynstat_uvel_max             =   1.7444218618384E-01
(PID.TID 0000.0001) %MON dynstat_uvel_min             =  -2.6784554965632E-01
(PID.TID 0000.0001) %MON dynstat_uvel_mean            =  -5.2419687199987E-04
(PID.TID 0000.0001) %MON dynstat_uvel_sd              =   1.2974856842748E-02
(PID.TID 0000.0001) %MON dynstat_uvel_del2            =   5.8617295438288E-05
(PID.TID 0000.0001) %MON dynstat_vvel_max             =   1.9512033650751E-01
(PID.TID 0000.0001) %MON dynstat_vvel_min             =  -2.1140082959406E-01
(PID.TID 0000.0001) %MON dynstat_vvel_mean            =  -4.2043394617703E-04
(PID.TID 0000.0001) %MON dynstat_vvel_sd              =   1.3481144637380E-02
(PID.TID 0000.0001) %MON dynstat_vvel_del2            =   5.6016327461590E-05
(PID.TID 0000.0001) %MON dynstat_wvel_max             =   8.8407884842809E-05
(PID.TID 0000.0001) %MON dynstat_wvel_min             =  -1.7814070891997E-04
(PID.TID 0000.0001) %MON dynstat_wvel_mean            =  -1.2448531033377E-09
(PID.TID 0000.0001) %MON dynstat_wvel_sd              =   4.6215498162503E-06
(PID.TID 0000.0001) %MON dynstat_wvel_del2            =   4.0336889576974E-08
(PID.TID 0000.0001) %MON dynstat_theta_max            =   2.9958119859946E+01
(PID.TID 0000.0001) %MON dynstat_theta_min            =  -3.4036809616368E+00
(PID.TID 0000.0001) %MON dynstat_theta_mean           =   3.5034163499133E+00
(PID.TID 0000.0001) %MON dynstat_theta_sd             =   4.7496576982421E+00
(PID.TID 0000.0001) %MON dynstat_theta_del2           =   2.9623216622221E-03
(PID.TID 0000.0001) %MON dynstat_salt_max             =   4.0835604702298E+01
(PID.TID 0000.0001) %MON dynstat_salt_min             =   1.8036015617139E+01
(PID.TID 0000.0001) %MON dynstat_salt_mean            =   3.4756115375269E+01
(PID.TID 0000.0001) %MON dynstat_salt_sd              =   5.1181206773049E-01
(PID.TID 0000.0001) %MON dynstat_salt_del2            =   8.3999534888366E-04
(PID.TID 0000.0001) %MON forcing_qnet_max             =   7.9995380043531E+02
(PID.TID 0000.0001) %MON forcing_qnet_min             =  -2.3555062498890E+02
(PID.TID 0000.0001) %MON forcing_qnet_mean            =  -5.9983655174086E+00
(PID.TID 0000.0001) %MON forcing_qnet_sd              =   1.2037560300896E+02
(PID.TID 0000.0001) %MON forcing_qnet_del2            =   1.3156066264615E+00
(PID.TID 0000.0001) %MON forcing_qsw_max              =  -0.0000000000000E+00
(PID.TID 0000.0001) %MON forcing_qsw_min              =  -3.4012023736691E+02
(PID.TID 0000.0001) %MON forcing_qsw_mean             =  -1.8659203482219E+02
(PID.TID 0000.0001) %MON forcing_qsw_sd               =   7.9680831902408E+01
(PID.TID 0000.0001) %MON forcing_qsw_del2             =   6.8649272553574E-01
(PID.TID 0000.0001) %MON forcing_empmr_max            =   3.9435196456689E-04
(PID.TID 0000.0001) %MON forcing_empmr_min            =  -3.0800710359385E-04
(PID.TID 0000.0001) %MON forcing_empmr_mean           =  -5.0354930608311E-07
(PID.TID 0000.0001) %MON forcing_empmr_sd             =   4.9100192762225E-05
(PID.TID 0000.0001) %MON forcing_empmr_del2           =   9.3305393470557E-07
(PID.TID 0000.0001) %MON forcing_fu_max               =   2.4734156444157E-01
(PID.TID 0000.0001) %MON forcing_fu_min               =  -2.3124407967036E-01
(PID.TID 0000.0001) %MON forcing_fu_mean              =  -4.1565702432618E-03
(PID.TID 0000.0001) %MON forcing_fu_sd                =   6.4507945848906E-02
(PID.TID 0000.0001) %MON forcing_fu_del2              =   2.1494094672237E-04
(PID.TID 0000.0001) %MON forcing_fv_max               =   2.7696015458957E-01
(PID.TID 0000.0001) %MON forcing_fv_min               =  -3.3401105942538E-01
(PID.TID 0000.0001) %MON forcing_fv_mean              =  -1.3719831432204E-02
(PID.TID 0000.0001) %MON forcing_fv_sd                =   7.5878609891640E-02
(PID.TID 0000.0001) %MON forcing_fv_del2              =   2.4254447090673E-04
(PID.TID 0000.0001) %MON trAdv_CFL_u_max              =   7.5541362770170E-02
(PID.TID 0000.0001) %MON trAdv_CFL_v_max              =   9.0482520997575E-02
(PID.TID 0000.0001) %MON trAdv_CFL_w_max              =   6.4162747345072E-02
(PID.TID 0000.0001) %MON advcfl_uvel_max              =   7.5966078560799E-02
(PID.TID 0000.0001) %MON advcfl_vvel_max              =   8.5050205786528E-02
(PID.TID 0000.0001) %MON advcfl_wvel_max              =   5.8080593398811E-02
(PID.TID 0000.0001) %MON advcfl_W_hf_max              =   6.4162747345072E-02
(PID.TID 0000.0001) %MON pe_b_mean                    =  -1.9282480842208E-03
(PID.TID 0000.0001) %MON ke_max                       =   3.5781885248028E-02
(PID.TID 0000.0001) %MON ke_mean                      =   1.6186529910498E-04
(PID.TID 0000.0001) %MON ke_vol                       =   1.3395905635550E+18
(PID.TID 0000.0001) %MON vort_r_min                   =  -1.2529737858166E-06
(PID.TID 0000.0001) %MON vort_r_max                   =   1.3965939860381E-06
(PID.TID 0000.0001) %MON vort_a_mean                  =  -2.0549865324846E-05
(PID.TID 0000.0001) %MON vort_a_sd                    =   7.5259582386718E-05
(PID.TID 0000.0001) %MON vort_p_mean                  =  -2.4787196075558E-05
(PID.TID 0000.0001) %MON vort_p_sd                    =   1.2817301273723E-04
(PID.TID 0000.0001) %MON surfExpan_theta_mean         =   8.0316973817521E-08
(PID.TID 0000.0001) %MON surfExpan_salt_mean          =   1.9359959820812E-08
(PID.TID 0000.0001) // =======================================================
(PID.TID 0000.0001) // End MONITOR dynamic field statistics
(PID.TID 0000.0001) // =======================================================
(PID.TID 0000.0001) // =======================================================
(PID.TID 0000.0001) // Begin MONITOR Therm.SeaIce statistics
(PID.TID 0000.0001) // =======================================================
(PID.TID 0000.0001) %MON thSI_time_sec                =   3.1112640000000E+09
(PID.TID 0000.0001) %MON thSI_Ice_Area_G              =   2.4933286515916E+13
(PID.TID 0000.0001) %MON thSI_Ice_Area_S              =   1.1661566412654E+13
(PID.TID 0000.0001) %MON thSI_Ice_Area_N              =   1.3271720103262E+13
(PID.TID 0000.0001) %MON thSI_IceH_ave_G              =   4.5624639028307E+00
(PID.TID 0000.0001) %MON thSI_IceH_ave_S              =   5.8137965477317E+00
(PID.TID 0000.0001) %MON thSI_IceH_ave_N              =   3.4629456317025E+00
(PID.TID 0000.0001) %MON thSI_IceH_max_S              =   1.0000000000000E+01
(PID.TID 0000.0001) %MON thSI_IceH_max_N              =   1.0000000000000E+01
(PID.TID 0000.0001) %MON thSI_SnwH_ave_G              =   1.0136545501120E+00
(PID.TID 0000.0001) %MON thSI_SnwH_ave_S              =   1.7548154371120E+00
(PID.TID 0000.0001) %MON thSI_SnwH_ave_N              =   3.6241289952231E-01
(PID.TID 0000.0001) %MON thSI_SnwH_max_S              =   4.0934394895848E+00
(PID.TID 0000.0001) %MON thSI_SnwH_max_N              =   4.1035574323285E+00
(PID.TID 0000.0001) %MON thSI_Tsrf_ave_G              =  -1.7468597658423E+01
(PID.TID 0000.0001) %MON thSI_Tsrf_ave_S              =  -1.4074779608464E-01
(PID.TID 0000.0001) %MON thSI_Tsrf_ave_N              =  -3.2694195424646E+01
(PID.TID 0000.0001) %MON thSI_Tsrf_min_S              =  -5.4503642188740E+00
(PID.TID 0000.0001) %MON thSI_Tsrf_min_N              =  -4.7272274734662E+01
(PID.TID 0000.0001) %MON thSI_Tsrf_max_S              =   0.0000000000000E+00
(PID.TID 0000.0001) %MON thSI_Tsrf_max_N              =  -1.7599488521019E+00
(PID.TID 0000.0001) %MON thSI_Tic1_ave_G              =  -8.5482655062016E+00
(PID.TID 0000.0001) %MON thSI_Tic1_ave_S              =  -4.9478318865606E+00
(PID.TID 0000.0001) %MON thSI_Tic1_ave_N              =  -1.3859538702366E+01
(PID.TID 0000.0001) %MON thSI_Tic1_min_S              =  -1.5200081259997E+01
(PID.TID 0000.0001) %MON thSI_Tic1_min_N              =  -2.1277339270448E+01
(PID.TID 0000.0001) %MON thSI_Tic1_max_S              =  -1.8443012703804E-01
(PID.TID 0000.0001) %MON thSI_Tic1_max_N              =  -7.7875141527300E-01
(PID.TID 0000.0001) %MON thSI_Tic2_ave_G              =  -3.8686244690232E+00
(PID.TID 0000.0001) %MON thSI_Tic2_ave_S              =  -3.0693655290692E+00
(PID.TID 0000.0001) %MON thSI_Tic2_ave_N              =  -5.0476720596842E+00
(PID.TID 0000.0001) %MON thSI_Tic2_min_S              =  -8.5247450207759E+00
(PID.TID 0000.0001) %MON thSI_Tic2_min_N              =  -7.7317040368992E+00
(PID.TID 0000.0001) %MON thSI_Tic2_max_S              =  -1.1198515697979E+00
(PID.TID 0000.0001) %MON thSI_Tic2_max_N              =  -1.3025871678318E+00
(PID.TID 0000.0001) %MON thSI_TotEnerg_G              =  -3.8119442736415E+22
(PID.TID 0000.0001) // =======================================================
(PID.TID 0000.0001) // End MONITOR Therm.SeaIce statistics
(PID.TID 0000.0001) // =======================================================
 Computing Diagnostic #     23  ETAN         Counter:       1   Parms: SM      M1      
 Computing Diagnostic #     85  oceFWflx     Counter:       1   Parms: SM      U1      
 Computing Diagnostic #     26  THETA        Counter:       1   Parms: SMR     MR      
 Computing Diagnostic #     27  SALT         Counter:       1   Parms: SMR     MR      
 Compute Stats, Diag. #     23  ETAN      vol(   0 ): 3.639E+15  Parms: SM      M1      
 Compute Stats, Diag. #     24  ETANSQ    vol(   0 ): 3.639E+15  Parms: SM P    M1      
 Compute Stats, Diag. #     25  DETADT2   vol(   0 ): 3.639E+15  Parms: SM      M1      
 Compute Stats, Diag. #     26  THETA     vol(   0 ): 1.340E+19  Parms: SMR     MR      
 Compute Stats, Diag. #     27  SALT      vol(   0 ): 1.340E+19  Parms: SMR     MR      
 Compute Stats, Diag. #     80  CONVADJ   vol(   0 ): 1.315E+19  Parms: SMR     LR      
 Compute Stats, Diag. #     81  oceTAUX   vol(   0 ): 3.111E+15  Parms: UU      U1      
 Compute Stats, Diag. #     82  oceTAUY   vol(   0 ): 3.130E+15  Parms: VV      U1      
 Compute Stats, Diag. #     90  TRELAX    vol(   0 ): 3.275E+15  Parms: SM      U1      
 Compute Stats, Diag. #     91  SRELAX    vol(   0 ): 3.275E+15  Parms: SM      U1      
 Compute Stats, Diag. #     92  surForcT  vol(   0 ): 3.275E+15  Parms: SM      U1      
 Compute Stats, Diag. #     93  surForcS  vol(   0 ): 3.275E+15  Parms: SM      U1      
 Compute Stats, Diag. #     94  TFLUX     vol(   0 ): 3.275E+15  Parms: SM      U1      
 Compute Stats, Diag. #     95  SFLUX     vol(   0 ): 3.275E+15  Parms: SM      U1      
 Compute Stats, Diag. #     87  oceQnet   vol(   0 ): 3.275E+15  Parms: SM      U1      
 Compute Stats, Diag. #     86  oceSflux  vol(   0 ): 3.275E+15  Parms: SM      U1      
 Compute Stats, Diag. #     85  oceFWflx  vol(   0 ): 3.275E+15  Parms: SM      U1      
 Compute Stats, Diag. #    216  SI_Fract  vol(   0 ): 3.639E+15  Parms: SM P    M1      
 Compute Stats, Diag. #    216  SI_Fract  vol(   1 ): 1.289E+15  Parms: SM P    M1      
 Compute Stats, Diag. #    216  SI_Fract  vol(   3 ): 7.935E+14  Parms: SM P    M1      
 Compute Stats, Diag. #    217  SI_Thick  vol(   0 ): 2.483E+14  Parms: SM PC   M1      
    use Counter Mate  #    216  SI_Fract  vol(   0 ): 3.639E+15 integral 2.483E+14
 Compute Stats, Diag. #    217  SI_Thick  vol(   1 ): 1.189E+14  Parms: SM PC   M1      
    use Counter Mate  #    216  SI_Fract  vol(   1 ): 1.289E+15 integral 1.189E+14
 Compute Stats, Diag. #    217  SI_Thick  vol(   3 ): 1.294E+14  Parms: SM PC   M1      
    use Counter Mate  #    216  SI_Fract  vol(   3 ): 7.935E+14 integral 1.294E+14
 Compute Stats, Diag. #    218  SI_SnowH  vol(   0 ): 2.483E+14  Parms: SM PC   M1      
    use Counter Mate  #    216  SI_Fract  vol(   0 ): 3.639E+15 integral 2.483E+14
 Compute Stats, Diag. #    218  SI_SnowH  vol(   1 ): 1.189E+14  Parms: SM PC   M1      
    use Counter Mate  #    216  SI_Fract  vol(   1 ): 1.289E+15 integral 1.189E+14
 Compute Stats, Diag. #    218  SI_SnowH  vol(   3 ): 1.294E+14  Parms: SM PC   M1      
    use Counter Mate  #    216  SI_Fract  vol(   3 ): 7.935E+14 integral 1.294E+14
 Compute Stats, Diag. #    219  SI_Tsrf   vol(   0 ): 2.483E+14  Parms: SM  C   M1      
    use Counter Mate  #    216  SI_Fract  vol(   0 ): 3.639E+15 integral 2.483E+14
 Compute Stats, Diag. #    219  SI_Tsrf   vol(   1 ): 1.189E+14  Parms: SM  C   M1      
    use Counter Mate  #    216  SI_Fract  vol(   1 ): 1.289E+15 integral 1.189E+14
 Compute Stats, Diag. #    219  SI_Tsrf   vol(   3 ): 1.294E+14  Parms: SM  C   M1      
    use Counter Mate  #    216  SI_Fract  vol(   3 ): 7.935E+14 integral 1.294E+14
 Compute Stats, Diag. #    220  SI_Tice1  vol(   0 ): 2.483E+14  Parms: SM  C   M1      
    use Counter Mate  #    216  SI_Fract  vol(   0 ): 3.639E+15 integral 2.483E+14
 Compute Stats, Diag. #    220  SI_Tice1  vol(   1 ): 1.189E+14  Parms: SM  C   M1      
    use Counter Mate  #    216  SI_Fract  vol(   1 ): 1.289E+15 integral 1.189E+14
 Compute Stats, Diag. #    220  SI_Tice1  vol(   3 ): 1.294E+14  Parms: SM  C   M1      
    use Counter Mate  #    216  SI_Fract  vol(   3 ): 7.935E+14 integral 1.294E+14
 Compute Stats, Diag. #    221  SI_Tice2  vol(   0 ): 2.483E+14  Parms: SM  C   M1      
    use Counter Mate  #    216  SI_Fract  vol(   0 ): 3.639E+15 integral 2.483E+14
 Compute Stats, Diag. #    221  SI_Tice2  vol(   1 ): 1.189E+14  Parms: SM  C   M1      
    use Counter Mate  #    216  SI_Fract  vol(   1 ): 1.289E+15 integral 1.189E+14
 Compute Stats, Diag. #    221  SI_Tice2  vol(   3 ): 1.294E+14  Parms: SM  C   M1      
    use Counter Mate  #    216  SI_Fract  vol(   3 ): 7.935E+14 integral 1.294E+14
 Compute Stats, Diag. #    222  SI_Qice1  vol(   0 ): 1.136E+15  Parms: SM  C   M1      
    use Counter Mate  #    217  SI_Thick  vol(   0 ): 2.483E+14 integral 1.136E+15
 Compute Stats, Diag. #    222  SI_Qice1  vol(   1 ): 6.824E+14  Parms: SM  C   M1      
    use Counter Mate  #    217  SI_Thick  vol(   1 ): 1.189E+14 integral 6.824E+14
 Compute Stats, Diag. #    222  SI_Qice1  vol(   3 ): 4.532E+14  Parms: SM  C   M1      
    use Counter Mate  #    217  SI_Thick  vol(   3 ): 1.294E+14 integral 4.532E+14
 Compute Stats, Diag. #    223  SI_Qice2  vol(   0 ): 1.136E+15  Parms: SM  C   M1      
    use Counter Mate  #    217  SI_Thick  vol(   0 ): 2.483E+14 integral 1.136E+15
 Compute Stats, Diag. #    223  SI_Qice2  vol(   1 ): 6.824E+14  Parms: SM  C   M1      
    use Counter Mate  #    217  SI_Thick  vol(   1 ): 1.189E+14 integral 6.824E+14
 Compute Stats, Diag. #    223  SI_Qice2  vol(   3 ): 4.532E+14  Parms: SM  C   M1      
    use Counter Mate  #    217  SI_Thick  vol(   3 ): 1.294E+14 integral 4.532E+14
 Compute Stats, Diag. #    226  SIsnwPrc  vol(   0 ): 2.483E+14  Parms: SM  C   M1      
    use Counter Mate  #    216  SI_Fract  vol(   0 ): 3.639E+15 integral 2.483E+14
 Compute Stats, Diag. #    226  SIsnwPrc  vol(   1 ): 1.189E+14  Parms: SM  C   M1      
    use Counter Mate  #    216  SI_Fract  vol(   1 ): 1.289E+15 integral 1.189E+14
 Compute Stats, Diag. #    226  SIsnwPrc  vol(   3 ): 1.294E+14  Parms: SM  C   M1      
    use Counter Mate  #    216  SI_Fract  vol(   3 ): 7.935E+14 integral 1.294E+14
 Compute Stats, Diag. #    225  SIalbedo  vol(   0 ): 2.483E+14  Parms: SM PC   M1      
    use Counter Mate  #    216  SI_Fract  vol(   0 ): 3.639E+15 integral 2.483E+14
 Compute Stats, Diag. #    225  SIalbedo  vol(   1 ): 1.189E+14  Parms: SM PC   M1      
    use Counter Mate  #    216  SI_Fract  vol(   1 ): 1.289E+15 integral 1.189E+14
 Compute Stats, Diag. #    225  SIalbedo  vol(   3 ): 1.294E+14  Parms: SM PC   M1      
    use Counter Mate  #    216  SI_Fract  vol(   3 ): 7.935E+14 integral 1.294E+14
 Compute Stats, Diag. #    224  SIsnwAge  vol(   0 ): 3.639E+15  Parms: SM P    M1      
 Compute Stats, Diag. #    224  SIsnwAge  vol(   1 ): 1.289E+15  Parms: SM P    M1      
 Compute Stats, Diag. #    224  SIsnwAge  vol(   3 ): 7.935E+14  Parms: SM P    M1      
 Compute Stats, Diag. #    229  SIflx2oc  vol(   0 ): 3.639E+15  Parms: SM      M1      
 Compute Stats, Diag. #    229  SIflx2oc  vol(   1 ): 1.289E+15  Parms: SM      M1      
 Compute Stats, Diag. #    229  SIflx2oc  vol(   3 ): 7.935E+14  Parms: SM      M1      
 Compute Stats, Diag. #    230  SIfrw2oc  vol(   0 ): 3.639E+15  Parms: SM      M1      
 Compute Stats, Diag. #    230  SIfrw2oc  vol(   1 ): 1.289E+15  Parms: SM      M1      
 Compute Stats, Diag. #    230  SIfrw2oc  vol(   3 ): 7.935E+14  Parms: SM      M1      
 Compute Stats, Diag. #    231  SIsaltFx  vol(   0 ): 3.639E+15  Parms: SM      M1      
 Compute Stats, Diag. #    231  SIsaltFx  vol(   1 ): 1.289E+15  Parms: SM      M1      
 Compute Stats, Diag. #    231  SIsaltFx  vol(   3 ): 7.935E+14  Parms: SM      M1      
 Compute Stats, Diag. #    227  SIflxAtm  vol(   0 ): 3.639E+15  Parms: SM      M1      
 Compute Stats, Diag. #    227  SIflxAtm  vol(   1 ): 1.289E+15  Parms: SM      M1      
 Compute Stats, Diag. #    227  SIflxAtm  vol(   3 ): 7.935E+14  Parms: SM      M1      
 Compute Stats, Diag. #    228  SIfrwAtm  vol(   0 ): 3.639E+15  Parms: SM      M1      
 Compute Stats, Diag. #    228  SIfrwAtm  vol(   1 ): 1.289E+15  Parms: SM      M1      
 Compute Stats, Diag. #    228  SIfrwAtm  vol(   3 ): 7.935E+14  Parms: SM      M1      
 BULKF_FIELDS_LOAD,     36010 : iP,iLd,i0,i1=   12    1   12    1 ; Wght=  0.1666666667  0.8333333333
 EXTERNAL_FIELDS_LOAD,     36010 : iP,iLd,i0,i1=   12    1   12    1 ; Wght=  0.1666666667  0.8333333333
 cg2d: Sum(rhs),rhsMax =   3.91430053363311E+02  2.29949209877971E+02
(PID.TID 0000.0001)      cg2d_init_res =   2.65473007370466E+00
(PID.TID 0000.0001)      cg2d_iters(min,last) =      -1      69
(PID.TID 0000.0001)      cg2d_last_res =   5.65411513335258E-07
(PID.TID 0000.0001) // =======================================================
(PID.TID 0000.0001) // Begin MONITOR dynamic field statistics
(PID.TID 0000.0001) // =======================================================
(PID.TID 0000.0001) %MON time_tsnumber                =                 36011
(PID.TID 0000.0001) %MON time_secondsf                =   3.1113504000000E+09
(PID.TID 0000.0001) %MON dynstat_eta_max              =   7.2133778035296E-01
(PID.TID 0000.0001) %MON dynstat_eta_min              =  -1.1966121739929E+01
(PID.TID 0000.0001) %MON dynstat_eta_mean             =  -5.8219076197557E-01
(PID.TID 0000.0001) %MON dynstat_eta_sd               =   1.6995329290936E+00
(PID.TID 0000.0001) %MON dynstat_eta_del2             =   2.1308344336206E-02
(PID.TID 0000.0001) %MON dynstat_uvel_max             =   1.7429456819556E-01
(PID.TID 0000.0001) %MON dynstat_uvel_min             =  -2.6740964330081E-01
(PID.TID 0000.0001) %MON dynstat_uvel_mean            =  -5.2370505639756E-04
(PID.TID 0000.0001) %MON dynstat_uvel_sd              =   1.2973020087665E-02
(PID.TID 0000.0001) %MON dynstat_uvel_del2            =   5.8595228101310E-05
(PID.TID 0000.0001) %MON dynstat_vvel_max             =   1.9497543223960E-01
(PID.TID 0000.0001) %MON dynstat_vvel_min             =  -2.1144940829608E-01
(PID.TID 0000.0001) %MON dynstat_vvel_mean            =  -4.1972350706780E-04
(PID.TID 0000.0001) %MON dynstat_vvel_sd              =   1.3479886940336E-02
(PID.TID 0000.0001) %MON dynstat_vvel_del2            =   5.5983789599792E-05
(PID.TID 0000.0001) %MON dynstat_wvel_max             =   8.9149583001873E-05
(PID.TID 0000.0001) %MON dynstat_wvel_min             =  -1.7801169490510E-04
(PID.TID 0000.0001) %MON dynstat_wvel_mean            =  -1.2142998977972E-09
(PID.TID 0000.0001) %MON dynstat_wvel_sd              =   4.6213515824136E-06
(PID.TID 0000.0001) %MON dynstat_wvel_del2            =   4.0333535023482E-08
(PID.TID 0000.0001) %MON dynstat_theta_max            =   2.9936907654157E+01
(PID.TID 0000.0001) %MON dynstat_theta_min            =  -3.4218797465325E+00
(PID.TID 0000.0001) %MON dynstat_theta_mean           =   3.5034854357085E+00
(PID.TID 0000.0001) %MON dynstat_theta_sd             =   4.7497764791464E+00
(PID.TID 0000.0001) %MON dynstat_theta_del2           =   2.9662371059859E-03
(PID.TID 0000.0001) %MON dynstat_salt_max             =   4.0836865299853E+01
(PID.TID 0000.0001) %MON dynstat_salt_min             =   1.8036636181227E+01
(PID.TID 0000.0001) %MON dynstat_salt_mean            =   3.4756115946433E+01
(PID.TID 0000.0001) %MON dynstat_salt_sd              =   5.1180506910477E-01
(PID.TID 0000.0001) %MON dynstat_salt_del2            =   8.4043771636663E-04
(PID.TID 0000.0001) %MON forcing_qnet_max             =   8.0308314630627E+02
(PID.TID 0000.0001) %MON forcing_qnet_min             =  -2.3517256140099E+02
(PID.TID 0000.0001) %MON forcing_qnet_mean            =  -6.1225462799150E+00
(PID.TID 0000.0001) %MON forcing_qnet_sd              =   1.2034785763421E+02
(PID.TID 0000.0001) %MON forcing_qnet_del2            =   1.3186501315849E+00
(PID.TID 0000.0001) %MON forcing_qsw_max              =  -0.0000000000000E+00
(PID.TID 0000.0001) %MON forcing_qsw_min              =  -3.3991619471971E+02
(PID.TID 0000.0001) %MON forcing_qsw_mean             =  -1.8660428419199E+02
(PID.TID 0000.0001) %MON forcing_qsw_sd               =   7.9542884643675E+01
(PID.TID 0000.0001) %MON forcing_qsw_del2             =   6.8374970327658E-01
(PID.TID 0000.0001) %MON forcing_empmr_max            =   7.5876472359812E-04
(PID.TID 0000.0001) %MON forcing_empmr_min            =  -3.1398561138375E-04
(PID.TID 0000.0001) %MON forcing_empmr_mean           =  -4.9428151266508E-07
(PID.TID 0000.0001) %MON forcing_empmr_sd             =   4.9699900875884E-05
(PID.TID 0000.0001) %MON forcing_empmr_del2           =   1.0417868891224E-06
(PID.TID 0000.0001) %MON forcing_fu_max               =   2.4760593894036E-01
(PID.TID 0000.0001) %MON forcing_fu_min               =  -2.3438987632871E-01
(PID.TID 0000.0001) %MON forcing_fu_mean              =  -4.1130913075284E-03
(PID.TID 0000.0001) %MON forcing_fu_sd                =   6.4637716330841E-02
(PID.TID 0000.0001) %MON forcing_fu_del2              =   2.1715397508819E-04
(PID.TID 0000.0001) %MON forcing_fv_max               =   2.7964339616220E-01
(PID.TID 0000.0001) %MON forcing_fv_min               =  -3.3479896335931E-01
(PID.TID 0000.0001) %MON forcing_fv_mean              =  -1.3723756978131E-02
(PID.TID 0000.0001) %MON forcing_fv_sd                =   7.6010073816084E-02
(PID.TID 0000.0001) %MON forcing_fv_del2              =   2.4447772305236E-04
(PID.TID 0000.0001) %MON trAdv_CFL_u_max              =   7.5418422767935E-02
(PID.TID 0000.0001) %MON trAdv_CFL_v_max              =   9.0415224479694E-02
(PID.TID 0000.0001) %MON trAdv_CFL_w_max              =   6.4116298754927E-02
(PID.TID 0000.0001) %MON advcfl_uvel_max              =   7.5842447249806E-02
(PID.TID 0000.0001) %MON advcfl_vvel_max              =   8.4987044057591E-02
(PID.TID 0000.0001) %MON advcfl_wvel_max              =   5.8038529961511E-02
(PID.TID 0000.0001) %MON advcfl_W_hf_max              =   6.4116298754927E-02
(PID.TID 0000.0001) %MON pe_b_mean                    =  -1.9272689806739E-03
(PID.TID 0000.0001) %MON ke_max                       =   3.5651947029316E-02
(PID.TID 0000.0001) %MON ke_mean                      =   1.6182717568007E-04
(PID.TID 0000.0001) %MON ke_vol                       =   1.3395905788512E+18
(PID.TID 0000.0001) %MON vort_r_min                   =  -1.2580745651234E-06
(PID.TID 0000.0001) %MON vort_r_max                   =   1.3999289681712E-06
(PID.TID 0000.0001) %MON vort_a_mean                  =  -2.0549865324846E-05
(PID.TID 0000.0001) %MON vort_a_sd                    =   7.5259582318682E-05
(PID.TID 0000.0001) %MON vort_p_mean                  =  -2.4787195461718E-05
(PID.TID 0000.0001) %MON vort_p_sd                    =   1.2817301246585E-04
(PID.TID 0000.0001) %MON surfExpan_theta_mean         =   7.9424991785760E-08
(PID.TID 0000.0001) %MON surfExpan_salt_mean          =   1.9274757104471E-08
(PID.TID 0000.0001) // =======================================================
(PID.TID 0000.0001) // End MONITOR dynamic field statistics
(PID.TID 0000.0001) // =======================================================
(PID.TID 0000.0001) // =======================================================
(PID.TID 0000.0001) // Begin MONITOR Therm.SeaIce statistics
(PID.TID 0000.0001) // =======================================================
(PID.TID 0000.0001) %MON thSI_time_sec                =   3.1113504000000E+09
(PID.TID 0000.0001) %MON thSI_Ice_Area_G              =   2.4960627938352E+13
(PID.TID 0000.0001) %MON thSI_Ice_Area_S              =   1.1630145556876E+13
(PID.TID 0000.0001) %MON thSI_Ice_Area_N              =   1.3330482381476E+13
(PID.TID 0000.0001) %MON thSI_IceH_ave_G              =   4.5573028449870E+00
(PID.TID 0000.0001) %MON thSI_IceH_ave_S              =   5.8227223140667E+00
(PID.TID 0000.0001) %MON thSI_IceH_ave_N              =   3.4532908374131E+00
(PID.TID 0000.0001) %MON thSI_IceH_max_S              =   1.0000000000000E+01
(PID.TID 0000.0001) %MON thSI_IceH_max_N              =   1.0000000000000E+01
(PID.TID 0000.0001) %MON thSI_SnwH_ave_G              =   1.0092440302472E+00
(PID.TID 0000.0001) %MON thSI_SnwH_ave_S              =   1.7491206294025E+00
(PID.TID 0000.0001) %MON thSI_SnwH_ave_N              =   3.6374056712709E-01
(PID.TID 0000.0001) %MON thSI_SnwH_max_S              =   4.0933694913690E+00
(PID.TID 0000.0001) %MON thSI_SnwH_max_N              =   4.1039023880697E+00
(PID.TID 0000.0001) %MON thSI_Tsrf_ave_G              =  -1.7519345350090E+01
(PID.TID 0000.0001) %MON thSI_Tsrf_ave_S              =  -1.2181571180146E-01
(PID.TID 0000.0001) %MON thSI_Tsrf_ave_N              =  -3.2697775974965E+01
(PID.TID 0000.0001) %MON thSI_Tsrf_min_S              =  -5.4663954164951E+00
(PID.TID 0000.0001) %MON thSI_Tsrf_min_N              =  -4.7387246708702E+01
(PID.TID 0000.0001) %MON thSI_Tsrf_max_S              =   0.0000000000000E+00
(PID.TID 0000.0001) %MON thSI_Tsrf_max_N              =  -4.6874126594666E+00
(PID.TID 0000.0001) %MON thSI_Tic1_ave_G              =  -8.5706469203080E+00
(PID.TID 0000.0001) %MON thSI_Tic1_ave_S              =  -4.9273126850388E+00
(PID.TID 0000.0001) %MON thSI_Tic1_ave_N              =  -1.3930232653949E+01
(PID.TID 0000.0001) %MON thSI_Tic1_min_S              =  -1.5062924514522E+01
(PID.TID 0000.0001) %MON thSI_Tic1_min_N              =  -2.1336227117518E+01
(PID.TID 0000.0001) %MON thSI_Tic1_max_S              =  -1.7796760433230E-01
(PID.TID 0000.0001) %MON thSI_Tic1_max_N              =  -7.9925794181220E-01
(PID.TID 0000.0001) %MON thSI_Tic2_ave_G              =  -3.8792218108004E+00
(PID.TID 0000.0001) %MON thSI_Tic2_ave_S              =  -3.0653744736774E+00
(PID.TID 0000.0001) %MON thSI_Tic2_ave_N              =  -5.0764450946761E+00
(PID.TID 0000.0001) %MON thSI_Tic2_min_S              =  -8.4936462531452E+00
(PID.TID 0000.0001) %MON thSI_Tic2_min_N              =  -7.7611114768798E+00
(PID.TID 0000.0001) %MON thSI_Tic2_max_S              =  -1.0860980866157E+00
(PID.TID 0000.0001) %MON thSI_Tic2_max_N              =  -1.3180902996671E+00
(PID.TID 0000.0001) %MON thSI_TotEnerg_G              =  -3.8111679308348E+22
(PID.TID 0000.0001) // =======================================================
(PID.TID 0000.0001) // End MONITOR Therm.SeaIce statistics
(PID.TID 0000.0001) // =======================================================
 Computing Diagnostic #     23  ETAN         Counter:       1   Parms: SM      M1      
 Compute Stats, Diag. #     23  ETAN      vol(   0 ): 3.639E+14  Parms: SM      M1      
 Compute Stats, Diag. #     26  THETA     vol(   0 ): 1.340E+18  Parms: SMR     MR      
 Compute Stats, Diag. #     27  SALT      vol(   0 ): 1.340E+18  Parms: SMR     MR      
 BULKF_FIELDS_LOAD,     36011 : iP,iLd,i0,i1=   12    1   12    1 ; Wght=  0.1333333333  0.8666666667
 EXTERNAL_FIELDS_LOAD,     36011 : iP,iLd,i0,i1=   12    1   12    1 ; Wght=  0.1333333333  0.8666666667
 cg2d: Sum(rhs),rhsMax =   3.91394256925504E+02  2.30056127239742E+02
(PID.TID 0000.0001)      cg2d_init_res =   2.65160765513424E+00
(PID.TID 0000.0001)      cg2d_iters(min,last) =      -1      69
(PID.TID 0000.0001)      cg2d_last_res =   5.66727038054527E-07
(PID.TID 0000.0001) // =======================================================
(PID.TID 0000.0001) // Begin MONITOR dynamic field statistics
(PID.TID 0000.0001) // =======================================================
(PID.TID 0000.0001) %MON time_tsnumber                =                 36012
(PID.TID 0000.0001) %MON time_secondsf                =   3.1114368000000E+09
(PID.TID 0000.0001) %MON dynstat_eta_max              =   7.1998002302365E-01
(PID.TID 0000.0001) %MON dynstat_eta_min              =  -1.1963456015786E+01
(PID.TID 0000.0001) %MON dynstat_eta_mean             =  -5.8213752039327E-01
(PID.TID 0000.0001) %MON dynstat_eta_sd               =   1.6990452451423E+00
(PID.TID 0000.0001) %MON dynstat_eta_del2             =   2.1317232106943E-02
(PID.TID 0000.0001) %MON dynstat_uvel_max             =   1.7409162907939E-01
(PID.TID 0000.0001) %MON dynstat_uvel_min             =  -2.6696042794539E-01
(PID.TID 0000.0001) %MON dynstat_uvel_mean            =  -5.2315545399180E-04
(PID.TID 0000.0001) %MON dynstat_uvel_sd              =   1.2971349498776E-02
(PID.TID 0000.0001) %MON dynstat_uvel_del2            =   5.8574975721426E-05
(PID.TID 0000.0001) %MON dynstat_vvel_max             =   1.9477078073262E-01
(PID.TID 0000.0001) %MON dynstat_vvel_min             =  -2.1149266127103E-01
(PID.TID 0000.0001) %MON dynstat_vvel_mean            =  -4.1907432060383E-04
(PID.TID 0000.0001) %MON dynstat_vvel_sd              =   1.3478198007150E-02
(PID.TID 0000.0001) %MON dynstat_vvel_del2            =   5.5952807258237E-05
(PID.TID 0000.0001) %MON dynstat_wvel_max             =   8.9863326435938E-05
(PID.TID 0000.0001) %MON dynstat_wvel_min             =  -1.7784715888428E-04
(PID.TID 0000.0001) %MON dynstat_wvel_mean            =  -1.2392739214126E-09
(PID.TID 0000.0001) %MON dynstat_wvel_sd              =   4.6212669514679E-06
(PID.TID 0000.0001) %MON dynstat_wvel_del2            =   4.0329119086137E-08
(PID.TID 0000.0001) %MON dynstat_theta_max            =   2.9915790831889E+01
(PID.TID 0000.0001) %MON dynstat_theta_min            =  -3.4400684220528E+00
(PID.TID 0000.0001) %MON dynstat_theta_mean           =   3.5035551292716E+00
(PID.TID 0000.0001) %MON dynstat_theta_sd             =   4.7499010391371E+00
(PID.TID 0000.0001) %MON dynstat_theta_del2           =   2.9694497676496E-03
(PID.TID 0000.0001) %MON dynstat_salt_max             =   4.0837993197852E+01
(PID.TID 0000.0001) %MON dynstat_salt_min             =   1.8037366115328E+01
(PID.TID 0000.0001) %MON dynstat_salt_mean            =   3.4756116431802E+01
(PID.TID 0000.0001) %MON dynstat_salt_sd              =   5.1179759281426E-01
(PID.TID 0000.0001) %MON dynstat_salt_del2            =   8.4093480110628E-04
(PID.TID 0000.0001) %MON forcing_qnet_max             =   8.0618613656417E+02
(PID.TID 0000.0001) %MON forcing_qnet_min             =  -2.3479639233334E+02
(PID.TID 0000.0001) %MON forcing_qnet_mean            =  -6.1975696411389E+00
(PID.TID 0000.0001) %MON forcing_qnet_sd              =   1.2039718104639E+02
(PID.TID 0000.0001) %MON forcing_qnet_del2            =   1.3291629574023E+00
(PID.TID 0000.0001) %MON forcing_qsw_max              =  -0.0000000000000E+00
(PID.TID 0000.0001) %MON forcing_qsw_min              =  -3.3971215207251E+02
(PID.TID 0000.0001) %MON forcing_qsw_mean             =  -1.8660841272219E+02
(PID.TID 0000.0001) %MON forcing_qsw_sd               =   7.9414217273575E+01
(PID.TID 0000.0001) %MON forcing_qsw_del2             =   6.8110788107131E-01
(PID.TID 0000.0001) %MON forcing_empmr_max            =   7.4982640774907E-04
(PID.TID 0000.0001) %MON forcing_empmr_min            =  -3.1808880037995E-04
(PID.TID 0000.0001) %MON forcing_empmr_mean           =  -6.3778978802932E-07
(PID.TID 0000.0001) %MON forcing_empmr_sd             =   4.9426417370212E-05
(PID.TID 0000.0001) %MON forcing_empmr_del2           =   1.0340729607038E-06
(PID.TID 0000.0001) %MON forcing_fu_max               =   2.4787031343914E-01
(PID.TID 0000.0001) %MON forcing_fu_min               =  -2.3765894517478E-01
(PID.TID 0000.0001) %MON forcing_fu_mean              =  -4.0696123717950E-03
(PID.TID 0000.0001) %MON forcing_fu_sd                =   6.4780529365136E-02
(PID.TID 0000.0001) %MON forcing_fu_del2              =   2.1957106468296E-04
(PID.TID 0000.0001) %MON forcing_fv_max               =   2.8232663773484E-01
(PID.TID 0000.0001) %MON forcing_fv_min               =  -3.3558686729325E-01
(PID.TID 0000.0001) %MON forcing_fv_mean              =  -1.3727682524059E-02
(PID.TID 0000.0001) %MON forcing_fv_sd                =   7.6151553873676E-02
(PID.TID 0000.0001) %MON forcing_fv_del2              =   2.4658872547121E-04
(PID.TID 0000.0001) %MON trAdv_CFL_u_max              =   7.5291729277648E-02
(PID.TID 0000.0001) %MON trAdv_CFL_v_max              =   9.0320219901504E-02
(PID.TID 0000.0001) %MON trAdv_CFL_w_max              =   6.4057060804662E-02
(PID.TID 0000.0001) %MON advcfl_uvel_max              =   7.5715041253983E-02
(PID.TID 0000.0001) %MON advcfl_vvel_max              =   8.4897839348873E-02
(PID.TID 0000.0001) %MON advcfl_wvel_max              =   5.7984885009817E-02
(PID.TID 0000.0001) %MON advcfl_W_hf_max              =   6.4057060804662E-02
(PID.TID 0000.0001) %MON pe_b_mean                    =  -1.9262784342394E-03
(PID.TID 0000.0001) %MON ke_max                       =   3.5519413881251E-02
(PID.TID 0000.0001) %MON ke_mean                      =   1.6178564146996E-04
(PID.TID 0000.0001) %MON ke_vol                       =   1.3395905938658E+18
(PID.TID 0000.0001) %MON vort_r_min                   =  -1.2632151392792E-06
(PID.TID 0000.0001) %MON vort_r_max                   =   1.4031318800208E-06
(PID.TID 0000.0001) %MON vort_a_mean                  =  -2.0549865324846E-05
(PID.TID 0000.0001) %MON vort_a_sd                    =   7.5259582247838E-05
(PID.TID 0000.0001) %MON vort_p_mean                  =  -2.4787194883723E-05
(PID.TID 0000.0001) %MON vort_p_sd                    =   1.2817301389000E-04
(PID.TID 0000.0001) %MON surfExpan_theta_mean         =   7.8752435243635E-08
(PID.TID 0000.0001) %MON surfExpan_salt_mean          =   1.9409730019708E-08
(PID.TID 0000.0001) // =======================================================
(PID.TID 0000.0001) // End MONITOR dynamic field statistics
(PID.TID 0000.0001) // =======================================================
(PID.TID 0000.0001) // =======================================================
(PID.TID 0000.0001) // Begin MONITOR Therm.SeaIce statistics
(PID.TID 0000.0001) // =======================================================
(PID.TID 0000.0001) %MON thSI_time_sec                =   3.1114368000000E+09
(PID.TID 0000.0001) %MON thSI_Ice_Area_G              =   2.4959594646959E+13
(PID.TID 0000.0001) %MON thSI_Ice_Area_S              =   1.1597617737474E+13
(PID.TID 0000.0001) %MON thSI_Ice_Area_N              =   1.3361976909485E+13
(PID.TID 0000.0001) %MON thSI_IceH_ave_G              =   4.5571345094920E+00
(PID.TID 0000.0001) %MON thSI_IceH_ave_S              =   5.8321985434588E+00
(PID.TID 0000.0001) %MON thSI_IceH_ave_N              =   3.4504341045354E+00
(PID.TID 0000.0001) %MON thSI_IceH_max_S              =   1.0000000000000E+01
(PID.TID 0000.0001) %MON thSI_IceH_max_N              =   1.0000000000000E+01
(PID.TID 0000.0001) %MON thSI_SnwH_ave_G              =   1.0060609002025E+00
(PID.TID 0000.0001) %MON thSI_SnwH_ave_S              =   1.7436922598226E+00
(PID.TID 0000.0001) %MON thSI_SnwH_ave_N              =   3.6582879996782E-01
(PID.TID 0000.0001) %MON thSI_SnwH_max_S              =   4.0933038649459E+00
(PID.TID 0000.0001) %MON thSI_SnwH_max_N              =   4.1042557275566E+00
(PID.TID 0000.0001) %MON thSI_Tsrf_ave_G              =  -1.7605559379413E+01
(PID.TID 0000.0001) %MON thSI_Tsrf_ave_S              =  -1.4447214275505E-01
(PID.TID 0000.0001) %MON thSI_Tsrf_ave_N              =  -3.2761027497883E+01
(PID.TID 0000.0001) %MON thSI_Tsrf_min_S              =  -5.4823886114869E+00
(PID.TID 0000.0001) %MON thSI_Tsrf_min_N              =  -4.7502282663241E+01
(PID.TID 0000.0001) %MON thSI_Tsrf_max_S              =   0.0000000000000E+00
(PID.TID 0000.0001) %MON thSI_Tsrf_max_N              =  -6.2635133975450E+00
(PID.TID 0000.0001) %MON thSI_Tic1_ave_G              =  -8.5900253504835E+00
(PID.TID 0000.0001) %MON thSI_Tic1_ave_S              =  -4.9023031299174E+00
(PID.TID 0000.0001) %MON thSI_Tic1_ave_N              =  -1.4000244231234E+01
(PID.TID 0000.0001) %MON thSI_Tic1_min_S              =  -1.4927329889637E+01
(PID.TID 0000.0001) %MON thSI_Tic1_min_N              =  -2.1393169095210E+01
(PID.TID 0000.0001) %MON thSI_Tic1_max_S              =  -1.7192320878124E-01
(PID.TID 0000.0001) %MON thSI_Tic1_max_N              =  -8.2070435574469E-01
(PID.TID 0000.0001) %MON thSI_Tic2_ave_G              =  -3.8897184535611E+00
(PID.TID 0000.0001) %MON thSI_Tic2_ave_S              =  -3.0614198080904E+00
(PID.TID 0000.0001) %MON thSI_Tic2_ave_N              =  -5.1049067737752E+00
(PID.TID 0000.0001) %MON thSI_Tic2_min_S              =  -8.4612723721762E+00
(PID.TID 0000.0001) %MON thSI_Tic2_min_N              =  -7.7895917567874E+00
(PID.TID 0000.0001) %MON thSI_Tic2_max_S              =  -1.0567702524693E+00
(PID.TID 0000.0001) %MON thSI_Tic2_max_N              =  -1.3332469944899E+00
(PID.TID 0000.0001) %MON thSI_TotEnerg_G              =  -3.8102307406360E+22
(PID.TID 0000.0001) // =======================================================
(PID.TID 0000.0001) // End MONITOR Therm.SeaIce statistics
(PID.TID 0000.0001) // =======================================================
 BULKF_FIELDS_LOAD,     36012 : iP,iLd,i0,i1=   12    1   12    1 ; Wght=  0.1000000000  0.9000000000
 EXTERNAL_FIELDS_LOAD,     36012 : iP,iLd,i0,i1=   12    1   12    1 ; Wght=  0.1000000000  0.9000000000
 cg2d: Sum(rhs),rhsMax =   3.91348157665401E+02  2.30164966933216E+02
(PID.TID 0000.0001)      cg2d_init_res =   2.62884063978665E+00
(PID.TID 0000.0001)      cg2d_iters(min,last) =      -1      69
(PID.TID 0000.0001)      cg2d_last_res =   5.59494561633566E-07
(PID.TID 0000.0001) // =======================================================
(PID.TID 0000.0001) // Begin MONITOR dynamic field statistics
(PID.TID 0000.0001) // =======================================================
(PID.TID 0000.0001) %MON time_tsnumber                =                 36013
(PID.TID 0000.0001) %MON time_secondsf                =   3.1115232000000E+09
(PID.TID 0000.0001) %MON dynstat_eta_max              =   7.1867064325639E-01
(PID.TID 0000.0001) %MON dynstat_eta_min              =  -1.1960637752693E+01
(PID.TID 0000.0001) %MON dynstat_eta_mean             =  -5.8206895498002E-01
(PID.TID 0000.0001) %MON dynstat_eta_sd               =   1.6985605146016E+00
(PID.TID 0000.0001) %MON dynstat_eta_del2             =   2.1326339013812E-02
(PID.TID 0000.0001) %MON dynstat_uvel_max             =   1.7383838721564E-01
(PID.TID 0000.0001) %MON dynstat_uvel_min             =  -2.6649779542450E-01
(PID.TID 0000.0001) %MON dynstat_uvel_mean            =  -5.2253201502238E-04
(PID.TID 0000.0001) %MON dynstat_uvel_sd              =   1.2969869576480E-02
(PID.TID 0000.0001) %MON dynstat_uvel_del2            =   5.8556807374379E-05
(PID.TID 0000.0001) %MON dynstat_vvel_max             =   1.9450651525009E-01
(PID.TID 0000.0001) %MON dynstat_vvel_min             =  -2.1153084057609E-01
(PID.TID 0000.0001) %MON dynstat_vvel_mean            =  -4.1848507832980E-04
(PID.TID 0000.0001) %MON dynstat_vvel_sd              =   1.3476105471785E-02
(PID.TID 0000.0001) %MON dynstat_vvel_del2            =   5.5923412197013E-05
(PID.TID 0000.0001) %MON dynstat_wvel_max             =   9.0539858371148E-05
(PID.TID 0000.0001) %MON dynstat_wvel_min             =  -1.7765244293829E-04
(PID.TID 0000.0001) %MON dynstat_wvel_mean            =  -1.2709560289924E-09
(PID.TID 0000.0001) %MON dynstat_wvel_sd              =   4.6212701859244E-06
(PID.TID 0000.0001) %MON dynstat_wvel_del2            =   4.0323142733925E-08
(PID.TID 0000.0001) %MON dynstat_theta_max            =   2.9894814064466E+01
(PID.TID 0000.0001) %MON dynstat_theta_min            =  -3.4582315161652E+00
(PID.TID 0000.0001) %MON dynstat_theta_mean           =   3.5036251353959E+00
(PID.TID 0000.0001) %MON dynstat_theta_sd             =   4.7500312121677E+00
(PID.TID 0000.0001) %MON dynstat_theta_del2           =   2.9740531626335E-03
(PID.TID 0000.0001) %MON dynstat_salt_max             =   4.0838988775951E+01
(PID.TID 0000.0001) %MON dynstat_salt_min             =   1.8038470029215E+01
(PID.TID 0000.0001) %MON dynstat_salt_mean            =   3.4756116802187E+01
(PID.TID 0000.0001) %MON dynstat_salt_sd              =   5.1178903943919E-01
(PID.TID 0000.0001) %MON dynstat_salt_del2            =   8.4207618357871E-04
(PID.TID 0000.0001) %MON forcing_qnet_max             =   8.0926480602257E+02
(PID.TID 0000.0001) %MON forcing_qnet_min             =  -2.3442206880392E+02
(PID.TID 0000.0001) %MON forcing_qnet_mean            =  -6.2285144918851E+00
(PID.TID 0000.0001) %MON forcing_qnet_sd              =   1.2045416702846E+02
(PID.TID 0000.0001) %MON forcing_qnet_del2            =   1.3268816971196E+00
(PID.TID 0000.0001) %MON forcing_qsw_max              =  -0.0000000000000E+00
(PID.TID 0000.0001) %MON forcing_qsw_min              =  -3.3950810942532E+02
(PID.TID 0000.0001) %MON forcing_qsw_mean             =  -1.8661640215158E+02
(PID.TID 0000.0001) %MON forcing_qsw_sd               =   7.9280795225693E+01
(PID.TID 0000.0001) %MON forcing_qsw_del2             =   6.7879942073304E-01
(PID.TID 0000.0001) %MON forcing_empmr_max            =   4.0671397868738E-04
(PID.TID 0000.0001) %MON forcing_empmr_min            =  -3.2063412927288E-04
(PID.TID 0000.0001) %MON forcing_empmr_mean           =  -8.2135651284789E-07
(PID.TID 0000.0001) %MON forcing_empmr_sd             =   4.8530503372946E-05
(PID.TID 0000.0001) %MON forcing_empmr_del2           =   9.3865694847000E-07
(PID.TID 0000.0001) %MON forcing_fu_max               =   2.4813468793793E-01
(PID.TID 0000.0001) %MON forcing_fu_min               =  -2.4114197747619E-01
(PID.TID 0000.0001) %MON forcing_fu_mean              =  -4.0261334360615E-03
(PID.TID 0000.0001) %MON forcing_fu_sd                =   6.4936298899217E-02
(PID.TID 0000.0001) %MON forcing_fu_del2              =   2.2218555584494E-04
(PID.TID 0000.0001) %MON forcing_fv_max               =   2.8500987930747E-01
(PID.TID 0000.0001) %MON forcing_fv_min               =  -3.3637477122718E-01
(PID.TID 0000.0001) %MON forcing_fv_mean              =  -1.3731608069986E-02
(PID.TID 0000.0001) %MON forcing_fv_sd                =   7.6302994349070E-02
(PID.TID 0000.0001) %MON forcing_fv_del2              =   2.4887295503804E-04
(PID.TID 0000.0001) %MON trAdv_CFL_u_max              =   7.5161251760760E-02
(PID.TID 0000.0001) %MON trAdv_CFL_v_max              =   9.0197569324687E-02
(PID.TID 0000.0001) %MON trAdv_CFL_w_max              =   6.3986956891057E-02
(PID.TID 0000.0001) %MON advcfl_uvel_max              =   7.5583829895527E-02
(PID.TID 0000.0001) %MON advcfl_vvel_max              =   8.4782649748067E-02
(PID.TID 0000.0001) %MON advcfl_wvel_max              =   5.7921400263654E-02
(PID.TID 0000.0001) %MON advcfl_W_hf_max              =   6.3986956891057E-02
(PID.TID 0000.0001) %MON pe_b_mean                    =  -1.9252960531396E-03
(PID.TID 0000.0001) %MON ke_max                       =   3.5384317237475E-02
(PID.TID 0000.0001) %MON ke_mean                      =   1.6174132683050E-04
(PID.TID 0000.0001) %MON ke_vol                       =   1.3395906132397E+18
(PID.TID 0000.0001) %MON vort_r_min                   =  -1.2683686184486E-06
(PID.TID 0000.0001) %MON vort_r_max                   =   1.4061622057273E-06
(PID.TID 0000.0001) %MON vort_a_mean                  =  -2.0549865324846E-05
(PID.TID 0000.0001) %MON vort_a_sd                    =   7.5259582174827E-05
(PID.TID 0000.0001) %MON vort_p_mean                  =  -2.4787194242061E-05
(PID.TID 0000.0001) %MON vort_p_sd                    =   1.2817301483397E-04
(PID.TID 0000.0001) %MON surfExpan_theta_mean         =   7.8010640042748E-08
(PID.TID 0000.0001) %MON surfExpan_salt_mean          =   1.9599383688787E-08
(PID.TID 0000.0001) // =======================================================
(PID.TID 0000.0001) // End MONITOR dynamic field statistics
(PID.TID 0000.0001) // =======================================================
(PID.TID 0000.0001) // =======================================================
(PID.TID 0000.0001) // Begin MONITOR Therm.SeaIce statistics
(PID.TID 0000.0001) // =======================================================
(PID.TID 0000.0001) %MON thSI_time_sec                =   3.1115232000000E+09
(PID.TID 0000.0001) %MON thSI_Ice_Area_G              =   2.4943642430989E+13
(PID.TID 0000.0001) %MON thSI_Ice_Area_S              =   1.1559717409288E+13
(PID.TID 0000.0001) %MON thSI_Ice_Area_N              =   1.3383925021700E+13
(PID.TID 0000.0001) %MON thSI_IceH_ave_G              =   4.5594693185375E+00
(PID.TID 0000.0001) %MON thSI_IceH_ave_S              =   5.8444161097709E+00
(PID.TID 0000.0001) %MON thSI_IceH_ave_N              =   3.4496587234732E+00
(PID.TID 0000.0001) %MON thSI_IceH_max_S              =   1.0000000000000E+01
(PID.TID 0000.0001) %MON thSI_IceH_max_N              =   1.0000000000000E+01
(PID.TID 0000.0001) %MON thSI_SnwH_ave_G              =   1.0034562078092E+00
(PID.TID 0000.0001) %MON thSI_SnwH_ave_S              =   1.7389842002044E+00
(PID.TID 0000.0001) %MON thSI_SnwH_ave_N              =   3.6817950647352E-01
(PID.TID 0000.0001) %MON thSI_SnwH_max_S              =   4.0932420388775E+00
(PID.TID 0000.0001) %MON thSI_SnwH_max_N              =   4.1046200537496E+00
(PID.TID 0000.0001) %MON thSI_Tsrf_ave_G              =  -1.7680975152794E+01
(PID.TID 0000.0001) %MON thSI_Tsrf_ave_S              =  -1.2888279773917E-01
(PID.TID 0000.0001) %MON thSI_Tsrf_ave_N              =  -3.2840745342570E+01
(PID.TID 0000.0001) %MON thSI_Tsrf_min_S              =  -5.4983441210331E+00
(PID.TID 0000.0001) %MON thSI_Tsrf_min_N              =  -4.7617383655070E+01
(PID.TID 0000.0001) %MON thSI_Tsrf_max_S              =   0.0000000000000E+00
(PID.TID 0000.0001) %MON thSI_Tsrf_max_N              =  -6.9933386096719E+00
(PID.TID 0000.0001) %MON thSI_Tic1_ave_G              =  -8.6112240704613E+00
(PID.TID 0000.0001) %MON thSI_Tic1_ave_S              =  -4.8810318576310E+00
(PID.TID 0000.0001) %MON thSI_Tic1_ave_N              =  -1.4069555852003E+01
(PID.TID 0000.0001) %MON thSI_Tic1_min_S              =  -1.4793280804963E+01
(PID.TID 0000.0001) %MON thSI_Tic1_min_N              =  -2.1448235455395E+01
(PID.TID 0000.0001) %MON thSI_Tic1_max_S              =  -1.6625832044368E-01
(PID.TID 0000.0001) %MON thSI_Tic1_max_N              =  -8.4314221415423E-01
(PID.TID 0000.0001) %MON thSI_Tic2_ave_G              =  -3.9000694994404E+00
(PID.TID 0000.0001) %MON thSI_Tic2_ave_S              =  -3.0574584951053E+00
(PID.TID 0000.0001) %MON thSI_Tic2_ave_N              =  -5.1330489712810E+00
(PID.TID 0000.0001) %MON thSI_Tic2_min_S              =  -8.4288320371046E+00
(PID.TID 0000.0001) %MON thSI_Tic2_min_N              =  -7.8171734611934E+00
(PID.TID 0000.0001) %MON thSI_Tic2_max_S              =  -1.0102437655740E+00
(PID.TID 0000.0001) %MON thSI_Tic2_max_N              =  -1.3480024254872E+00
(PID.TID 0000.0001) %MON thSI_TotEnerg_G              =  -3.8091289796095E+22
(PID.TID 0000.0001) // =======================================================
(PID.TID 0000.0001) // End MONITOR Therm.SeaIce statistics
(PID.TID 0000.0001) // =======================================================
 BULKF_FIELDS_LOAD,     36013 : iP,iLd,i0,i1=   12    1   12    1 ; Wght=  0.0666666667  0.9333333333
 EXTERNAL_FIELDS_LOAD,     36013 : iP,iLd,i0,i1=   12    1   12    1 ; Wght=  0.0666666667  0.9333333333
 cg2d: Sum(rhs),rhsMax =   3.91298718453628E+02  2.30274128849920E+02
(PID.TID 0000.0001)      cg2d_init_res =   2.60693418565881E+00
(PID.TID 0000.0001)      cg2d_iters(min,last) =      -1      69
(PID.TID 0000.0001)      cg2d_last_res =   5.54791044135815E-07
(PID.TID 0000.0001) // =======================================================
(PID.TID 0000.0001) // Begin MONITOR dynamic field statistics
(PID.TID 0000.0001) // =======================================================
(PID.TID 0000.0001) %MON time_tsnumber                =                 36014
(PID.TID 0000.0001) %MON time_secondsf                =   3.1116096000000E+09
(PID.TID 0000.0001) %MON dynstat_eta_max              =   7.1737020633438E-01
(PID.TID 0000.0001) %MON dynstat_eta_min              =  -1.1957665172511E+01
(PID.TID 0000.0001) %MON dynstat_eta_mean             =  -5.8199542191293E-01
(PID.TID 0000.0001) %MON dynstat_eta_sd               =   1.6980763825420E+00
(PID.TID 0000.0001) %MON dynstat_eta_del2             =   2.1333906834522E-02
(PID.TID 0000.0001) %MON dynstat_uvel_max             =   1.7354045478044E-01
(PID.TID 0000.0001) %MON dynstat_uvel_min             =  -2.6602167563960E-01
(PID.TID 0000.0001) %MON dynstat_uvel_mean            =  -5.2183031503972E-04
(PID.TID 0000.0001) %MON dynstat_uvel_sd              =   1.2968593741624E-02
(PID.TID 0000.0001) %MON dynstat_uvel_del2            =   5.8541023373628E-05
(PID.TID 0000.0001) %MON dynstat_vvel_max             =   1.9418720345871E-01
(PID.TID 0000.0001) %MON dynstat_vvel_min             =  -2.1156417420968E-01
(PID.TID 0000.0001) %MON dynstat_vvel_mean            =  -4.1794095316651E-04
(PID.TID 0000.0001) %MON dynstat_vvel_sd              =   1.3473648861138E-02
(PID.TID 0000.0001) %MON dynstat_vvel_del2            =   5.5895653474579E-05
(PID.TID 0000.0001) %MON dynstat_wvel_max             =   9.1169095338673E-05
(PID.TID 0000.0001) %MON dynstat_wvel_min             =  -1.7743262668728E-04
(PID.TID 0000.0001) %MON dynstat_wvel_mean            =  -1.2780088368764E-09
(PID.TID 0000.0001) %MON dynstat_wvel_sd              =   4.6212404625248E-06
(PID.TID 0000.0001) %MON dynstat_wvel_del2            =   4.0314020685042E-08
(PID.TID 0000.0001) %MON dynstat_theta_max            =   2.9876393059775E+01
(PID.TID 0000.0001) %MON dynstat_theta_min            =  -3.4763639252133E+00
(PID.TID 0000.0001) %MON dynstat_theta_mean           =   3.5036958185207E+00
(PID.TID 0000.0001) %MON dynstat_theta_sd             =   4.7501711008719E+00
(PID.TID 0000.0001) %MON dynstat_theta_del2           =   2.9773848926617E-03
(PID.TID 0000.0001) %MON dynstat_salt_max             =   4.0839852973418E+01
(PID.TID 0000.0001) %MON dynstat_salt_min             =   1.8043033151505E+01
(PID.TID 0000.0001) %MON dynstat_salt_mean            =   3.4756117154121E+01
(PID.TID 0000.0001) %MON dynstat_salt_sd              =   5.1178212234858E-01
(PID.TID 0000.0001) %MON dynstat_salt_del2            =   8.4239058581280E-04
(PID.TID 0000.0001) %MON forcing_qnet_max             =   8.1232879591498E+02
(PID.TID 0000.0001) %MON forcing_qnet_min             =  -2.3404954405984E+02
(PID.TID 0000.0001) %MON forcing_qnet_mean            =  -6.3150504256597E+00
(PID.TID 0000.0001) %MON forcing_qnet_sd              =   1.2059013977962E+02
(PID.TID 0000.0001) %MON forcing_qnet_del2            =   1.3379290451303E+00
(PID.TID 0000.0001) %MON forcing_qsw_max              =  -0.0000000000000E+00
(PID.TID 0000.0001) %MON forcing_qsw_min              =  -3.3930406677812E+02
(PID.TID 0000.0001) %MON forcing_qsw_mean             =  -1.8662910889605E+02
(PID.TID 0000.0001) %MON forcing_qsw_sd               =   7.9150338450717E+01
(PID.TID 0000.0001) %MON forcing_qsw_del2             =   6.7801078192706E-01
(PID.TID 0000.0001) %MON forcing_empmr_max            =   3.0849245727960E-04
(PID.TID 0000.0001) %MON forcing_empmr_min            =  -3.2186643820422E-04
(PID.TID 0000.0001) %MON forcing_empmr_mean           =  -8.8086486615234E-07
(PID.TID 0000.0001) %MON forcing_empmr_sd             =   4.8232663513878E-05
(PID.TID 0000.0001) %MON forcing_empmr_del2           =   9.1360366816565E-07
(PID.TID 0000.0001) %MON forcing_fu_max               =   2.4839906243671E-01
(PID.TID 0000.0001) %MON forcing_fu_min               =  -2.4462500977759E-01
(PID.TID 0000.0001) %MON forcing_fu_mean              =  -3.9826545003281E-03
(PID.TID 0000.0001) %MON forcing_fu_sd                =   6.5104931934298E-02
(PID.TID 0000.0001) %MON forcing_fu_del2              =   2.2499056699550E-04
(PID.TID 0000.0001) %MON forcing_fv_max               =   2.8769312088010E-01
(PID.TID 0000.0001) %MON forcing_fv_min               =  -3.3716267516111E-01
(PID.TID 0000.0001) %MON forcing_fv_mean              =  -1.3735533615913E-02
(PID.TID 0000.0001) %MON forcing_fv_sd                =   7.6464336061349E-02
(PID.TID 0000.0001) %MON forcing_fv_del2              =   2.5132568855654E-04
(PID.TID 0000.0001) %MON trAdv_CFL_u_max              =   7.5026970419444E-02
(PID.TID 0000.0001) %MON trAdv_CFL_v_max              =   9.0049392382234E-02
(PID.TID 0000.0001) %MON trAdv_CFL_w_max              =   6.3907815747801E-02
(PID.TID 0000.0001) %MON advcfl_uvel_max              =   7.5448793293161E-02
(PID.TID 0000.0001) %MON advcfl_vvel_max              =   8.4643466236734E-02
(PID.TID 0000.0001) %MON advcfl_wvel_max              =   5.7849731870870E-02
(PID.TID 0000.0001) %MON advcfl_W_hf_max              =   6.3907815747801E-02
(PID.TID 0000.0001) %MON pe_b_mean                    =  -1.9243205301877E-03
(PID.TID 0000.0001) %MON ke_max                       =   3.5246695190304E-02
(PID.TID 0000.0001) %MON ke_mean                      =   1.6169487932482E-04
(PID.TID 0000.0001) %MON ke_vol                       =   1.3395906381897E+18
(PID.TID 0000.0001) %MON vort_r_min                   =  -1.2735094001998E-06
(PID.TID 0000.0001) %MON vort_r_max                   =   1.4089832308822E-06
(PID.TID 0000.0001) %MON vort_a_mean                  =  -2.0549865324846E-05
(PID.TID 0000.0001) %MON vort_a_sd                    =   7.5259582100983E-05
(PID.TID 0000.0001) %MON vort_p_mean                  =  -2.4787193509658E-05
(PID.TID 0000.0001) %MON vort_p_sd                    =   1.2817301402116E-04
(PID.TID 0000.0001) %MON surfExpan_theta_mean         =   7.7095846991306E-08
(PID.TID 0000.0001) %MON surfExpan_salt_mean          =   1.9613379266113E-08
(PID.TID 0000.0001) // =======================================================
(PID.TID 0000.0001) // End MONITOR dynamic field statistics
(PID.TID 0000.0001) // =======================================================
(PID.TID 0000.0001) // =======================================================
(PID.TID 0000.0001) // Begin MONITOR Therm.SeaIce statistics
(PID.TID 0000.0001) // =======================================================
(PID.TID 0000.0001) %MON thSI_time_sec                =   3.1116096000000E+09
(PID.TID 0000.0001) %MON thSI_Ice_Area_G              =   2.4929973305398E+13
(PID.TID 0000.0001) %MON thSI_Ice_Area_S              =   1.1527342513402E+13
(PID.TID 0000.0001) %MON thSI_Ice_Area_N              =   1.3402630791996E+13
(PID.TID 0000.0001) %MON thSI_IceH_ave_G              =   4.5613236017027E+00
(PID.TID 0000.0001) %MON thSI_IceH_ave_S              =   5.8540053755515E+00
(PID.TID 0000.0001) %MON thSI_IceH_ave_N              =   3.4495131072372E+00
(PID.TID 0000.0001) %MON thSI_IceH_max_S              =   1.0000000000000E+01
(PID.TID 0000.0001) %MON thSI_IceH_max_N              =   1.0000000000000E+01
(PID.TID 0000.0001) %MON thSI_SnwH_ave_G              =   1.0007967966889E+00
(PID.TID 0000.0001) %MON thSI_SnwH_ave_S              =   1.7335011279142E+00
(PID.TID 0000.0001) %MON thSI_SnwH_ave_N              =   3.7061202787979E-01
(PID.TID 0000.0001) %MON thSI_SnwH_max_S              =   4.0931834574619E+00
(PID.TID 0000.0001) %MON thSI_SnwH_max_N              =   4.1049927380996E+00
(PID.TID 0000.0001) %MON thSI_Tsrf_ave_G              =  -1.7775522826649E+01
(PID.TID 0000.0001) %MON thSI_Tsrf_ave_S              =  -1.4831263076678E-01
(PID.TID 0000.0001) %MON thSI_Tsrf_ave_N              =  -3.2936344059225E+01
(PID.TID 0000.0001) %MON thSI_Tsrf_min_S              =  -5.5142622642608E+00
(PID.TID 0000.0001) %MON thSI_Tsrf_min_N              =  -4.7732550926478E+01
(PID.TID 0000.0001) %MON thSI_Tsrf_max_S              =   0.0000000000000E+00
(PID.TID 0000.0001) %MON thSI_Tsrf_max_N              =  -7.3679240777076E+00
(PID.TID 0000.0001) %MON thSI_Tic1_ave_G              =  -8.6303560474067E+00
(PID.TID 0000.0001) %MON thSI_Tic1_ave_S              =  -4.8569533891441E+00
(PID.TID 0000.0001) %MON thSI_Tic1_ave_N              =  -1.4138022255841E+01
(PID.TID 0000.0001) %MON thSI_Tic1_min_S              =  -1.4660760628710E+01
(PID.TID 0000.0001) %MON thSI_Tic1_min_N              =  -2.1501493601774E+01
(PID.TID 0000.0001) %MON thSI_Tic1_max_S              =  -1.6093928983152E-01
(PID.TID 0000.0001) %MON thSI_Tic1_max_N              =  -8.6662575997297E-01
(PID.TID 0000.0001) %MON thSI_Tic2_ave_G              =  -3.9102527866936E+00
(PID.TID 0000.0001) %MON thSI_Tic2_ave_S              =  -3.0534401735214E+00
(PID.TID 0000.0001) %MON thSI_Tic2_ave_N              =  -5.1608582226642E+00
(PID.TID 0000.0001) %MON thSI_Tic2_min_S              =  -8.3951640896794E+00
(PID.TID 0000.0001) %MON thSI_Tic2_min_N              =  -7.8438844470061E+00
(PID.TID 0000.0001) %MON thSI_Tic2_max_S              =  -9.6811533229683E-01
(PID.TID 0000.0001) %MON thSI_Tic2_max_N              =  -1.3623298920473E+00
(PID.TID 0000.0001) %MON thSI_TotEnerg_G              =  -3.8079748921182E+22
(PID.TID 0000.0001) // =======================================================
(PID.TID 0000.0001) // End MONITOR Therm.SeaIce statistics
(PID.TID 0000.0001) // =======================================================
 BULKF_FIELDS_LOAD,     36014 : iP,iLd,i0,i1=   12    1   12    1 ; Wght=  0.0333333333  0.9666666667
 EXTERNAL_FIELDS_LOAD,     36014 : iP,iLd,i0,i1=   12    1   12    1 ; Wght=  0.0333333333  0.9666666667
 cg2d: Sum(rhs),rhsMax =   3.91244582000134E+02  2.30381856451577E+02
(PID.TID 0000.0001)      cg2d_init_res =   2.58050900432845E+00
(PID.TID 0000.0001)      cg2d_iters(min,last) =      -1      69
(PID.TID 0000.0001)      cg2d_last_res =   5.48446890276120E-07
(PID.TID 0000.0001) // =======================================================
(PID.TID 0000.0001) // Begin MONITOR dynamic field statistics
(PID.TID 0000.0001) // =======================================================
(PID.TID 0000.0001) %MON time_tsnumber                =                 36015
(PID.TID 0000.0001) %MON time_secondsf                =   3.1116960000000E+09
(PID.TID 0000.0001) %MON dynstat_eta_max              =   7.1611040725454E-01
(PID.TID 0000.0001) %MON dynstat_eta_min              =  -1.1954545370996E+01
(PID.TID 0000.0001) %MON dynstat_eta_mean             =  -5.8191490243611E-01
(PID.TID 0000.0001) %MON dynstat_eta_sd               =   1.6975890297263E+00
(PID.TID 0000.0001) %MON dynstat_eta_del2             =   2.1341094159134E-02
(PID.TID 0000.0001) %MON dynstat_uvel_max             =   1.7320395083029E-01
(PID.TID 0000.0001) %MON dynstat_uvel_min             =  -2.6553200706728E-01
(PID.TID 0000.0001) %MON dynstat_uvel_mean            =  -5.2106268615849E-04
(PID.TID 0000.0001) %MON dynstat_uvel_sd              =   1.2967523428668E-02
(PID.TID 0000.0001) %MON dynstat_uvel_del2            =   5.8527971117793E-05
(PID.TID 0000.0001) %MON dynstat_vvel_max             =   1.9381680208634E-01
(PID.TID 0000.0001) %MON dynstat_vvel_min             =  -2.1159286074857E-01
(PID.TID 0000.0001) %MON dynstat_vvel_mean            =  -4.1741567084149E-04
(PID.TID 0000.0001) %MON dynstat_vvel_sd              =   1.3470879491223E-02
(PID.TID 0000.0001) %MON dynstat_vvel_del2            =   5.5869515952069E-05
(PID.TID 0000.0001) %MON dynstat_wvel_max             =   9.1742175631728E-05
(PID.TID 0000.0001) %MON dynstat_wvel_min             =  -1.7719404272951E-04
(PID.TID 0000.0001) %MON dynstat_wvel_mean            =  -1.2820755187324E-09
(PID.TID 0000.0001) %MON dynstat_wvel_sd              =   4.6212748974339E-06
(PID.TID 0000.0001) %MON dynstat_wvel_del2            =   4.0303152938178E-08
(PID.TID 0000.0001) %MON dynstat_theta_max            =   2.9861591883893E+01
(PID.TID 0000.0001) %MON dynstat_theta_min            =  -3.4944556591803E+00
(PID.TID 0000.0001) %MON dynstat_theta_mean           =   3.5037670040428E+00
(PID.TID 0000.0001) %MON dynstat_theta_sd             =   4.7503178857640E+00
(PID.TID 0000.0001) %MON dynstat_theta_del2           =   2.9804341170427E-03
(PID.TID 0000.0001) %MON dynstat_salt_max             =   4.0840587259198E+01
(PID.TID 0000.0001) %MON dynstat_salt_min             =   1.8093810405550E+01
(PID.TID 0000.0001) %MON dynstat_salt_mean            =   3.4756117464718E+01
(PID.TID 0000.0001) %MON dynstat_salt_sd              =   5.1177485234447E-01
(PID.TID 0000.0001) %MON dynstat_salt_del2            =   8.4266550073684E-04
(PID.TID 0000.0001) %MON forcing_qnet_max             =   8.1537995270584E+02
(PID.TID 0000.0001) %MON forcing_qnet_min             =  -2.3367877303884E+02
(PID.TID 0000.0001) %MON forcing_qnet_mean            =  -6.3830234800393E+00
(PID.TID 0000.0001) %MON forcing_qnet_sd              =   1.2067515730185E+02
(PID.TID 0000.0001) %MON forcing_qnet_del2            =   1.3440423958579E+00
(PID.TID 0000.0001) %MON forcing_qsw_max              =  -0.0000000000000E+00
(PID.TID 0000.0001) %MON forcing_qsw_min              =  -3.3910002413092E+02
(PID.TID 0000.0001) %MON forcing_qsw_mean             =  -1.8663747141209E+02
(PID.TID 0000.0001) %MON forcing_qsw_sd               =   7.9015097638872E+01
(PID.TID 0000.0001) %MON forcing_qsw_del2             =   6.7522692623311E-01
(PID.TID 0000.0001) %MON forcing_empmr_max            =   2.6775838141811E-04
(PID.TID 0000.0001) %MON forcing_empmr_min            =  -3.2195803650368E-04
(PID.TID 0000.0001) %MON forcing_empmr_mean           =  -9.6455623278380E-07
(PID.TID 0000.0001) %MON forcing_empmr_sd             =   4.8117065890696E-05
(PID.TID 0000.0001) %MON forcing_empmr_del2           =   9.0308724134093E-07
(PID.TID 0000.0001) %MON forcing_fu_max               =   2.4866343693550E-01
(PID.TID 0000.0001) %MON forcing_fu_min               =  -2.4810804207900E-01
(PID.TID 0000.0001) %MON forcing_fu_mean              =  -3.9391755645947E-03
(PID.TID 0000.0001) %MON forcing_fu_sd                =   6.5286328792105E-02
(PID.TID 0000.0001) %MON forcing_fu_del2              =   2.2797906587778E-04
(PID.TID 0000.0001) %MON forcing_fv_max               =   2.9037636245273E-01
(PID.TID 0000.0001) %MON forcing_fv_min               =  -3.3795057909504E-01
(PID.TID 0000.0001) %MON forcing_fv_mean              =  -1.3739459161841E-02
(PID.TID 0000.0001) %MON forcing_fv_sd                =   7.6635516474945E-02
(PID.TID 0000.0001) %MON forcing_fv_del2              =   2.5394204351914E-04
(PID.TID 0000.0001) %MON trAdv_CFL_u_max              =   7.4888867886045E-02
(PID.TID 0000.0001) %MON trAdv_CFL_v_max              =   8.9877524149819E-02
(PID.TID 0000.0001) %MON trAdv_CFL_w_max              =   6.3821917745691E-02
(PID.TID 0000.0001) %MON advcfl_uvel_max              =   7.5309913997682E-02
(PID.TID 0000.0001) %MON advcfl_vvel_max              =   8.4482013496814E-02
(PID.TID 0000.0001) %MON advcfl_wvel_max              =   5.7771944497472E-02
(PID.TID 0000.0001) %MON advcfl_W_hf_max              =   6.3821917745691E-02
(PID.TID 0000.0001) %MON pe_b_mean                    =  -1.9233558800053E-03
(PID.TID 0000.0001) %MON ke_max                       =   3.5106583421231E-02
(PID.TID 0000.0001) %MON ke_mean                      =   1.6164695482185E-04
(PID.TID 0000.0001) %MON ke_vol                       =   1.3395906649474E+18
(PID.TID 0000.0001) %MON vort_r_min                   =  -1.2786134090380E-06
(PID.TID 0000.0001) %MON vort_r_max                   =   1.4115560904663E-06
(PID.TID 0000.0001) %MON vort_a_mean                  =  -2.0549865324846E-05
(PID.TID 0000.0001) %MON vort_a_sd                    =   7.5259582029272E-05
(PID.TID 0000.0001) %MON vort_p_mean                  =  -2.4787192758693E-05
(PID.TID 0000.0001) %MON vort_p_sd                    =   1.2817301308560E-04
(PID.TID 0000.0001) %MON surfExpan_theta_mean         =   7.6053912616517E-08
(PID.TID 0000.0001) %MON surfExpan_salt_mean          =   1.9629829280141E-08
(PID.TID 0000.0001) // =======================================================
(PID.TID 0000.0001) // End MONITOR dynamic field statistics
(PID.TID 0000.0001) // =======================================================
(PID.TID 0000.0001) // =======================================================
(PID.TID 0000.0001) // Begin MONITOR Therm.SeaIce statistics
(PID.TID 0000.0001) // =======================================================
(PID.TID 0000.0001) %MON thSI_time_sec                =   3.1116960000000E+09
(PID.TID 0000.0001) %MON thSI_Ice_Area_G              =   2.4912497403004E+13
(PID.TID 0000.0001) %MON thSI_Ice_Area_S              =   1.1493627546943E+13
(PID.TID 0000.0001) %MON thSI_Ice_Area_N              =   1.3418869856061E+13
(PID.TID 0000.0001) %MON thSI_IceH_ave_G              =   4.5637678926762E+00
(PID.TID 0000.0001) %MON thSI_IceH_ave_S              =   5.8643356750753E+00
(PID.TID 0000.0001) %MON thSI_IceH_ave_N              =   3.4497961610182E+00
(PID.TID 0000.0001) %MON thSI_IceH_max_S              =   1.0000000000000E+01
(PID.TID 0000.0001) %MON thSI_IceH_max_N              =   1.0000000000000E+01
(PID.TID 0000.0001) %MON thSI_SnwH_ave_G              =   9.9835322841846E-01
(PID.TID 0000.0001) %MON thSI_SnwH_ave_S              =   1.7283330831636E+00
(PID.TID 0000.0001) %MON thSI_SnwH_ave_N              =   3.7310559898244E-01
(PID.TID 0000.0001) %MON thSI_SnwH_max_S              =   4.0931275771937E+00
(PID.TID 0000.0001) %MON thSI_SnwH_max_N              =   4.1053699869301E+00
(PID.TID 0000.0001) %MON thSI_Tsrf_ave_G              =  -1.7849136793054E+01
(PID.TID 0000.0001) %MON thSI_Tsrf_ave_S              =  -1.3169076484009E-01
(PID.TID 0000.0001) %MON thSI_Tsrf_ave_N              =  -3.3024611919924E+01
(PID.TID 0000.0001) %MON thSI_Tsrf_min_S              =  -5.5301433622896E+00
(PID.TID 0000.0001) %MON thSI_Tsrf_min_N              =  -4.7847785557187E+01
(PID.TID 0000.0001) %MON thSI_Tsrf_max_S              =   0.0000000000000E+00
(PID.TID 0000.0001) %MON thSI_Tsrf_max_N              =  -7.6301699365610E+00
(PID.TID 0000.0001) %MON thSI_Tic1_ave_G              =  -8.6512430715509E+00
(PID.TID 0000.0001) %MON thSI_Tic1_ave_S              =  -4.8366300712160E+00
(PID.TID 0000.0001) %MON thSI_Tic1_ave_N              =  -1.4205385981876E+01
(PID.TID 0000.0001) %MON thSI_Tic1_min_S              =  -1.4529752739842E+01
(PID.TID 0000.0001) %MON thSI_Tic1_min_N              =  -2.1566733305153E+01
(PID.TID 0000.0001) %MON thSI_Tic1_max_S              =  -1.5593666878365E-01
(PID.TID 0000.0001) %MON thSI_Tic1_max_N              =  -8.9121204148832E-01
(PID.TID 0000.0001) %MON thSI_Tic2_ave_G              =  -3.9203012791739E+00
(PID.TID 0000.0001) %MON thSI_Tic2_ave_S              =  -3.0494517060775E+00
(PID.TID 0000.0001) %MON thSI_Tic2_ave_N              =  -5.1882734121134E+00
(PID.TID 0000.0001) %MON thSI_Tic2_min_S              =  -8.3614741208830E+00
(PID.TID 0000.0001) %MON thSI_Tic2_min_N              =  -7.8697518369661E+00
(PID.TID 0000.0001) %MON thSI_Tic2_max_S              =  -9.9313260074708E-01
(PID.TID 0000.0001) %MON thSI_Tic2_max_N              =  -1.3762270171421E+00
(PID.TID 0000.0001) %MON thSI_TotEnerg_G              =  -3.8067609905381E+22
(PID.TID 0000.0001) // =======================================================
(PID.TID 0000.0001) // End MONITOR Therm.SeaIce statistics
(PID.TID 0000.0001) // =======================================================
 BULKF_FIELDS_LOAD,     36015 : iP,iLd,i0,i1=   12    1    1    2 ; Wght=  1.0000000000  0.0000000000
 BULKF_FIELDS_LOAD, it=     36015 : Reading new data, i0,i1=    1    2 (prev=   12    1 )
(PID.TID 0000.0001)  MDS_READ_FIELD: opening global file: ncep_tair_cs.bin
(PID.TID 0000.0001)  MDS_READ_FIELD: opening global file: ncep_tair_cs.bin
(PID.TID 0000.0001)  MDS_READ_FIELD: opening global file: ncep_qair_cs.bin
(PID.TID 0000.0001)  MDS_READ_FIELD: opening global file: ncep_qair_cs.bin
(PID.TID 0000.0001)  MDS_READ_FIELD: opening global file: ncep_downsolar_cs.bin
(PID.TID 0000.0001)  MDS_READ_FIELD: opening global file: ncep_downsolar_cs.bin
(PID.TID 0000.0001)  MDS_READ_FIELD: opening global file: ncep_downlw_cs.bin
(PID.TID 0000.0001)  MDS_READ_FIELD: opening global file: ncep_downlw_cs.bin
(PID.TID 0000.0001)  MDS_READ_FIELD: opening global file: ncep_windspeed_cs.bin
(PID.TID 0000.0001)  MDS_READ_FIELD: opening global file: ncep_windspeed_cs.bin
(PID.TID 0000.0001)  MDS_READ_FIELD: opening global file: ncep_pr_scal_cs.bin
(PID.TID 0000.0001)  MDS_READ_FIELD: opening global file: ncep_pr_scal_cs.bin
 EXTERNAL_FIELDS_LOAD,     36015 : iP,iLd,i0,i1=   12    1    1    2 ; Wght=  1.0000000000  0.0000000000
 EXTERNAL_FIELDS_LOAD, it=     36015 : Reading new data, i0,i1=    1    2 (prev=   12    1 )
(PID.TID 0000.0001)  MDS_READ_FIELD: opening global file: trenberth_taux.bin
(PID.TID 0000.0001)  MDS_READ_FIELD: opening global file: trenberth_taux.bin
(PID.TID 0000.0001)  MDS_READ_FIELD: opening global file: trenberth_tauy.bin
(PID.TID 0000.0001)  MDS_READ_FIELD: opening global file: trenberth_tauy.bin
(PID.TID 0000.0001)  MDS_READ_FIELD: opening global file: lev_surfT_cs_12m.bin
(PID.TID 0000.0001)  MDS_READ_FIELD: opening global file: lev_surfT_cs_12m.bin
(PID.TID 0000.0001)  MDS_READ_FIELD: opening global file: lev_surfS_cs_12m.bin
(PID.TID 0000.0001)  MDS_READ_FIELD: opening global file: lev_surfS_cs_12m.bin
 cg2d: Sum(rhs),rhsMax =   3.91185166231788E+02  2.30486232947597E+02
(PID.TID 0000.0001)      cg2d_init_res =   2.53107238805004E+00
(PID.TID 0000.0001)      cg2d_iters(min,last) =      -1      69
(PID.TID 0000.0001)      cg2d_last_res =   5.32922881685134E-07
(PID.TID 0000.0001) // =======================================================
(PID.TID 0000.0001) // Begin MONITOR dynamic field statistics
(PID.TID 0000.0001) // =======================================================
(PID.TID 0000.0001) %MON time_tsnumber                =                 36016
(PID.TID 0000.0001) %MON time_secondsf                =   3.1117824000000E+09
(PID.TID 0000.0001) %MON dynstat_eta_max              =   7.1488193814570E-01
(PID.TID 0000.0001) %MON dynstat_eta_min              =  -1.1951287694406E+01
(PID.TID 0000.0001) %MON dynstat_eta_mean             =  -5.8182653080713E-01
(PID.TID 0000.0001) %MON dynstat_eta_sd               =   1.6970891079666E+00
(PID.TID 0000.0001) %MON dynstat_eta_del2             =   2.1348463838883E-02
(PID.TID 0000.0001) %MON dynstat_uvel_max             =   1.7283538498623E-01
(PID.TID 0000.0001) %MON dynstat_uvel_min             =  -2.6502872162217E-01
(PID.TID 0000.0001) %MON dynstat_uvel_mean            =  -5.2024778556114E-04
(PID.TID 0000.0001) %MON dynstat_uvel_sd              =   1.2966649032907E-02
(PID.TID 0000.0001) %MON dynstat_uvel_del2            =   5.8517851112007E-05
(PID.TID 0000.0001) %MON dynstat_vvel_max             =   1.9339965562080E-01
(PID.TID 0000.0001) %MON dynstat_vvel_min             =  -2.1161709404296E-01
(PID.TID 0000.0001) %MON dynstat_vvel_mean            =  -4.1688337882005E-04
(PID.TID 0000.0001) %MON dynstat_vvel_sd              =   1.3467858345593E-02
(PID.TID 0000.0001) %MON dynstat_vvel_del2            =   5.5844997324718E-05
(PID.TID 0000.0001) %MON dynstat_wvel_max             =   9.2255432914294E-05
(PID.TID 0000.0001) %MON dynstat_wvel_min             =  -1.7694572754309E-04
(PID.TID 0000.0001) %MON dynstat_wvel_mean            =  -1.2903113499727E-09
(PID.TID 0000.0001) %MON dynstat_wvel_sd              =   4.6212696701589E-06
(PID.TID 0000.0001) %MON dynstat_wvel_del2            =   4.0289137742650E-08
(PID.TID 0000.0001) %MON dynstat_theta_max            =   2.9846745300438E+01
(PID.TID 0000.0001) %MON dynstat_theta_min            =  -3.5124922954876E+00
(PID.TID 0000.0001) %MON dynstat_theta_mean           =   3.5038384003028E+00
(PID.TID 0000.0001) %MON dynstat_theta_sd             =   4.7504719012527E+00
(PID.TID 0000.0001) %MON dynstat_theta_del2           =   2.9850530984970E-03
(PID.TID 0000.0001) %MON dynstat_salt_max             =   4.0841193350804E+01
(PID.TID 0000.0001) %MON dynstat_salt_min             =   1.8095234182012E+01
(PID.TID 0000.0001) %MON dynstat_salt_mean            =   3.4756117722638E+01
(PID.TID 0000.0001) %MON dynstat_salt_sd              =   5.1176820763118E-01
(PID.TID 0000.0001) %MON dynstat_salt_del2            =   8.4335347532894E-04
(PID.TID 0000.0001) %MON forcing_qnet_max             =   8.1841694222543E+02
(PID.TID 0000.0001) %MON forcing_qnet_min             =  -2.3330971120541E+02
(PID.TID 0000.0001) %MON forcing_qnet_mean            =  -6.4217807946741E+00
(PID.TID 0000.0001) %MON forcing_qnet_sd              =   1.2080845174220E+02
(PID.TID 0000.0001) %MON forcing_qnet_del2            =   1.3507986151010E+00
(PID.TID 0000.0001) %MON forcing_qsw_max              =  -0.0000000000000E+00
(PID.TID 0000.0001) %MON forcing_qsw_min              =  -3.3889598148373E+02
(PID.TID 0000.0001) %MON forcing_qsw_mean             =  -1.8664899570377E+02
(PID.TID 0000.0001) %MON forcing_qsw_sd               =   7.8879486921061E+01
(PID.TID 0000.0001) %MON forcing_qsw_del2             =   6.7270798211293E-01
(PID.TID 0000.0001) %MON forcing_empmr_max            =   2.3995630336524E-04
(PID.TID 0000.0001) %MON forcing_empmr_min            =  -3.2099019546157E-04
(PID.TID 0000.0001) %MON forcing_empmr_mean           =  -1.0586184721221E-06
(PID.TID 0000.0001) %MON forcing_empmr_sd             =   4.7943353408234E-05
(PID.TID 0000.0001) %MON forcing_empmr_del2           =   8.8460510319317E-07
(PID.TID 0000.0001) %MON forcing_fu_max               =   2.4892781143428E-01
(PID.TID 0000.0001) %MON forcing_fu_min               =  -2.5159107438040E-01
(PID.TID 0000.0001) %MON forcing_fu_mean              =  -3.8956966288612E-03
(PID.TID 0000.0001) %MON forcing_fu_sd                =   6.5480383395885E-02
(PID.TID 0000.0001) %MON forcing_fu_del2              =   2.3114393556995E-04
(PID.TID 0000.0001) %MON forcing_fv_max               =   2.9305960402537E-01
(PID.TID 0000.0001) %MON forcing_fv_min               =  -3.3950131228473E-01
(PID.TID 0000.0001) %MON forcing_fv_mean              =  -1.3743384707768E-02
(PID.TID 0000.0001) %MON forcing_fv_sd                =   7.6816469815204E-02
(PID.TID 0000.0001) %MON forcing_fv_del2              =   2.5671701728584E-04
(PID.TID 0000.0001) %MON trAdv_CFL_u_max              =   7.4746924951584E-02
(PID.TID 0000.0001) %MON trAdv_CFL_v_max              =   8.9683980209080E-02
(PID.TID 0000.0001) %MON trAdv_CFL_w_max              =   6.3732516905052E-02
(PID.TID 0000.0001) %MON advcfl_uvel_max              =   7.5167172698786E-02
(PID.TID 0000.0001) %MON advcfl_vvel_max              =   8.4300185229333E-02
(PID.TID 0000.0001) %MON advcfl_wvel_max              =   5.7690984376312E-02
(PID.TID 0000.0001) %MON advcfl_W_hf_max              =   6.3732516905052E-02
(PID.TID 0000.0001) %MON pe_b_mean                    =  -1.9223752790157E-03
(PID.TID 0000.0001) %MON ke_max                       =   3.4964010333085E-02
(PID.TID 0000.0001) %MON ke_mean                      =   1.6159820161337E-04
(PID.TID 0000.0001) %MON ke_vol                       =   1.3395906942474E+18
(PID.TID 0000.0001) %MON vort_r_min                   =  -1.2836583167557E-06
(PID.TID 0000.0001) %MON vort_r_max                   =   1.4138411486684E-06
(PID.TID 0000.0001) %MON vort_a_mean                  =  -2.0549865324846E-05
(PID.TID 0000.0001) %MON vort_a_sd                    =   7.5259581962205E-05
(PID.TID 0000.0001) %MON vort_p_mean                  =  -2.4787191973444E-05
(PID.TID 0000.0001) %MON vort_p_sd                    =   1.2817301114903E-04
(PID.TID 0000.0001) %MON surfExpan_theta_mean         =   7.5160129959776E-08
(PID.TID 0000.0001) %MON surfExpan_salt_mean          =   1.9656399863960E-08
(PID.TID 0000.0001) // =======================================================
(PID.TID 0000.0001) // End MONITOR dynamic field statistics
(PID.TID 0000.0001) // =======================================================
(PID.TID 0000.0001) // =======================================================
(PID.TID 0000.0001) // Begin MONITOR Therm.SeaIce statistics
(PID.TID 0000.0001) // =======================================================
(PID.TID 0000.0001) %MON thSI_time_sec                =   3.1117824000000E+09
(PID.TID 0000.0001) %MON thSI_Ice_Area_G              =   2.4891920059319E+13
(PID.TID 0000.0001) %MON thSI_Ice_Area_S              =   1.1459124580504E+13
(PID.TID 0000.0001) %MON thSI_Ice_Area_N              =   1.3432795478815E+13
(PID.TID 0000.0001) %MON thSI_IceH_ave_G              =   4.5666002512191E+00
(PID.TID 0000.0001) %MON thSI_IceH_ave_S              =   5.8749822697146E+00
(PID.TID 0000.0001) %MON thSI_IceH_ave_N              =   3.4504578538695E+00
(PID.TID 0000.0001) %MON thSI_IceH_max_S              =   1.0000000000000E+01
(PID.TID 0000.0001) %MON thSI_IceH_max_N              =   1.0000000000000E+01
(PID.TID 0000.0001) %MON thSI_SnwH_ave_G              =   9.9623848312081E-01
(PID.TID 0000.0001) %MON thSI_SnwH_ave_S              =   1.7237249420024E+00
(PID.TID 0000.0001) %MON thSI_SnwH_ave_N              =   3.7564108207343E-01
(PID.TID 0000.0001) %MON thSI_SnwH_max_S              =   4.0930738732489E+00
(PID.TID 0000.0001) %MON thSI_SnwH_max_N              =   4.1057477023892E+00
(PID.TID 0000.0001) %MON thSI_Tsrf_ave_G              =  -1.7939202255378E+01
(PID.TID 0000.0001) %MON thSI_Tsrf_ave_S              =  -1.5216635441966E-01
(PID.TID 0000.0001) %MON thSI_Tsrf_ave_N              =  -3.3112801870471E+01
(PID.TID 0000.0001) %MON thSI_Tsrf_min_S              =  -5.5459877382977E+00
(PID.TID 0000.0001) %MON thSI_Tsrf_min_N              =  -4.7963088576373E+01
(PID.TID 0000.0001) %MON thSI_Tsrf_max_S              =   0.0000000000000E+00
(PID.TID 0000.0001) %MON thSI_Tsrf_max_N              =  -7.8486444324935E+00
(PID.TID 0000.0001) %MON thSI_Tic1_ave_G              =  -8.6698172234841E+00
(PID.TID 0000.0001) %MON thSI_Tic1_ave_S              =  -4.8131585551578E+00
(PID.TID 0000.0001) %MON thSI_Tic1_ave_N              =  -1.4271597567465E+01
(PID.TID 0000.0001) %MON thSI_Tic1_min_S              =  -1.4400240559865E+01
(PID.TID 0000.0001) %MON thSI_Tic1_min_N              =  -2.1666976479440E+01
(PID.TID 0000.0001) %MON thSI_Tic1_max_S              =  -1.5122457959059E-01
(PID.TID 0000.0001) %MON thSI_Tic1_max_N              =  -9.1696100490037E-01
(PID.TID 0000.0001) %MON thSI_Tic2_ave_G              =  -3.9301351581292E+00
(PID.TID 0000.0001) %MON thSI_Tic2_ave_S              =  -3.0453522735084E+00
(PID.TID 0000.0001) %MON thSI_Tic2_ave_N              =  -5.2152785420810E+00
(PID.TID 0000.0001) %MON thSI_Tic2_min_S              =  -8.3266001948903E+00
(PID.TID 0000.0001) %MON thSI_Tic2_min_N              =  -7.8948020171575E+00
(PID.TID 0000.0001) %MON thSI_Tic2_max_S              =  -9.6594273428900E-01
(PID.TID 0000.0001) %MON thSI_Tic2_max_N              =  -1.3897121369154E+00
(PID.TID 0000.0001) %MON thSI_TotEnerg_G              =  -3.8054386152087E+22
(PID.TID 0000.0001) // =======================================================
(PID.TID 0000.0001) // End MONITOR Therm.SeaIce statistics
(PID.TID 0000.0001) // =======================================================
 BULKF_FIELDS_LOAD,     36016 : iP,iLd,i0,i1=    1    2    1    2 ; Wght=  0.9666666667  0.0333333333
 EXTERNAL_FIELDS_LOAD,     36016 : iP,iLd,i0,i1=    1    2    1    2 ; Wght=  0.9666666667  0.0333333333
 cg2d: Sum(rhs),rhsMax =   3.91137810928151E+02  2.30586285419473E+02
(PID.TID 0000.0001)      cg2d_init_res =   2.50739037792126E+00
(PID.TID 0000.0001)      cg2d_iters(min,last) =      -1      69
(PID.TID 0000.0001)      cg2d_last_res =   5.29247224754639E-07
(PID.TID 0000.0001) // =======================================================
(PID.TID 0000.0001) // Begin MONITOR dynamic field statistics
(PID.TID 0000.0001) // =======================================================
(PID.TID 0000.0001) %MON time_tsnumber                =                 36017
(PID.TID 0000.0001) %MON time_secondsf                =   3.1118688000000E+09
(PID.TID 0000.0001) %MON dynstat_eta_max              =   7.1382064551377E-01
(PID.TID 0000.0001) %MON dynstat_eta_min              =  -1.1948145288286E+01
(PID.TID 0000.0001) %MON dynstat_eta_mean             =  -5.8175609722629E-01
(PID.TID 0000.0001) %MON dynstat_eta_sd               =   1.6966324058007E+00
(PID.TID 0000.0001) %MON dynstat_eta_del2             =   2.1356288729597E-02
(PID.TID 0000.0001) %MON dynstat_uvel_max             =   1.7256842823718E-01
(PID.TID 0000.0001) %MON dynstat_uvel_min             =  -2.6451605837293E-01
(PID.TID 0000.0001) %MON dynstat_uvel_mean            =  -5.1941632094185E-04
(PID.TID 0000.0001) %MON dynstat_uvel_sd              =   1.2966057168206E-02
(PID.TID 0000.0001) %MON dynstat_uvel_del2            =   5.8509441732342E-05
(PID.TID 0000.0001) %MON dynstat_vvel_max             =   1.9293948088994E-01
(PID.TID 0000.0001) %MON dynstat_vvel_min             =  -2.1162991536596E-01
(PID.TID 0000.0001) %MON dynstat_vvel_mean            =  -4.1634685166881E-04
(PID.TID 0000.0001) %MON dynstat_vvel_sd              =   1.3464296277966E-02
(PID.TID 0000.0001) %MON dynstat_vvel_del2            =   5.5821884688523E-05
(PID.TID 0000.0001) %MON dynstat_wvel_max             =   9.2721167325960E-05
(PID.TID 0000.0001) %MON dynstat_wvel_min             =  -1.7669284275386E-04
(PID.TID 0000.0001) %MON dynstat_wvel_mean            =  -1.2458182426724E-09
(PID.TID 0000.0001) %MON dynstat_wvel_sd              =   4.6211940531539E-06
(PID.TID 0000.0001) %MON dynstat_wvel_del2            =   4.0273044153965E-08
(PID.TID 0000.0001) %MON dynstat_theta_max            =   2.9831996055672E+01
(PID.TID 0000.0001) %MON dynstat_theta_min            =  -3.5305293483308E+00
(PID.TID 0000.0001) %MON dynstat_theta_mean           =   3.5039114873397E+00
(PID.TID 0000.0001) %MON dynstat_theta_sd             =   4.7506382708129E+00
(PID.TID 0000.0001) %MON dynstat_theta_del2           =   2.9894056881387E-03
(PID.TID 0000.0001) %MON dynstat_salt_max             =   4.0841679991602E+01
(PID.TID 0000.0001) %MON dynstat_salt_min             =   1.8096652406729E+01
(PID.TID 0000.0001) %MON dynstat_salt_mean            =   3.4756118154801E+01
(PID.TID 0000.0001) %MON dynstat_salt_sd              =   5.1176105639323E-01
(PID.TID 0000.0001) %MON dynstat_salt_del2            =   8.4399867441975E-04
(PID.TID 0000.0001) %MON forcing_qnet_max             =   8.1145469961864E+02
(PID.TID 0000.0001) %MON forcing_qnet_min             =  -2.3176805798628E+02
(PID.TID 0000.0001) %MON forcing_qnet_mean            =  -6.6478200730398E+00
(PID.TID 0000.0001) %MON forcing_qnet_sd              =   1.1870914873218E+02
(PID.TID 0000.0001) %MON forcing_qnet_del2            =   1.3425922071334E+00
(PID.TID 0000.0001) %MON forcing_qsw_max              =  -0.0000000000000E+00
(PID.TID 0000.0001) %MON forcing_qsw_min              =  -3.3787837809554E+02
(PID.TID 0000.0001) %MON forcing_qsw_mean             =  -1.8661941345490E+02
(PID.TID 0000.0001) %MON forcing_qsw_sd               =   7.8409211916949E+01
(PID.TID 0000.0001) %MON forcing_qsw_del2             =   6.6709363256898E-01
(PID.TID 0000.0001) %MON forcing_empmr_max            =   4.6151180551952E-04
(PID.TID 0000.0001) %MON forcing_empmr_min            =  -3.1726171669478E-04
(PID.TID 0000.0001) %MON forcing_empmr_mean           =  -8.4373560387313E-07
(PID.TID 0000.0001) %MON forcing_empmr_sd             =   4.8098043326205E-05
(PID.TID 0000.0001) %MON forcing_empmr_del2           =   8.8953211690331E-07
(PID.TID 0000.0001) %MON forcing_fu_max               =   2.4586080052368E-01
(PID.TID 0000.0001) %MON forcing_fu_min               =  -2.4690104382675E-01
(PID.TID 0000.0001) %MON forcing_fu_mean              =  -3.9278253198990E-03
(PID.TID 0000.0001) %MON forcing_fu_sd                =   6.5282090105345E-02
(PID.TID 0000.0001) %MON forcing_fu_del2              =   2.2765741152947E-04
(PID.TID 0000.0001) %MON forcing_fv_max               =   2.9225622243089E-01
(PID.TID 0000.0001) %MON forcing_fv_min               =  -3.3606226010595E-01
(PID.TID 0000.0001) %MON forcing_fv_mean              =  -1.3741594714266E-02
(PID.TID 0000.0001) %MON forcing_fv_sd                =   7.6550053729987E-02
(PID.TID 0000.0001) %MON forcing_fv_del2              =   2.5418174123344E-04
(PID.TID 0000.0001) %MON trAdv_CFL_u_max              =   7.4602337173058E-02
(PID.TID 0000.0001) %MON trAdv_CFL_v_max              =   8.9470484729579E-02
(PID.TID 0000.0001) %MON trAdv_CFL_w_max              =   6.3641471296717E-02
(PID.TID 0000.0001) %MON advcfl_uvel_max              =   7.5021771676753E-02
(PID.TID 0000.0001) %MON advcfl_vvel_max              =   8.4099601547194E-02
(PID.TID 0000.0001) %MON advcfl_wvel_max              =   5.7608534392203E-02
(PID.TID 0000.0001) %MON advcfl_W_hf_max              =   6.3641471296717E-02
(PID.TID 0000.0001) %MON pe_b_mean                    =  -1.9215936489789E-03
(PID.TID 0000.0001) %MON ke_max                       =   3.4821358944632E-02
(PID.TID 0000.0001) %MON ke_mean                      =   1.6154605666571E-04
(PID.TID 0000.0001) %MON ke_vol                       =   1.3395907264047E+18
(PID.TID 0000.0001) %MON vort_r_min                   =  -1.2884501886261E-06
(PID.TID 0000.0001) %MON vort_r_max                   =   1.4155981985058E-06
(PID.TID 0000.0001) %MON vort_a_mean                  =  -2.0549865324846E-05
(PID.TID 0000.0001) %MON vort_a_sd                    =   7.5259581906560E-05
(PID.TID 0000.0001) %MON vort_p_mean                  =  -2.4787191144892E-05
(PID.TID 0000.0001) %MON vort_p_sd                    =   1.2817300793276E-04
(PID.TID 0000.0001) %MON surfExpan_theta_mean         =   7.3801085240932E-08
(PID.TID 0000.0001) %MON surfExpan_salt_mean          =   1.9539332498658E-08
(PID.TID 0000.0001) // =======================================================
(PID.TID 0000.0001) // End MONITOR dynamic field statistics
(PID.TID 0000.0001) // =======================================================
(PID.TID 0000.0001) // =======================================================
(PID.TID 0000.0001) // Begin MONITOR Therm.SeaIce statistics
(PID.TID 0000.0001) // =======================================================
(PID.TID 0000.0001) %MON thSI_time_sec                =   3.1118688000000E+09
(PID.TID 0000.0001) %MON thSI_Ice_Area_G              =   2.4892915476272E+13
(PID.TID 0000.0001) %MON thSI_Ice_Area_S              =   1.1419586426364E+13
(PID.TID 0000.0001) %MON thSI_Ice_Area_N              =   1.3473329049908E+13
(PID.TID 0000.0001) %MON thSI_IceH_ave_G              =   4.5656942091889E+00
(PID.TID 0000.0001) %MON thSI_IceH_ave_S              =   5.8883858819104E+00
(PID.TID 0000.0001) %MON thSI_IceH_ave_N              =   3.4446207301606E+00
(PID.TID 0000.0001) %MON thSI_IceH_max_S              =   1.0000000000000E+01
(PID.TID 0000.0001) %MON thSI_IceH_max_N              =   1.0000000000000E+01
(PID.TID 0000.0001) %MON thSI_SnwH_ave_G              =   9.9364608577597E-01
(PID.TID 0000.0001) %MON thSI_SnwH_ave_S              =   1.7207575915544E+00
(PID.TID 0000.0001) %MON thSI_SnwH_ave_N              =   3.7736835285020E-01
(PID.TID 0000.0001) %MON thSI_SnwH_max_S              =   4.0930373379333E+00
(PID.TID 0000.0001) %MON thSI_SnwH_max_N              =   4.1061092788604E+00
(PID.TID 0000.0001) %MON thSI_Tsrf_ave_G              =  -1.7962058111880E+01
(PID.TID 0000.0001) %MON thSI_Tsrf_ave_S              =  -1.4823043215718E-01
(PID.TID 0000.0001) %MON thSI_Tsrf_ave_N              =  -3.3060519970817E+01
(PID.TID 0000.0001) %MON thSI_Tsrf_min_S              =  -5.7900292618837E+00
(PID.TID 0000.0001) %MON thSI_Tsrf_min_N              =  -4.7949851470919E+01
(PID.TID 0000.0001) %MON thSI_Tsrf_max_S              =   0.0000000000000E+00
(PID.TID 0000.0001) %MON thSI_Tsrf_max_N              =  -1.7864706280449E+00
(PID.TID 0000.0001) %MON thSI_Tic1_ave_G              =  -8.6887081852925E+00
(PID.TID 0000.0001) %MON thSI_Tic1_ave_S              =  -4.7925841595320E+00
(PID.TID 0000.0001) %MON thSI_Tic1_ave_N              =  -1.4333696984797E+01
(PID.TID 0000.0001) %MON thSI_Tic1_min_S              =  -1.4272207558021E+01
(PID.TID 0000.0001) %MON thSI_Tic1_min_N              =  -2.1764880158626E+01
(PID.TID 0000.0001) %MON thSI_Tic1_max_S              =  -1.4680876805909E-01
(PID.TID 0000.0001) %MON thSI_Tic1_max_N              =  -9.4388000123897E-01
(PID.TID 0000.0001) %MON thSI_Tic2_ave_G              =  -3.9397147793960E+00
(PID.TID 0000.0001) %MON thSI_Tic2_ave_S              =  -3.0413608235502E+00
(PID.TID 0000.0001) %MON thSI_Tic2_ave_N              =  -5.2413155460068E+00
(PID.TID 0000.0001) %MON thSI_Tic2_min_S              =  -8.2917469287538E+00
(PID.TID 0000.0001) %MON thSI_Tic2_min_N              =  -7.9190497890162E+00
(PID.TID 0000.0001) %MON thSI_Tic2_max_S              =  -9.9362240922258E-01
(PID.TID 0000.0001) %MON thSI_Tic2_max_N              =  -1.4028179362780E+00
(PID.TID 0000.0001) %MON thSI_TotEnerg_G              =  -3.8043467390806E+22
(PID.TID 0000.0001) // =======================================================
(PID.TID 0000.0001) // End MONITOR Therm.SeaIce statistics
(PID.TID 0000.0001) // =======================================================
 BULKF_FIELDS_LOAD,     36017 : iP,iLd,i0,i1=    1    2    1    2 ; Wght=  0.9333333333  0.0666666667
 EXTERNAL_FIELDS_LOAD,     36017 : iP,iLd,i0,i1=    1    2    1    2 ; Wght=  0.9333333333  0.0666666667
 cg2d: Sum(rhs),rhsMax =   3.91105581206913E+02  2.30680071445414E+02
(PID.TID 0000.0001)      cg2d_init_res =   2.50819327135584E+00
(PID.TID 0000.0001)      cg2d_iters(min,last) =      -1      69
(PID.TID 0000.0001)      cg2d_last_res =   5.18713292566395E-07
(PID.TID 0000.0001) // =======================================================
(PID.TID 0000.0001) // Begin MONITOR dynamic field statistics
(PID.TID 0000.0001) // =======================================================
(PID.TID 0000.0001) %MON time_tsnumber                =                 36018
(PID.TID 0000.0001) %MON time_secondsf                =   3.1119552000000E+09
(PID.TID 0000.0001) %MON dynstat_eta_max              =   7.1281598418461E-01
(PID.TID 0000.0001) %MON dynstat_eta_min              =  -1.1945181753380E+01
(PID.TID 0000.0001) %MON dynstat_eta_mean             =  -5.8170816057501E-01
(PID.TID 0000.0001) %MON dynstat_eta_sd               =   1.6962203539909E+00
(PID.TID 0000.0001) %MON dynstat_eta_del2             =   2.1363896889856E-02
(PID.TID 0000.0001) %MON dynstat_uvel_max             =   1.7265007204886E-01
(PID.TID 0000.0001) %MON dynstat_uvel_min             =  -2.6399223748565E-01
(PID.TID 0000.0001) %MON dynstat_uvel_mean            =  -5.1857690418489E-04
(PID.TID 0000.0001) %MON dynstat_uvel_sd              =   1.2965677868363E-02
(PID.TID 0000.0001) %MON dynstat_uvel_del2            =   5.8503191754872E-05
(PID.TID 0000.0001) %MON dynstat_vvel_max             =   1.9244012954302E-01
(PID.TID 0000.0001) %MON dynstat_vvel_min             =  -2.1163438058257E-01
(PID.TID 0000.0001) %MON dynstat_vvel_mean            =  -4.1578429724589E-04
(PID.TID 0000.0001) %MON dynstat_vvel_sd              =   1.3460353021501E-02
(PID.TID 0000.0001) %MON dynstat_vvel_del2            =   5.5799813560738E-05
(PID.TID 0000.0001) %MON dynstat_wvel_max             =   9.3129257450908E-05
(PID.TID 0000.0001) %MON dynstat_wvel_min             =  -1.7644319706633E-04
(PID.TID 0000.0001) %MON dynstat_wvel_mean            =  -1.1950780777210E-09
(PID.TID 0000.0001) %MON dynstat_wvel_sd              =   4.6210193511167E-06
(PID.TID 0000.0001) %MON dynstat_wvel_del2            =   4.0252655996171E-08
(PID.TID 0000.0001) %MON dynstat_theta_max            =   2.9817380640889E+01
(PID.TID 0000.0001) %MON dynstat_theta_min            =  -3.5485592153699E+00
(PID.TID 0000.0001) %MON dynstat_theta_mean           =   3.5039864787847E+00
(PID.TID 0000.0001) %MON dynstat_theta_sd             =   4.7508150403588E+00
(PID.TID 0000.0001) %MON dynstat_theta_del2           =   2.9946160260574E-03
(PID.TID 0000.0001) %MON dynstat_salt_max             =   4.0842056541964E+01
(PID.TID 0000.0001) %MON dynstat_salt_min             =   1.8098069030613E+01
(PID.TID 0000.0001) %MON dynstat_salt_mean            =   3.4756118805503E+01
(PID.TID 0000.0001) %MON dynstat_salt_sd              =   5.1175276063823E-01
(PID.TID 0000.0001) %MON dynstat_salt_del2            =   8.4495883976841E-04
(PID.TID 0000.0001) %MON forcing_qnet_max             =   8.0461881873505E+02
(PID.TID 0000.0001) %MON forcing_qnet_min             =  -2.3023442984884E+02
(PID.TID 0000.0001) %MON forcing_qnet_mean            =  -6.9119695332141E+00
(PID.TID 0000.0001) %MON forcing_qnet_sd              =   1.1676038903093E+02
(PID.TID 0000.0001) %MON forcing_qnet_del2            =   1.3400189137879E+00
(PID.TID 0000.0001) %MON forcing_qsw_max              =  -0.0000000000000E+00
(PID.TID 0000.0001) %MON forcing_qsw_min              =  -3.3686077470735E+02
(PID.TID 0000.0001) %MON forcing_qsw_mean             =  -1.8658914663456E+02
(PID.TID 0000.0001) %MON forcing_qsw_sd               =   7.7951544018534E+01
(PID.TID 0000.0001) %MON forcing_qsw_del2             =   6.6243126748676E-01
(PID.TID 0000.0001) %MON forcing_empmr_max            =   8.9692843831939E-04
(PID.TID 0000.0001) %MON forcing_empmr_min            =  -3.1599672372993E-04
(PID.TID 0000.0001) %MON forcing_empmr_mean           =  -5.7424113503432E-07
(PID.TID 0000.0001) %MON forcing_empmr_sd             =   4.9590298335051E-05
(PID.TID 0000.0001) %MON forcing_empmr_del2           =   9.1073133940915E-07
(PID.TID 0000.0001) %MON forcing_fu_max               =   2.4279378961307E-01
(PID.TID 0000.0001) %MON forcing_fu_min               =  -2.4221101327311E-01
(PID.TID 0000.0001) %MON forcing_fu_mean              =  -3.9599540109368E-03
(PID.TID 0000.0001) %MON forcing_fu_sd                =   6.5097565012911E-02
(PID.TID 0000.0001) %MON forcing_fu_del2              =   2.2436904772888E-04
(PID.TID 0000.0001) %MON forcing_fv_max               =   2.9145284083641E-01
(PID.TID 0000.0001) %MON forcing_fv_min               =  -3.3262320792717E-01
(PID.TID 0000.0001) %MON forcing_fv_mean              =  -1.3739804720763E-02
(PID.TID 0000.0001) %MON forcing_fv_sd                =   7.6299912613877E-02
(PID.TID 0000.0001) %MON forcing_fv_del2              =   2.5181803534899E-04
(PID.TID 0000.0001) %MON trAdv_CFL_u_max              =   7.4454602570765E-02
(PID.TID 0000.0001) %MON trAdv_CFL_v_max              =   8.9238828889319E-02
(PID.TID 0000.0001) %MON trAdv_CFL_w_max              =   6.3551594580052E-02
(PID.TID 0000.0001) %MON advcfl_uvel_max              =   7.4873206136925E-02
(PID.TID 0000.0001) %MON advcfl_vvel_max              =   8.3881941330039E-02
(PID.TID 0000.0001) %MON advcfl_wvel_max              =   5.7527140477476E-02
(PID.TID 0000.0001) %MON advcfl_W_hf_max              =   6.3551594580052E-02
(PID.TID 0000.0001) %MON pe_b_mean                    =  -1.9209637125656E-03
(PID.TID 0000.0001) %MON ke_max                       =   3.4677700444995E-02
(PID.TID 0000.0001) %MON ke_mean                      =   1.6149168237983E-04
(PID.TID 0000.0001) %MON ke_vol                       =   1.3395907520345E+18
(PID.TID 0000.0001) %MON vort_r_min                   =  -1.2930414523949E-06
(PID.TID 0000.0001) %MON vort_r_max                   =   1.4168800682407E-06
(PID.TID 0000.0001) %MON vort_a_mean                  =  -2.0549865324846E-05
(PID.TID 0000.0001) %MON vort_a_sd                    =   7.5259581869891E-05
(PID.TID 0000.0001) %MON vort_p_mean                  =  -2.4787190402252E-05
(PID.TID 0000.0001) %MON vort_p_sd                    =   1.2817300699317E-04
(PID.TID 0000.0001) %MON surfExpan_theta_mean         =   7.2595513569203E-08
(PID.TID 0000.0001) %MON surfExpan_salt_mean          =   1.9366459240238E-08
(PID.TID 0000.0001) // =======================================================
(PID.TID 0000.0001) // End MONITOR dynamic field statistics
(PID.TID 0000.0001) // =======================================================
(PID.TID 0000.0001) // =======================================================
(PID.TID 0000.0001) // Begin MONITOR Therm.SeaIce statistics
(PID.TID 0000.0001) // =======================================================
(PID.TID 0000.0001) %MON thSI_time_sec                =   3.1119552000000E+09
(PID.TID 0000.0001) %MON thSI_Ice_Area_G              =   2.4908058112187E+13
(PID.TID 0000.0001) %MON thSI_Ice_Area_S              =   1.1384710444956E+13
(PID.TID 0000.0001) %MON thSI_Ice_Area_N              =   1.3523347667231E+13
(PID.TID 0000.0001) %MON thSI_IceH_ave_G              =   4.5624954952090E+00
(PID.TID 0000.0001) %MON thSI_IceH_ave_S              =   5.8996174378121E+00
(PID.TID 0000.0001) %MON thSI_IceH_ave_N              =   3.4368314569310E+00
(PID.TID 0000.0001) %MON thSI_IceH_max_S              =   1.0000000000000E+01
(PID.TID 0000.0001) %MON thSI_IceH_max_N              =   1.0000000000000E+01
(PID.TID 0000.0001) %MON thSI_SnwH_ave_G              =   9.9085190333177E-01
(PID.TID 0000.0001) %MON thSI_SnwH_ave_S              =   1.7178649169111E+00
(PID.TID 0000.0001) %MON thSI_SnwH_ave_N              =   3.7881168570345E-01
(PID.TID 0000.0001) %MON thSI_SnwH_max_S              =   4.0930070378578E+00
(PID.TID 0000.0001) %MON thSI_SnwH_max_N              =   4.1064661650490E+00
(PID.TID 0000.0001) %MON thSI_Tsrf_ave_G              =  -1.8005347736858E+01
(PID.TID 0000.0001) %MON thSI_Tsrf_ave_S              =  -1.8609272269978E-01
(PID.TID 0000.0001) %MON thSI_Tsrf_ave_N              =  -3.3006593262223E+01
(PID.TID 0000.0001) %MON thSI_Tsrf_min_S              =  -6.0831078425613E+00
(PID.TID 0000.0001) %MON thSI_Tsrf_min_N              =  -4.7936329255264E+01
(PID.TID 0000.0001) %MON thSI_Tsrf_max_S              =   0.0000000000000E+00
(PID.TID 0000.0001) %MON thSI_Tsrf_max_N              =  -1.7144137354905E+00
(PID.TID 0000.0001) %MON thSI_Tic1_ave_G              =  -8.7052302780846E+00
(PID.TID 0000.0001) %MON thSI_Tic1_ave_S              =  -4.7694083167211E+00
(PID.TID 0000.0001) %MON thSI_Tic1_ave_N              =  -1.4392958505602E+01
(PID.TID 0000.0001) %MON thSI_Tic1_min_S              =  -1.3834477966330E+01
(PID.TID 0000.0001) %MON thSI_Tic1_min_N              =  -2.1860508061828E+01
(PID.TID 0000.0001) %MON thSI_Tic1_max_S              =  -1.4266223607457E-01
(PID.TID 0000.0001) %MON thSI_Tic1_max_N              =  -9.7202615714057E-01
(PID.TID 0000.0001) %MON thSI_Tic2_ave_G              =  -3.9490118259864E+00
(PID.TID 0000.0001) %MON thSI_Tic2_ave_S              =  -3.0371692237516E+00
(PID.TID 0000.0001) %MON thSI_Tic2_ave_N              =  -5.2667322306938E+00
(PID.TID 0000.0001) %MON thSI_Tic2_min_S              =  -8.2569430895453E+00
(PID.TID 0000.0001) %MON thSI_Tic2_min_N              =  -7.9425107265476E+00
(PID.TID 0000.0001) %MON thSI_Tic2_max_S              =  -9.6969708512558E-01
(PID.TID 0000.0001) %MON thSI_Tic2_max_N              =  -1.4155911563848E+00
(PID.TID 0000.0001) %MON thSI_TotEnerg_G              =  -3.8035800054284E+22
(PID.TID 0000.0001) // =======================================================
(PID.TID 0000.0001) // End MONITOR Therm.SeaIce statistics
(PID.TID 0000.0001) // =======================================================
 BULKF_FIELDS_LOAD,     36018 : iP,iLd,i0,i1=    1    2    1    2 ; Wght=  0.9000000000  0.1000000000
 EXTERNAL_FIELDS_LOAD,     36018 : iP,iLd,i0,i1=    1    2    1    2 ; Wght=  0.9000000000  0.1000000000
 cg2d: Sum(rhs),rhsMax =   3.91076903976521E+02  2.30765328814219E+02
(PID.TID 0000.0001)      cg2d_init_res =   2.46218512082276E+00
(PID.TID 0000.0001)      cg2d_iters(min,last) =      -1      69
(PID.TID 0000.0001)      cg2d_last_res =   5.06103593712318E-07
(PID.TID 0000.0001) // =======================================================
(PID.TID 0000.0001) // Begin MONITOR dynamic field statistics
(PID.TID 0000.0001) // =======================================================
(PID.TID 0000.0001) %MON time_tsnumber                =                 36019
(PID.TID 0000.0001) %MON time_secondsf                =   3.1120416000000E+09
(PID.TID 0000.0001) %MON dynstat_eta_max              =   7.1185236524626E-01
(PID.TID 0000.0001) %MON dynstat_eta_min              =  -1.1942413488503E+01
(PID.TID 0000.0001) %MON dynstat_eta_mean             =  -5.8166550769624E-01
(PID.TID 0000.0001) %MON dynstat_eta_sd               =   1.6958519288693E+00
(PID.TID 0000.0001) %MON dynstat_eta_del2             =   2.1371368365842E-02
(PID.TID 0000.0001) %MON dynstat_uvel_max             =   1.7267462883448E-01
(PID.TID 0000.0001) %MON dynstat_uvel_min             =  -2.6345701780226E-01
(PID.TID 0000.0001) %MON dynstat_uvel_mean            =  -5.1775245518219E-04
(PID.TID 0000.0001) %MON dynstat_uvel_sd              =   1.2965481219315E-02
(PID.TID 0000.0001) %MON dynstat_uvel_del2            =   5.8499072261328E-05
(PID.TID 0000.0001) %MON dynstat_vvel_max             =   1.9190476800649E-01
(PID.TID 0000.0001) %MON dynstat_vvel_min             =  -2.1163082725778E-01
(PID.TID 0000.0001) %MON dynstat_vvel_mean            =  -4.1517284823077E-04
(PID.TID 0000.0001) %MON dynstat_vvel_sd              =   1.3456108861961E-02
(PID.TID 0000.0001) %MON dynstat_vvel_del2            =   5.5778652313569E-05
(PID.TID 0000.0001) %MON dynstat_wvel_max             =   9.3471341616513E-05
(PID.TID 0000.0001) %MON dynstat_wvel_min             =  -1.7620264954651E-04
(PID.TID 0000.0001) %MON dynstat_wvel_mean            =  -1.1495613031278E-09
(PID.TID 0000.0001) %MON dynstat_wvel_sd              =   4.6206766658291E-06
(PID.TID 0000.0001) %MON dynstat_wvel_del2            =   4.0229971087857E-08
(PID.TID 0000.0001) %MON dynstat_theta_max            =   2.9802923277526E+01
(PID.TID 0000.0001) %MON dynstat_theta_min            =  -3.5665891434791E+00
(PID.TID 0000.0001) %MON dynstat_theta_mean           =   3.5040626169699E+00
(PID.TID 0000.0001) %MON dynstat_theta_sd             =   4.7510028414987E+00
(PID.TID 0000.0001) %MON dynstat_theta_del2           =   2.9991700235817E-03
(PID.TID 0000.0001) %MON dynstat_salt_max             =   4.0842329570038E+01
(PID.TID 0000.0001) %MON dynstat_salt_min             =   1.8099488745224E+01
(PID.TID 0000.0001) %MON dynstat_salt_mean            =   3.4756119532774E+01
(PID.TID 0000.0001) %MON dynstat_salt_sd              =   5.1174480159488E-01
(PID.TID 0000.0001) %MON dynstat_salt_del2            =   8.4564605378790E-04
(PID.TID 0000.0001) %MON forcing_qnet_max             =   7.9790261554981E+02
(PID.TID 0000.0001) %MON forcing_qnet_min             =  -2.2869795223886E+02
(PID.TID 0000.0001) %MON forcing_qnet_mean            =  -7.0564056363267E+00
(PID.TID 0000.0001) %MON forcing_qnet_sd              =   1.1496026376556E+02
(PID.TID 0000.0001) %MON forcing_qnet_del2            =   1.3335957654706E+00
(PID.TID 0000.0001) %MON forcing_qsw_max              =  -0.0000000000000E+00
(PID.TID 0000.0001) %MON forcing_qsw_min              =  -3.3584317131916E+02
(PID.TID 0000.0001) %MON forcing_qsw_mean             =  -1.8655459418947E+02
(PID.TID 0000.0001) %MON forcing_qsw_sd               =   7.7502747702071E+01
(PID.TID 0000.0001) %MON forcing_qsw_del2             =   6.5667824877224E-01
(PID.TID 0000.0001) %MON forcing_empmr_max            =   6.2701845072494E-04
(PID.TID 0000.0001) %MON forcing_empmr_min            =  -3.1664589326993E-04
(PID.TID 0000.0001) %MON forcing_empmr_mean           =  -5.1094594360939E-07
(PID.TID 0000.0001) %MON forcing_empmr_sd             =   4.8487468384510E-05
(PID.TID 0000.0001) %MON forcing_empmr_del2           =   9.2096178669375E-07
(PID.TID 0000.0001) %MON forcing_fu_max               =   2.3972677870247E-01
(PID.TID 0000.0001) %MON forcing_fu_min               =  -2.3770170012775E-01
(PID.TID 0000.0001) %MON forcing_fu_mean              =  -3.9920827019745E-03
(PID.TID 0000.0001) %MON forcing_fu_sd                =   6.4926925508109E-02
(PID.TID 0000.0001) %MON forcing_fu_del2              =   2.2128767840564E-04
(PID.TID 0000.0001) %MON forcing_fv_max               =   2.9064945924193E-01
(PID.TID 0000.0001) %MON forcing_fv_min               =  -3.2918415574839E-01
(PID.TID 0000.0001) %MON forcing_fv_mean              =  -1.3738014727260E-02
(PID.TID 0000.0001) %MON forcing_fv_sd                =   7.6066207026079E-02
(PID.TID 0000.0001) %MON forcing_fv_del2              =   2.4963077337507E-04
(PID.TID 0000.0001) %MON trAdv_CFL_u_max              =   7.4303653206286E-02
(PID.TID 0000.0001) %MON trAdv_CFL_v_max              =   8.8990478801669E-02
(PID.TID 0000.0001) %MON trAdv_CFL_w_max              =   6.3464994897094E-02
(PID.TID 0000.0001) %MON advcfl_uvel_max              =   7.4721407682301E-02
(PID.TID 0000.0001) %MON advcfl_vvel_max              =   8.3648584778552E-02
(PID.TID 0000.0001) %MON advcfl_wvel_max              =   5.7448712908748E-02
(PID.TID 0000.0001) %MON advcfl_W_hf_max              =   6.3464994897094E-02
(PID.TID 0000.0001) %MON pe_b_mean                    =  -1.9204690958171E-03
(PID.TID 0000.0001) %MON ke_max                       =   3.4532984419664E-02
(PID.TID 0000.0001) %MON ke_mean                      =   1.6143573089424E-04
(PID.TID 0000.0001) %MON ke_vol                       =   1.3395907694780E+18
(PID.TID 0000.0001) %MON vort_r_min                   =  -1.2974187043164E-06
(PID.TID 0000.0001) %MON vort_r_max                   =   1.4176753470402E-06
(PID.TID 0000.0001) %MON vort_a_mean                  =  -2.0549865324846E-05
(PID.TID 0000.0001) %MON vort_a_sd                    =   7.5259581854508E-05
(PID.TID 0000.0001) %MON vort_p_mean                  =  -2.4787189762233E-05
(PID.TID 0000.0001) %MON vort_p_sd                    =   1.2817300908218E-04
(PID.TID 0000.0001) %MON surfExpan_theta_mean         =   7.1871800833822E-08
(PID.TID 0000.0001) %MON surfExpan_salt_mean          =   1.9170033825088E-08
(PID.TID 0000.0001) // =======================================================
(PID.TID 0000.0001) // End MONITOR dynamic field statistics
(PID.TID 0000.0001) // =======================================================
(PID.TID 0000.0001) // =======================================================
(PID.TID 0000.0001) // Begin MONITOR Therm.SeaIce statistics
(PID.TID 0000.0001) // =======================================================
(PID.TID 0000.0001) %MON thSI_time_sec                =   3.1120416000000E+09
(PID.TID 0000.0001) %MON thSI_Ice_Area_G              =   2.4914873832295E+13
(PID.TID 0000.0001) %MON thSI_Ice_Area_S              =   1.1349035967632E+13
(PID.TID 0000.0001) %MON thSI_Ice_Area_N              =   1.3565837864663E+13
(PID.TID 0000.0001) %MON thSI_IceH_ave_G              =   4.5608420171972E+00
(PID.TID 0000.0001) %MON thSI_IceH_ave_S              =   5.9115004614920E+00
(PID.TID 0000.0001) %MON thSI_IceH_ave_N              =   3.4308954988023E+00
(PID.TID 0000.0001) %MON thSI_IceH_max_S              =   1.0000000000000E+01
(PID.TID 0000.0001) %MON thSI_IceH_max_N              =   1.0000000000000E+01
(PID.TID 0000.0001) %MON thSI_SnwH_ave_G              =   9.8869955783343E-01
(PID.TID 0000.0001) %MON thSI_SnwH_ave_S              =   1.7157299470084E+00
(PID.TID 0000.0001) %MON thSI_SnwH_ave_N              =   3.8047365106495E-01
(PID.TID 0000.0001) %MON thSI_SnwH_max_S              =   4.0929783276259E+00
(PID.TID 0000.0001) %MON thSI_SnwH_max_N              =   4.1068142098429E+00
(PID.TID 0000.0001) %MON thSI_Tsrf_ave_G              =  -1.8046891503191E+01
(PID.TID 0000.0001) %MON thSI_Tsrf_ave_S              =  -2.2414827049154E-01
(PID.TID 0000.0001) %MON thSI_Tsrf_ave_N              =  -3.2957209318256E+01
(PID.TID 0000.0001) %MON thSI_Tsrf_min_S              =  -6.3852919785779E+00
(PID.TID 0000.0001) %MON thSI_Tsrf_min_N              =  -4.7922582605044E+01
(PID.TID 0000.0001) %MON thSI_Tsrf_max_S              =   0.0000000000000E+00
(PID.TID 0000.0001) %MON thSI_Tsrf_max_N              =  -4.9380527844339E+00
(PID.TID 0000.0001) %MON thSI_Tic1_ave_G              =  -8.7202546342199E+00
(PID.TID 0000.0001) %MON thSI_Tic1_ave_S              =  -4.7455523783897E+00
(PID.TID 0000.0001) %MON thSI_Tic1_ave_N              =  -1.4449628849183E+01
(PID.TID 0000.0001) %MON thSI_Tic1_min_S              =  -1.3714814057949E+01
(PID.TID 0000.0001) %MON thSI_Tic1_min_N              =  -2.1953922146365E+01
(PID.TID 0000.0001) %MON thSI_Tic1_max_S              =  -1.3876386245430E-01
(PID.TID 0000.0001) %MON thSI_Tic1_max_N              =  -1.0014584975714E+00
(PID.TID 0000.0001) %MON thSI_Tic2_ave_G              =  -3.9580341715193E+00
(PID.TID 0000.0001) %MON thSI_Tic2_ave_S              =  -3.0329857545096E+00
(PID.TID 0000.0001) %MON thSI_Tic2_ave_N              =  -5.2914544397251E+00
(PID.TID 0000.0001) %MON thSI_Tic2_min_S              =  -8.2205507582982E+00
(PID.TID 0000.0001) %MON thSI_Tic2_min_N              =  -7.9652009417940E+00
(PID.TID 0000.0001) %MON thSI_Tic2_max_S              =  -9.4594811540416E-01
(PID.TID 0000.0001) %MON thSI_Tic2_max_N              =  -1.4280805216296E+00
(PID.TID 0000.0001) %MON thSI_TotEnerg_G              =  -3.8028713002731E+22
(PID.TID 0000.0001) // =======================================================
(PID.TID 0000.0001) // End MONITOR Therm.SeaIce statistics
(PID.TID 0000.0001) // =======================================================
 Computing Diagnostic #     23  ETAN         Counter:       1   Parms: SM      M1      
 Computing Diagnostic #     85  oceFWflx     Counter:       1   Parms: SM      U1      
 Computing Diagnostic #     26  THETA        Counter:       1   Parms: SMR     MR      
 Computing Diagnostic #     27  SALT         Counter:       1   Parms: SMR     MR      
 Compute Stats, Diag. #     81  oceTAUX   vol(   0 ): 3.111E+15  Parms: UU      U1      
 Compute Stats, Diag. #     82  oceTAUY   vol(   0 ): 3.130E+15  Parms: VV      U1      
 Compute Stats, Diag. #     90  TRELAX    vol(   0 ): 3.275E+15  Parms: SM      U1      
 Compute Stats, Diag. #     91  SRELAX    vol(   0 ): 3.275E+15  Parms: SM      U1      
 Compute Stats, Diag. #     92  surForcT  vol(   0 ): 3.275E+15  Parms: SM      U1      
 Compute Stats, Diag. #     93  surForcS  vol(   0 ): 3.275E+15  Parms: SM      U1      
 Compute Stats, Diag. #     94  TFLUX     vol(   0 ): 3.275E+15  Parms: SM      U1      
 Compute Stats, Diag. #     95  SFLUX     vol(   0 ): 3.275E+15  Parms: SM      U1      
 Compute Stats, Diag. #     87  oceQnet   vol(   0 ): 3.275E+15  Parms: SM      U1      
 Compute Stats, Diag. #     86  oceSflux  vol(   0 ): 3.275E+15  Parms: SM      U1      
 Compute Stats, Diag. #     85  oceFWflx  vol(   0 ): 3.275E+15  Parms: SM      U1      
 BULKF_FIELDS_LOAD,     36019 : iP,iLd,i0,i1=    1    2    1    2 ; Wght=  0.8666666667  0.1333333333
 EXTERNAL_FIELDS_LOAD,     36019 : iP,iLd,i0,i1=    1    2    1    2 ; Wght=  0.8666666667  0.1333333333
 cg2d: Sum(rhs),rhsMax =   3.91039355919586E+02  2.30839751665240E+02
(PID.TID 0000.0001)      cg2d_init_res =   2.46739207235712E+00
(PID.TID 0000.0001)      cg2d_iters(min,last) =      -1      69
(PID.TID 0000.0001)      cg2d_last_res =   4.93698650521880E-07
(PID.TID 0000.0001) // =======================================================
(PID.TID 0000.0001) // Begin MONITOR dynamic field statistics
(PID.TID 0000.0001) // =======================================================
(PID.TID 0000.0001) %MON time_tsnumber                =                 36020
(PID.TID 0000.0001) %MON time_secondsf                =   3.1121280000000E+09
(PID.TID 0000.0001) %MON dynstat_eta_max              =   7.1090695207631E-01
(PID.TID 0000.0001) %MON dynstat_eta_min              =  -1.1939834737106E+01
(PID.TID 0000.0001) %MON dynstat_eta_mean             =  -5.8160966085543E-01
(PID.TID 0000.0001) %MON dynstat_eta_sd               =   1.6955158729046E+00
(PID.TID 0000.0001) %MON dynstat_eta_del2             =   2.1379746069216E-02
(PID.TID 0000.0001) %MON dynstat_uvel_max             =   1.7264322840604E-01
(PID.TID 0000.0001) %MON dynstat_uvel_min             =  -2.6291023921090E-01
(PID.TID 0000.0001) %MON dynstat_uvel_mean            =  -5.1696056074818E-04
(PID.TID 0000.0001) %MON dynstat_uvel_sd              =   1.2965438748165E-02
(PID.TID 0000.0001) %MON dynstat_uvel_del2            =   5.8496973933788E-05
(PID.TID 0000.0001) %MON dynstat_vvel_max             =   1.9133628334892E-01
(PID.TID 0000.0001) %MON dynstat_vvel_min             =  -2.1161957139555E-01
(PID.TID 0000.0001) %MON dynstat_vvel_mean            =  -4.1451105751367E-04
(PID.TID 0000.0001) %MON dynstat_vvel_sd              =   1.3451642144957E-02
(PID.TID 0000.0001) %MON dynstat_vvel_del2            =   5.5758343524122E-05
(PID.TID 0000.0001) %MON dynstat_wvel_max             =   9.3743731988983E-05
(PID.TID 0000.0001) %MON dynstat_wvel_min             =  -1.7597900734319E-04
(PID.TID 0000.0001) %MON dynstat_wvel_mean            =  -1.1495205940497E-09
(PID.TID 0000.0001) %MON dynstat_wvel_sd              =   4.6201027229341E-06
(PID.TID 0000.0001) %MON dynstat_wvel_del2            =   4.0203591393843E-08
(PID.TID 0000.0001) %MON dynstat_theta_max            =   2.9808316497784E+01
(PID.TID 0000.0001) %MON dynstat_theta_min            =  -3.5846154495279E+00
(PID.TID 0000.0001) %MON dynstat_theta_mean           =   3.5041394188091E+00
(PID.TID 0000.0001) %MON dynstat_theta_sd             =   4.7512007908293E+00
(PID.TID 0000.0001) %MON dynstat_theta_del2           =   3.0043685088266E-03
(PID.TID 0000.0001) %MON dynstat_salt_max             =   4.0842505093505E+01
(PID.TID 0000.0001) %MON dynstat_salt_min             =   1.8100916973694E+01
(PID.TID 0000.0001) %MON dynstat_salt_mean            =   3.4756120177541E+01
(PID.TID 0000.0001) %MON dynstat_salt_sd              =   5.1173754371056E-01
(PID.TID 0000.0001) %MON dynstat_salt_del2            =   8.4638100783213E-04
(PID.TID 0000.0001) %MON forcing_qnet_max             =   7.9130352521582E+02
(PID.TID 0000.0001) %MON forcing_qnet_min             =  -2.2681292710281E+02
(PID.TID 0000.0001) %MON forcing_qnet_mean            =  -7.1235983428244E+00
(PID.TID 0000.0001) %MON forcing_qnet_sd              =   1.1325289355932E+02
(PID.TID 0000.0001) %MON forcing_qnet_del2            =   1.3242621290565E+00
(PID.TID 0000.0001) %MON forcing_qsw_max              =  -0.0000000000000E+00
(PID.TID 0000.0001) %MON forcing_qsw_min              =  -3.3482556793097E+02
(PID.TID 0000.0001) %MON forcing_qsw_mean             =  -1.8651947868444E+02
(PID.TID 0000.0001) %MON forcing_qsw_sd               =   7.7061489691677E+01
(PID.TID 0000.0001) %MON forcing_qsw_del2             =   6.5116298006961E-01
(PID.TID 0000.0001) %MON forcing_empmr_max            =   4.7062332895101E-04
(PID.TID 0000.0001) %MON forcing_empmr_min            =  -3.1734181687359E-04
(PID.TID 0000.0001) %MON forcing_empmr_mean           =  -6.6899861384717E-07
(PID.TID 0000.0001) %MON forcing_empmr_sd             =   4.7037222867480E-05
(PID.TID 0000.0001) %MON forcing_empmr_del2           =   9.0238775729803E-07
(PID.TID 0000.0001) %MON forcing_fu_max               =   2.3665976779186E-01
(PID.TID 0000.0001) %MON forcing_fu_min               =  -2.3356264696351E-01
(PID.TID 0000.0001) %MON forcing_fu_mean              =  -4.0242113930123E-03
(PID.TID 0000.0001) %MON forcing_fu_sd                =   6.4770281337189E-02
(PID.TID 0000.0001) %MON forcing_fu_del2              =   2.1842206420252E-04
(PID.TID 0000.0001) %MON forcing_fv_max               =   2.8984607764745E-01
(PID.TID 0000.0001) %MON forcing_fv_min               =  -3.2574510356961E-01
(PID.TID 0000.0001) %MON forcing_fv_mean              =  -1.3736224733758E-02
(PID.TID 0000.0001) %MON forcing_fv_sd                =   7.5849088889787E-02
(PID.TID 0000.0001) %MON forcing_fv_del2              =   2.4762463092934E-04
(PID.TID 0000.0001) %MON trAdv_CFL_u_max              =   7.4149443916769E-02
(PID.TID 0000.0001) %MON trAdv_CFL_v_max              =   8.8726772308425E-02
(PID.TID 0000.0001) %MON trAdv_CFL_w_max              =   6.3384484617138E-02
(PID.TID 0000.0001) %MON advcfl_uvel_max              =   7.4566330902121E-02
(PID.TID 0000.0001) %MON advcfl_vvel_max              =   8.3400790325253E-02
(PID.TID 0000.0001) %MON advcfl_wvel_max              =   5.7375797111139E-02
(PID.TID 0000.0001) %MON advcfl_W_hf_max              =   6.3384484617138E-02
(PID.TID 0000.0001) %MON pe_b_mean                    =  -1.9200861285025E-03
(PID.TID 0000.0001) %MON ke_max                       =   3.4387173592673E-02
(PID.TID 0000.0001) %MON ke_mean                      =   1.6137885172462E-04
(PID.TID 0000.0001) %MON ke_vol                       =   1.3395907849988E+18
(PID.TID 0000.0001) %MON vort_r_min                   =  -1.3015712192037E-06
(PID.TID 0000.0001) %MON vort_r_max                   =   1.4180023576027E-06
(PID.TID 0000.0001) %MON vort_a_mean                  =  -2.0549865324846E-05
(PID.TID 0000.0001) %MON vort_a_sd                    =   7.5259581858430E-05
(PID.TID 0000.0001) %MON vort_p_mean                  =  -2.4787189167147E-05
(PID.TID 0000.0001) %MON vort_p_sd                    =   1.2817301122547E-04
(PID.TID 0000.0001) %MON surfExpan_theta_mean         =   7.1624621478753E-08
(PID.TID 0000.0001) %MON surfExpan_salt_mean          =   1.9284830548208E-08
(PID.TID 0000.0001) // =======================================================
(PID.TID 0000.0001) // End MONITOR dynamic field statistics
(PID.TID 0000.0001) // =======================================================
(PID.TID 0000.0001) // =======================================================
(PID.TID 0000.0001) // Begin MONITOR Therm.SeaIce statistics
(PID.TID 0000.0001) // =======================================================
(PID.TID 0000.0001) %MON thSI_time_sec                =   3.1121280000000E+09
(PID.TID 0000.0001) %MON thSI_Ice_Area_G              =   2.4902498021417E+13
(PID.TID 0000.0001) %MON thSI_Ice_Area_S              =   1.1308191040960E+13
(PID.TID 0000.0001) %MON thSI_Ice_Area_N              =   1.3594306980457E+13
(PID.TID 0000.0001) %MON thSI_IceH_ave_G              =   4.5624091998336E+00
(PID.TID 0000.0001) %MON thSI_IceH_ave_S              =   5.9261071890187E+00
(PID.TID 0000.0001) %MON thSI_IceH_ave_N              =   3.4280404228118E+00
(PID.TID 0000.0001) %MON thSI_IceH_max_S              =   1.0000000000000E+01
(PID.TID 0000.0001) %MON thSI_IceH_max_N              =   1.0000000000000E+01
(PID.TID 0000.0001) %MON thSI_SnwH_ave_G              =   9.8760049086898E-01
(PID.TID 0000.0001) %MON thSI_SnwH_ave_S              =   1.7149838848064E+00
(PID.TID 0000.0001) %MON thSI_SnwH_ave_N              =   3.8253909344052E-01
(PID.TID 0000.0001) %MON thSI_SnwH_max_S              =   4.0929495092966E+00
(PID.TID 0000.0001) %MON thSI_SnwH_max_N              =   4.1071424298797E+00
(PID.TID 0000.0001) %MON thSI_Tsrf_ave_G              =  -1.8082716091467E+01
(PID.TID 0000.0001) %MON thSI_Tsrf_ave_S              =  -2.3409362653634E-01
(PID.TID 0000.0001) %MON thSI_Tsrf_ave_N              =  -3.2929786482151E+01
(PID.TID 0000.0001) %MON thSI_Tsrf_min_S              =  -6.6878510187734E+00
(PID.TID 0000.0001) %MON thSI_Tsrf_min_N              =  -4.7908607537578E+01
(PID.TID 0000.0001) %MON thSI_Tsrf_max_S              =   0.0000000000000E+00
(PID.TID 0000.0001) %MON thSI_Tsrf_max_N              =  -1.7523923487027E+00
(PID.TID 0000.0001) %MON thSI_Tic1_ave_G              =  -8.7383913524706E+00
(PID.TID 0000.0001) %MON thSI_Tic1_ave_S              =  -4.7283741510167E+00
(PID.TID 0000.0001) %MON thSI_Tic1_ave_N              =  -1.4504805996438E+01
(PID.TID 0000.0001) %MON thSI_Tic1_min_S              =  -1.3599777355507E+01
(PID.TID 0000.0001) %MON thSI_Tic1_min_N              =  -2.2045182412590E+01
(PID.TID 0000.0001) %MON thSI_Tic1_max_S              =  -1.3509476655497E-01
(PID.TID 0000.0001) %MON thSI_Tic1_max_N              =  -1.0322377151798E+00
(PID.TID 0000.0001) %MON thSI_Tic2_ave_G              =  -3.9668441908864E+00
(PID.TID 0000.0001) %MON thSI_Tic2_ave_S              =  -3.0288000308999E+00
(PID.TID 0000.0001) %MON thSI_Tic2_ave_N              =  -5.3157540107427E+00
(PID.TID 0000.0001) %MON thSI_Tic2_min_S              =  -8.1847749393337E+00
(PID.TID 0000.0001) %MON thSI_Tic2_min_N              =  -7.9871370572411E+00
(PID.TID 0000.0001) %MON thSI_Tic2_max_S              =  -9.2282194592881E-01
(PID.TID 0000.0001) %MON thSI_Tic2_max_N              =  -1.4403446695483E+00
(PID.TID 0000.0001) %MON thSI_TotEnerg_G              =  -3.8020772761443E+22
(PID.TID 0000.0001) // =======================================================
(PID.TID 0000.0001) // End MONITOR Therm.SeaIce statistics
(PID.TID 0000.0001) // =======================================================
 Computing Diagnostic #     23  ETAN         Counter:       1   Parms: SM      M1      
 Compute Stats, Diag. #     23  ETAN      vol(   0 ): 3.639E+15  Parms: SM      M1      
 Compute Stats, Diag. #     24  ETANSQ    vol(   0 ): 3.639E+15  Parms: SM P    M1      
 Compute Stats, Diag. #     25  DETADT2   vol(   0 ): 3.639E+15  Parms: SM      M1      
 Compute Stats, Diag. #     26  THETA     vol(   0 ): 1.340E+19  Parms: SMR     MR      
 Compute Stats, Diag. #     27  SALT      vol(   0 ): 1.340E+19  Parms: SMR     MR      
 Compute Stats, Diag. #     80  CONVADJ   vol(   0 ): 1.315E+19  Parms: SMR     LR      
 Compute Stats, Diag. #     23  ETAN      vol(   0 ): 3.639E+14  Parms: SM      M1      
 Compute Stats, Diag. #     26  THETA     vol(   0 ): 1.340E+18  Parms: SMR     MR      
 Compute Stats, Diag. #     27  SALT      vol(   0 ): 1.340E+18  Parms: SMR     MR      
 Compute Stats, Diag. #    216  SI_Fract  vol(   0 ): 3.639E+15  Parms: SM P    M1      
 Compute Stats, Diag. #    216  SI_Fract  vol(   1 ): 1.289E+15  Parms: SM P    M1      
 Compute Stats, Diag. #    216  SI_Fract  vol(   3 ): 7.935E+14  Parms: SM P    M1      
 Compute Stats, Diag. #    217  SI_Thick  vol(   0 ): 2.492E+14  Parms: SM PC   M1      
    use Counter Mate  #    216  SI_Fract  vol(   0 ): 3.639E+15 integral 2.492E+14
 Compute Stats, Diag. #    217  SI_Thick  vol(   1 ): 1.151E+14  Parms: SM PC   M1      
    use Counter Mate  #    216  SI_Fract  vol(   1 ): 1.289E+15 integral 1.151E+14
 Compute Stats, Diag. #    217  SI_Thick  vol(   3 ): 1.342E+14  Parms: SM PC   M1      
    use Counter Mate  #    216  SI_Fract  vol(   3 ): 7.935E+14 integral 1.342E+14
 Compute Stats, Diag. #    218  SI_SnowH  vol(   0 ): 2.492E+14  Parms: SM PC   M1      
    use Counter Mate  #    216  SI_Fract  vol(   0 ): 3.639E+15 integral 2.492E+14
 Compute Stats, Diag. #    218  SI_SnowH  vol(   1 ): 1.151E+14  Parms: SM PC   M1      
    use Counter Mate  #    216  SI_Fract  vol(   1 ): 1.289E+15 integral 1.151E+14
 Compute Stats, Diag. #    218  SI_SnowH  vol(   3 ): 1.342E+14  Parms: SM PC   M1      
    use Counter Mate  #    216  SI_Fract  vol(   3 ): 7.935E+14 integral 1.342E+14
 Compute Stats, Diag. #    219  SI_Tsrf   vol(   0 ): 2.492E+14  Parms: SM  C   M1      
    use Counter Mate  #    216  SI_Fract  vol(   0 ): 3.639E+15 integral 2.492E+14
 Compute Stats, Diag. #    219  SI_Tsrf   vol(   1 ): 1.151E+14  Parms: SM  C   M1      
    use Counter Mate  #    216  SI_Fract  vol(   1 ): 1.289E+15 integral 1.151E+14
 Compute Stats, Diag. #    219  SI_Tsrf   vol(   3 ): 1.342E+14  Parms: SM  C   M1      
    use Counter Mate  #    216  SI_Fract  vol(   3 ): 7.935E+14 integral 1.342E+14
 Compute Stats, Diag. #    220  SI_Tice1  vol(   0 ): 2.492E+14  Parms: SM  C   M1      
    use Counter Mate  #    216  SI_Fract  vol(   0 ): 3.639E+15 integral 2.492E+14
 Compute Stats, Diag. #    220  SI_Tice1  vol(   1 ): 1.151E+14  Parms: SM  C   M1      
    use Counter Mate  #    216  SI_Fract  vol(   1 ): 1.289E+15 integral 1.151E+14
 Compute Stats, Diag. #    220  SI_Tice1  vol(   3 ): 1.342E+14  Parms: SM  C   M1      
    use Counter Mate  #    216  SI_Fract  vol(   3 ): 7.935E+14 integral 1.342E+14
 Compute Stats, Diag. #    221  SI_Tice2  vol(   0 ): 2.492E+14  Parms: SM  C   M1      
    use Counter Mate  #    216  SI_Fract  vol(   0 ): 3.639E+15 integral 2.492E+14
 Compute Stats, Diag. #    221  SI_Tice2  vol(   1 ): 1.151E+14  Parms: SM  C   M1      
    use Counter Mate  #    216  SI_Fract  vol(   1 ): 1.289E+15 integral 1.151E+14
 Compute Stats, Diag. #    221  SI_Tice2  vol(   3 ): 1.342E+14  Parms: SM  C   M1      
    use Counter Mate  #    216  SI_Fract  vol(   3 ): 7.935E+14 integral 1.342E+14
 Compute Stats, Diag. #    222  SI_Qice1  vol(   0 ): 1.137E+15  Parms: SM  C   M1      
    use Counter Mate  #    217  SI_Thick  vol(   0 ): 2.492E+14 integral 1.137E+15
 Compute Stats, Diag. #    222  SI_Qice1  vol(   1 ): 6.744E+14  Parms: SM  C   M1      
    use Counter Mate  #    217  SI_Thick  vol(   1 ): 1.151E+14 integral 6.744E+14
 Compute Stats, Diag. #    222  SI_Qice1  vol(   3 ): 4.626E+14  Parms: SM  C   M1      
    use Counter Mate  #    217  SI_Thick  vol(   3 ): 1.342E+14 integral 4.626E+14
 Compute Stats, Diag. #    223  SI_Qice2  vol(   0 ): 1.137E+15  Parms: SM  C   M1      
    use Counter Mate  #    217  SI_Thick  vol(   0 ): 2.492E+14 integral 1.137E+15
 Compute Stats, Diag. #    223  SI_Qice2  vol(   1 ): 6.744E+14  Parms: SM  C   M1      
    use Counter Mate  #    217  SI_Thick  vol(   1 ): 1.151E+14 integral 6.744E+14
 Compute Stats, Diag. #    223  SI_Qice2  vol(   3 ): 4.626E+14  Parms: SM  C   M1      
    use Counter Mate  #    217  SI_Thick  vol(   3 ): 1.342E+14 integral 4.626E+14
 Compute Stats, Diag. #    226  SIsnwPrc  vol(   0 ): 2.492E+14  Parms: SM  C   M1      
    use Counter Mate  #    216  SI_Fract  vol(   0 ): 3.639E+15 integral 2.492E+14
 Compute Stats, Diag. #    226  SIsnwPrc  vol(   1 ): 1.151E+14  Parms: SM  C   M1      
    use Counter Mate  #    216  SI_Fract  vol(   1 ): 1.289E+15 integral 1.151E+14
 Compute Stats, Diag. #    226  SIsnwPrc  vol(   3 ): 1.342E+14  Parms: SM  C   M1      
    use Counter Mate  #    216  SI_Fract  vol(   3 ): 7.935E+14 integral 1.342E+14
 Compute Stats, Diag. #    225  SIalbedo  vol(   0 ): 2.492E+14  Parms: SM PC   M1      
    use Counter Mate  #    216  SI_Fract  vol(   0 ): 3.639E+15 integral 2.492E+14
 Compute Stats, Diag. #    225  SIalbedo  vol(   1 ): 1.151E+14  Parms: SM PC   M1      
    use Counter Mate  #    216  SI_Fract  vol(   1 ): 1.289E+15 integral 1.151E+14
 Compute Stats, Diag. #    225  SIalbedo  vol(   3 ): 1.342E+14  Parms: SM PC   M1      
    use Counter Mate  #    216  SI_Fract  vol(   3 ): 7.935E+14 integral 1.342E+14
 Compute Stats, Diag. #    224  SIsnwAge  vol(   0 ): 3.639E+15  Parms: SM P    M1      
 Compute Stats, Diag. #    224  SIsnwAge  vol(   1 ): 1.289E+15  Parms: SM P    M1      
 Compute Stats, Diag. #    224  SIsnwAge  vol(   3 ): 7.935E+14  Parms: SM P    M1      
 Compute Stats, Diag. #    229  SIflx2oc  vol(   0 ): 3.639E+15  Parms: SM      M1      
 Compute Stats, Diag. #    229  SIflx2oc  vol(   1 ): 1.289E+15  Parms: SM      M1      
 Compute Stats, Diag. #    229  SIflx2oc  vol(   3 ): 7.935E+14  Parms: SM      M1      
 Compute Stats, Diag. #    230  SIfrw2oc  vol(   0 ): 3.639E+15  Parms: SM      M1      
 Compute Stats, Diag. #    230  SIfrw2oc  vol(   1 ): 1.289E+15  Parms: SM      M1      
 Compute Stats, Diag. #    230  SIfrw2oc  vol(   3 ): 7.935E+14  Parms: SM      M1      
 Compute Stats, Diag. #    231  SIsaltFx  vol(   0 ): 3.639E+15  Parms: SM      M1      
 Compute Stats, Diag. #    231  SIsaltFx  vol(   1 ): 1.289E+15  Parms: SM      M1      
 Compute Stats, Diag. #    231  SIsaltFx  vol(   3 ): 7.935E+14  Parms: SM      M1      
 Compute Stats, Diag. #    227  SIflxAtm  vol(   0 ): 3.639E+15  Parms: SM      M1      
 Compute Stats, Diag. #    227  SIflxAtm  vol(   1 ): 1.289E+15  Parms: SM      M1      
 Compute Stats, Diag. #    227  SIflxAtm  vol(   3 ): 7.935E+14  Parms: SM      M1      
 Compute Stats, Diag. #    228  SIfrwAtm  vol(   0 ): 3.639E+15  Parms: SM      M1      
 Compute Stats, Diag. #    228  SIfrwAtm  vol(   1 ): 1.289E+15  Parms: SM      M1      
 Compute Stats, Diag. #    228  SIfrwAtm  vol(   3 ): 7.935E+14  Parms: SM      M1      
(PID.TID 0000.0001) DIAGSTATS_CLOSE_IO: close file: dynStDiag.0000036000.txt , unit=     9
(PID.TID 0000.0001) DIAGSTATS_CLOSE_IO: close file: surfStDiag.0000036000.txt , unit=    10
(PID.TID 0000.0001) DIAGSTATS_CLOSE_IO: close file: instStDiag.0000036000.txt , unit=    16
(PID.TID 0000.0001) DIAGSTATS_CLOSE_IO: close file: thSIceStDiag.0000036000.txt , unit=    17
(PID.TID 0000.0001) %CHECKPOINT     36020 ckptA
(PID.TID 0000.0001)   Seconds in section "ALL                    [THE_MODEL_MAIN]":
(PID.TID 0000.0001)           User time:   45.821032280568033
(PID.TID 0000.0001)         System time:  0.15397600503638387
(PID.TID 0000.0001)     Wall clock time:   46.226115942001343
(PID.TID 0000.0001)          No. starts:           1
(PID.TID 0000.0001)           No. stops:           1
(PID.TID 0000.0001)   Seconds in section "INITIALISE_FIXED       [THE_MODEL_MAIN]":
(PID.TID 0000.0001)           User time:  0.26296001160517335
(PID.TID 0000.0001)         System time:  3.39949992485344410E-002
(PID.TID 0000.0001)     Wall clock time:  0.33215403556823730
(PID.TID 0000.0001)          No. starts:           1
(PID.TID 0000.0001)           No. stops:           1
(PID.TID 0000.0001)   Seconds in section "THE_MAIN_LOOP          [THE_MODEL_MAIN]":
(PID.TID 0000.0001)           User time:   45.558072268962860
(PID.TID 0000.0001)         System time:  0.11998100578784943
(PID.TID 0000.0001)     Wall clock time:   45.893912076950073
(PID.TID 0000.0001)          No. starts:           1
(PID.TID 0000.0001)           No. stops:           1
(PID.TID 0000.0001)   Seconds in section "INITIALISE_VARIA    [THE_MAIN_LOOP]":
(PID.TID 0000.0001)           User time:  0.79787904024124146
(PID.TID 0000.0001)         System time:  7.99869969487190247E-002
(PID.TID 0000.0001)     Wall clock time:  0.93991804122924805
(PID.TID 0000.0001)          No. starts:           1
(PID.TID 0000.0001)           No. stops:           1
(PID.TID 0000.0001)   Seconds in section "MAIN LOOP           [THE_MAIN_LOOP]":
(PID.TID 0000.0001)           User time:   44.760193228721619
(PID.TID 0000.0001)         System time:  3.99940088391304016E-002
(PID.TID 0000.0001)     Wall clock time:   44.953961849212646
(PID.TID 0000.0001)          No. starts:           1
(PID.TID 0000.0001)           No. stops:           1
(PID.TID 0000.0001)   Seconds in section "MAIN_DO_LOOP        [THE_MAIN_LOOP]":
(PID.TID 0000.0001)           User time:   44.760193228721619
(PID.TID 0000.0001)         System time:  3.99940088391304016E-002
(PID.TID 0000.0001)     Wall clock time:   44.953778982162476
(PID.TID 0000.0001)          No. starts:          20
(PID.TID 0000.0001)           No. stops:          20
(PID.TID 0000.0001)   Seconds in section "FORWARD_STEP        [MAIN_DO_LOOP]":
(PID.TID 0000.0001)           User time:   44.760193228721619
(PID.TID 0000.0001)         System time:  3.99940088391304016E-002
(PID.TID 0000.0001)     Wall clock time:   44.953410863876343
(PID.TID 0000.0001)          No. starts:          20
(PID.TID 0000.0001)           No. stops:          20
(PID.TID 0000.0001)   Seconds in section "DO_STATEVARS_DIAGS  [FORWARD_STEP]":
(PID.TID 0000.0001)           User time:   2.2256578207015991
(PID.TID 0000.0001)         System time:   0.0000000000000000
(PID.TID 0000.0001)     Wall clock time:   2.2266757488250732
(PID.TID 0000.0001)          No. starts:          60
(PID.TID 0000.0001)           No. stops:          60
(PID.TID 0000.0001)   Seconds in section "LOAD_FIELDS_DRIVER  [FORWARD_STEP]":
(PID.TID 0000.0001)           User time:  0.19797015190124512
(PID.TID 0000.0001)         System time:  5.00000268220901489E-003
(PID.TID 0000.0001)     Wall clock time:  0.25793337821960449
(PID.TID 0000.0001)          No. starts:          20
(PID.TID 0000.0001)           No. stops:          20
(PID.TID 0000.0001)   Seconds in section "BULKF_FIELDS_LOAD  [LOAD_FLDS_DRIVER]":
(PID.TID 0000.0001)           User time:  0.14798343181610107
(PID.TID 0000.0001)         System time:  3.00000607967376709E-003
(PID.TID 0000.0001)     Wall clock time:  0.20356464385986328
(PID.TID 0000.0001)          No. starts:          20
(PID.TID 0000.0001)           No. stops:          20
(PID.TID 0000.0001)   Seconds in section "EXTERNAL_FLDS_LOAD [LOAD_FLDS_DRIVER]":
(PID.TID 0000.0001)           User time:  4.99867200851440430E-002
(PID.TID 0000.0001)         System time:  1.99999660253524780E-003
(PID.TID 0000.0001)     Wall clock time:  5.38060665130615234E-002
(PID.TID 0000.0001)          No. starts:          20
(PID.TID 0000.0001)           No. stops:          20
(PID.TID 0000.0001)   Seconds in section "BULKF_FORCING       [FORWARD_STEP]":
(PID.TID 0000.0001)           User time:  0.48692548274993896
(PID.TID 0000.0001)         System time:   0.0000000000000000
(PID.TID 0000.0001)     Wall clock time:  0.48714542388916016
(PID.TID 0000.0001)          No. starts:          20
(PID.TID 0000.0001)           No. stops:          20
(PID.TID 0000.0001)   Seconds in section "DO_ATMOSPHERIC_PHYS [FORWARD_STEP]":
(PID.TID 0000.0001)           User time:   0.0000000000000000
(PID.TID 0000.0001)         System time:   0.0000000000000000
(PID.TID 0000.0001)     Wall clock time:  1.94787979125976563E-004
(PID.TID 0000.0001)          No. starts:          20
(PID.TID 0000.0001)           No. stops:          20
(PID.TID 0000.0001)   Seconds in section "DO_OCEANIC_PHYS     [FORWARD_STEP]":
(PID.TID 0000.0001)           User time:   5.8731139898300171
(PID.TID 0000.0001)         System time:  2.00000405311584473E-003
(PID.TID 0000.0001)     Wall clock time:   5.8867526054382324
(PID.TID 0000.0001)          No. starts:          20
(PID.TID 0000.0001)           No. stops:          20
(PID.TID 0000.0001)   Seconds in section "THSICE_MAIN     [DO_OCEANIC_PHYS]":
(PID.TID 0000.0001)           User time:  0.54991734027862549
(PID.TID 0000.0001)         System time:  2.00000405311584473E-003
(PID.TID 0000.0001)     Wall clock time:  0.55189990997314453
(PID.TID 0000.0001)          No. starts:          20
(PID.TID 0000.0001)           No. stops:          20
(PID.TID 0000.0001)   Seconds in section "DYNAMICS            [FORWARD_STEP]":
(PID.TID 0000.0001)           User time:   13.058014869689941
(PID.TID 0000.0001)         System time:  1.00000202655792236E-003
(PID.TID 0000.0001)     Wall clock time:   13.087229728698730
(PID.TID 0000.0001)          No. starts:          20
(PID.TID 0000.0001)           No. stops:          20
(PID.TID 0000.0001)   Seconds in section "UPDATE_R_STAR       [FORWARD_STEP]":
(PID.TID 0000.0001)           User time:  0.61890029907226563
(PID.TID 0000.0001)         System time:   0.0000000000000000
(PID.TID 0000.0001)     Wall clock time:  0.62060260772705078
(PID.TID 0000.0001)          No. starts:          20
(PID.TID 0000.0001)           No. stops:          20
(PID.TID 0000.0001)   Seconds in section "UPDATE_CG2D         [FORWARD_STEP]":
(PID.TID 0000.0001)           User time:  0.31795525550842285
(PID.TID 0000.0001)         System time:   0.0000000000000000
(PID.TID 0000.0001)     Wall clock time:  0.32069373130798340
(PID.TID 0000.0001)          No. starts:          20
(PID.TID 0000.0001)           No. stops:          20
(PID.TID 0000.0001)   Seconds in section "SOLVE_FOR_PRESSURE  [FORWARD_STEP]":
(PID.TID 0000.0001)           User time:   3.8794066905975342
(PID.TID 0000.0001)         System time:   0.0000000000000000
(PID.TID 0000.0001)     Wall clock time:   3.8831074237823486
(PID.TID 0000.0001)          No. starts:          20
(PID.TID 0000.0001)           No. stops:          20
(PID.TID 0000.0001)   Seconds in section "MOM_CORRECTION_STEP [FORWARD_STEP]":
(PID.TID 0000.0001)           User time:  0.38894009590148926
(PID.TID 0000.0001)         System time:   0.0000000000000000
(PID.TID 0000.0001)     Wall clock time:  0.39327859878540039
(PID.TID 0000.0001)          No. starts:          20
(PID.TID 0000.0001)           No. stops:          20
(PID.TID 0000.0001)   Seconds in section "INTEGR_CONTINUITY   [FORWARD_STEP]":
(PID.TID 0000.0001)           User time:  0.71589851379394531
(PID.TID 0000.0001)         System time:   0.0000000000000000
(PID.TID 0000.0001)     Wall clock time:  0.71748924255371094
(PID.TID 0000.0001)          No. starts:          20
(PID.TID 0000.0001)           No. stops:          20
(PID.TID 0000.0001)   Seconds in section "CALC_R_STAR         [FORWARD_STEP]":
(PID.TID 0000.0001)           User time:  0.12697362899780273
(PID.TID 0000.0001)         System time:   0.0000000000000000
(PID.TID 0000.0001)     Wall clock time:  0.12580323219299316
(PID.TID 0000.0001)          No. starts:          20
(PID.TID 0000.0001)           No. stops:          20
(PID.TID 0000.0001)   Seconds in section "BLOCKING_EXCHANGES  [FORWARD_STEP]":
(PID.TID 0000.0001)           User time:  0.67289805412292480
(PID.TID 0000.0001)         System time:   0.0000000000000000
(PID.TID 0000.0001)     Wall clock time:  0.67417788505554199
(PID.TID 0000.0001)          No. starts:          40
(PID.TID 0000.0001)           No. stops:          40
(PID.TID 0000.0001)   Seconds in section "THERMODYNAMICS      [FORWARD_STEP]":
(PID.TID 0000.0001)           User time:   10.721368551254272
(PID.TID 0000.0001)         System time:  9.99003648757934570E-004
(PID.TID 0000.0001)     Wall clock time:   10.750188112258911
(PID.TID 0000.0001)          No. starts:          20
(PID.TID 0000.0001)           No. stops:          20
(PID.TID 0000.0001)   Seconds in section "TRC_CORRECTION_STEP [FORWARD_STEP]":
(PID.TID 0000.0001)           User time:   0.0000000000000000
(PID.TID 0000.0001)         System time:   0.0000000000000000
(PID.TID 0000.0001)     Wall clock time:  2.14576721191406250E-004
(PID.TID 0000.0001)          No. starts:          20
(PID.TID 0000.0001)           No. stops:          20
(PID.TID 0000.0001)   Seconds in section "DO_STATEVARS_TAVE   [FORWARD_STEP]":
(PID.TID 0000.0001)           User time:   1.9137139320373535
(PID.TID 0000.0001)         System time:   0.0000000000000000
(PID.TID 0000.0001)     Wall clock time:   1.9171242713928223
(PID.TID 0000.0001)          No. starts:          20
(PID.TID 0000.0001)           No. stops:          20
(PID.TID 0000.0001)   Seconds in section "MONITOR             [FORWARD_STEP]":
(PID.TID 0000.0001)           User time:   3.2835028171539307
(PID.TID 0000.0001)         System time:   0.0000000000000000
(PID.TID 0000.0001)     Wall clock time:   3.2912919521331787
(PID.TID 0000.0001)          No. starts:          20
(PID.TID 0000.0001)           No. stops:          20
(PID.TID 0000.0001)   Seconds in section "DO_THE_MODEL_IO     [FORWARD_STEP]":
(PID.TID 0000.0001)           User time:  0.21696376800537109
(PID.TID 0000.0001)         System time:  2.39969938993453979E-002
(PID.TID 0000.0001)     Wall clock time:  0.24137282371520996
(PID.TID 0000.0001)          No. starts:          20
(PID.TID 0000.0001)           No. stops:          20
(PID.TID 0000.0001)   Seconds in section "DO_WRITE_PICKUP     [FORWARD_STEP]":
(PID.TID 0000.0001)           User time:  6.09893798828125000E-002
(PID.TID 0000.0001)         System time:  5.99899888038635254E-003
(PID.TID 0000.0001)     Wall clock time:  6.70795440673828125E-002
(PID.TID 0000.0001)          No. starts:          20
(PID.TID 0000.0001)           No. stops:          20
(PID.TID 0000.0001) // ======================================================
(PID.TID 0000.0001) // Tile <-> Tile communication statistics
(PID.TID 0000.0001) // ======================================================
(PID.TID 0000.0001) // o Tile number: 000001
(PID.TID 0000.0001) //         No. X exchanges =              0
(PID.TID 0000.0001) //            Max. X spins =              0
(PID.TID 0000.0001) //            Min. X spins =     1000000000
(PID.TID 0000.0001) //          Total. X spins =              0
(PID.TID 0000.0001) //            Avg. X spins =       0.00E+00
(PID.TID 0000.0001) //         No. Y exchanges =              0
(PID.TID 0000.0001) //            Max. Y spins =              0
(PID.TID 0000.0001) //            Min. Y spins =     1000000000
(PID.TID 0000.0001) //          Total. Y spins =              0
(PID.TID 0000.0001) //            Avg. Y spins =       0.00E+00
(PID.TID 0000.0001) // o Tile number: 000002
(PID.TID 0000.0001) //         No. X exchanges =              0
(PID.TID 0000.0001) //            Max. X spins =              0
(PID.TID 0000.0001) //            Min. X spins =     1000000000
(PID.TID 0000.0001) //          Total. X spins =              0
(PID.TID 0000.0001) //            Avg. X spins =       0.00E+00
(PID.TID 0000.0001) //         No. Y exchanges =              0
(PID.TID 0000.0001) //            Max. Y spins =              0
(PID.TID 0000.0001) //            Min. Y spins =     1000000000
(PID.TID 0000.0001) //          Total. Y spins =              0
(PID.TID 0000.0001) //            Avg. Y spins =       0.00E+00
(PID.TID 0000.0001) // o Tile number: 000003
(PID.TID 0000.0001) //         No. X exchanges =              0
(PID.TID 0000.0001) //            Max. X spins =              0
(PID.TID 0000.0001) //            Min. X spins =     1000000000
(PID.TID 0000.0001) //          Total. X spins =              0
(PID.TID 0000.0001) //            Avg. X spins =       0.00E+00
(PID.TID 0000.0001) //         No. Y exchanges =              0
(PID.TID 0000.0001) //            Max. Y spins =              0
(PID.TID 0000.0001) //            Min. Y spins =     1000000000
(PID.TID 0000.0001) //          Total. Y spins =              0
(PID.TID 0000.0001) //            Avg. Y spins =       0.00E+00
(PID.TID 0000.0001) // o Tile number: 000004
(PID.TID 0000.0001) //         No. X exchanges =              0
(PID.TID 0000.0001) //            Max. X spins =              0
(PID.TID 0000.0001) //            Min. X spins =     1000000000
(PID.TID 0000.0001) //          Total. X spins =              0
(PID.TID 0000.0001) //            Avg. X spins =       0.00E+00
(PID.TID 0000.0001) //         No. Y exchanges =              0
(PID.TID 0000.0001) //            Max. Y spins =              0
(PID.TID 0000.0001) //            Min. Y spins =     1000000000
(PID.TID 0000.0001) //          Total. Y spins =              0
(PID.TID 0000.0001) //            Avg. Y spins =       0.00E+00
(PID.TID 0000.0001) // o Tile number: 000005
(PID.TID 0000.0001) //         No. X exchanges =              0
(PID.TID 0000.0001) //            Max. X spins =              0
(PID.TID 0000.0001) //            Min. X spins =     1000000000
(PID.TID 0000.0001) //          Total. X spins =              0
(PID.TID 0000.0001) //            Avg. X spins =       0.00E+00
(PID.TID 0000.0001) //         No. Y exchanges =              0
(PID.TID 0000.0001) //            Max. Y spins =              0
(PID.TID 0000.0001) //            Min. Y spins =     1000000000
(PID.TID 0000.0001) //          Total. Y spins =              0
(PID.TID 0000.0001) //            Avg. Y spins =       0.00E+00
(PID.TID 0000.0001) // o Tile number: 000006
(PID.TID 0000.0001) //         No. X exchanges =              0
(PID.TID 0000.0001) //            Max. X spins =              0
(PID.TID 0000.0001) //            Min. X spins =     1000000000
(PID.TID 0000.0001) //          Total. X spins =              0
(PID.TID 0000.0001) //            Avg. X spins =       0.00E+00
(PID.TID 0000.0001) //         No. Y exchanges =              0
(PID.TID 0000.0001) //            Max. Y spins =              0
(PID.TID 0000.0001) //            Min. Y spins =     1000000000
(PID.TID 0000.0001) //          Total. Y spins =              0
(PID.TID 0000.0001) //            Avg. Y spins =       0.00E+00
(PID.TID 0000.0001) // o Tile number: 000007
(PID.TID 0000.0001) //         No. X exchanges =              0
(PID.TID 0000.0001) //            Max. X spins =              0
(PID.TID 0000.0001) //            Min. X spins =     1000000000
(PID.TID 0000.0001) //          Total. X spins =              0
(PID.TID 0000.0001) //            Avg. X spins =       0.00E+00
(PID.TID 0000.0001) //         No. Y exchanges =              0
(PID.TID 0000.0001) //            Max. Y spins =              0
(PID.TID 0000.0001) //            Min. Y spins =     1000000000
(PID.TID 0000.0001) //          Total. Y spins =              0
(PID.TID 0000.0001) //            Avg. Y spins =       0.00E+00
(PID.TID 0000.0001) // o Tile number: 000008
(PID.TID 0000.0001) //         No. X exchanges =              0
(PID.TID 0000.0001) //            Max. X spins =              0
(PID.TID 0000.0001) //            Min. X spins =     1000000000
(PID.TID 0000.0001) //          Total. X spins =              0
(PID.TID 0000.0001) //            Avg. X spins =       0.00E+00
(PID.TID 0000.0001) //         No. Y exchanges =              0
(PID.TID 0000.0001) //            Max. Y spins =              0
(PID.TID 0000.0001) //            Min. Y spins =     1000000000
(PID.TID 0000.0001) //          Total. Y spins =              0
(PID.TID 0000.0001) //            Avg. Y spins =       0.00E+00
(PID.TID 0000.0001) // o Tile number: 000009
(PID.TID 0000.0001) //         No. X exchanges =              0
(PID.TID 0000.0001) //            Max. X spins =              0
(PID.TID 0000.0001) //            Min. X spins =     1000000000
(PID.TID 0000.0001) //          Total. X spins =              0
(PID.TID 0000.0001) //            Avg. X spins =       0.00E+00
(PID.TID 0000.0001) //         No. Y exchanges =              0
(PID.TID 0000.0001) //            Max. Y spins =              0
(PID.TID 0000.0001) //            Min. Y spins =     1000000000
(PID.TID 0000.0001) //          Total. Y spins =              0
(PID.TID 0000.0001) //            Avg. Y spins =       0.00E+00
(PID.TID 0000.0001) // o Tile number: 000010
(PID.TID 0000.0001) //         No. X exchanges =              0
(PID.TID 0000.0001) //            Max. X spins =              0
(PID.TID 0000.0001) //            Min. X spins =     1000000000
(PID.TID 0000.0001) //          Total. X spins =              0
(PID.TID 0000.0001) //            Avg. X spins =       0.00E+00
(PID.TID 0000.0001) //         No. Y exchanges =              0
(PID.TID 0000.0001) //            Max. Y spins =              0
(PID.TID 0000.0001) //            Min. Y spins =     1000000000
(PID.TID 0000.0001) //          Total. Y spins =              0
(PID.TID 0000.0001) //            Avg. Y spins =       0.00E+00
(PID.TID 0000.0001) // o Tile number: 000011
(PID.TID 0000.0001) //         No. X exchanges =              0
(PID.TID 0000.0001) //            Max. X spins =              0
(PID.TID 0000.0001) //            Min. X spins =     1000000000
(PID.TID 0000.0001) //          Total. X spins =              0
(PID.TID 0000.0001) //            Avg. X spins =       0.00E+00
(PID.TID 0000.0001) //         No. Y exchanges =              0
(PID.TID 0000.0001) //            Max. Y spins =              0
(PID.TID 0000.0001) //            Min. Y spins =     1000000000
(PID.TID 0000.0001) //          Total. Y spins =              0
(PID.TID 0000.0001) //            Avg. Y spins =       0.00E+00
(PID.TID 0000.0001) // o Tile number: 000012
(PID.TID 0000.0001) //         No. X exchanges =              0
(PID.TID 0000.0001) //            Max. X spins =              0
(PID.TID 0000.0001) //            Min. X spins =     1000000000
(PID.TID 0000.0001) //          Total. X spins =              0
(PID.TID 0000.0001) //            Avg. X spins =       0.00E+00
(PID.TID 0000.0001) //         No. Y exchanges =              0
(PID.TID 0000.0001) //            Max. Y spins =              0
(PID.TID 0000.0001) //            Min. Y spins =     1000000000
(PID.TID 0000.0001) //          Total. Y spins =              0
(PID.TID 0000.0001) //            Avg. Y spins =       0.00E+00
(PID.TID 0000.0001) // o Thread number: 000001
(PID.TID 0000.0001) //            No. barriers =          26614
(PID.TID 0000.0001) //      Max. barrier spins =              1
(PID.TID 0000.0001) //      Min. barrier spins =              1
(PID.TID 0000.0001) //     Total barrier spins =          26614
(PID.TID 0000.0001) //      Avg. barrier spins =       1.00E+00
PROGRAM MAIN: Execution ended Normally
