(PID.TID 0000.0001) 
(PID.TID 0000.0001) // ======================================================
(PID.TID 0000.0001) //                      MITgcm UV
(PID.TID 0000.0001) //                      =========
(PID.TID 0000.0001) // ======================================================
(PID.TID 0000.0001) // execution environment starting up...
(PID.TID 0000.0001) 
(PID.TID 0000.0001) // MITgcmUV version:  checkpoint65v
(PID.TID 0000.0001) // Build user:        jmc
(PID.TID 0000.0001) // Build host:        baudelaire
(PID.TID 0000.0001) // Build date:        Sun May  8 14:40:41 EDT 2016
(PID.TID 0000.0001) 
(PID.TID 0000.0001) // =======================================================
(PID.TID 0000.0001) // Execution Environment parameter file "eedata"
(PID.TID 0000.0001) // =======================================================
(PID.TID 0000.0001) ># Example "eedata" file
(PID.TID 0000.0001) ># Lines beginning "#" are comments
(PID.TID 0000.0001) ># nTx - No. threads per process in X
(PID.TID 0000.0001) ># nTy - No. threads per process in Y
(PID.TID 0000.0001) > &EEPARMS
(PID.TID 0000.0001) > useCubedSphereExchange=.TRUE.,
(PID.TID 0000.0001) > nTx=1,
(PID.TID 0000.0001) > nTy=1,
(PID.TID 0000.0001) > /
(PID.TID 0000.0001) ># Note: Some systems use & as the
(PID.TID 0000.0001) ># namelist terminator. Other systems
(PID.TID 0000.0001) ># use a / character (as shown here).
(PID.TID 0000.0001) 
(PID.TID 0000.0001) // =======================================================
(PID.TID 0000.0001) // Computational Grid Specification ( see files "SIZE.h" )
(PID.TID 0000.0001) //                                  ( and "eedata"       )
(PID.TID 0000.0001) // =======================================================
(PID.TID 0000.0001)      nPx =    1 ; /* No. processes in X */
(PID.TID 0000.0001)      nPy =    1 ; /* No. processes in Y */
(PID.TID 0000.0001)      nSx =   12 ; /* No. tiles in X per process */
(PID.TID 0000.0001)      nSy =    1 ; /* No. tiles in Y per process */
(PID.TID 0000.0001)      sNx =   32 ; /* Tile size in X */
(PID.TID 0000.0001)      sNy =   16 ; /* Tile size in Y */
(PID.TID 0000.0001)      OLx =    4 ; /* Tile overlap distance in X */
(PID.TID 0000.0001)      OLy =    4 ; /* Tile overlap distance in Y */
(PID.TID 0000.0001)      nTx =    1 ; /* No. threads in X per process */
(PID.TID 0000.0001)      nTy =    1 ; /* No. threads in Y per process */
(PID.TID 0000.0001)       Nr =   15 ; /* No. levels in the vertical   */
(PID.TID 0000.0001)       Nx =  384 ; /* Total domain size in X ( = nPx*nSx*sNx ) */
(PID.TID 0000.0001)       Ny =   16 ; /* Total domain size in Y ( = nPy*nSy*sNy ) */
(PID.TID 0000.0001)   nTiles =   12 ; /* Total no. tiles per process ( = nSx*nSy ) */
(PID.TID 0000.0001)   nProcs =    1 ; /* Total no. processes ( = nPx*nPy ) */
(PID.TID 0000.0001) nThreads =    1 ; /* Total no. threads per process ( = nTx*nTy ) */
(PID.TID 0000.0001) usingMPI =    F ; /* Flag used to control whether MPI is in use */
(PID.TID 0000.0001)                   /*  note: To execute a program with MPI calls */
(PID.TID 0000.0001)                   /*  it must be launched appropriately e.g     */
(PID.TID 0000.0001)                   /*  "mpirun -np 64 ......"                    */
(PID.TID 0000.0001) useCoupler=    F ;/* Flag used to control communications with   */
(PID.TID 0000.0001)                   /*  other model components, through a coupler */
(PID.TID 0000.0001) debugMode =    F ; /* print debug msg. (sequence of S/R calls)  */
(PID.TID 0000.0001) printMapIncludesZeros=    F ; /* print zeros in Std.Output maps */
(PID.TID 0000.0001) maxLengthPrt1D=   65 /* maxLength of 1D array printed to StdOut */
(PID.TID 0000.0001) 
(PID.TID 0000.0001) // ======================================================
(PID.TID 0000.0001) // Mapping of tiles to threads
(PID.TID 0000.0001) // ======================================================
(PID.TID 0000.0001) // -o- Thread   1, tiles (   1:  12,   1:   1)
(PID.TID 0000.0001) 
(PID.TID 0000.0001) W2_READPARMS: file data.exch2 not found
(PID.TID 0000.0001) => use W2_EXCH2 default: regular 6-facets Cube
(PID.TID 0000.0001) W2_useE2ioLayOut=    T ;/* T: use Exch2 glob IO map; F: use model default */
(PID.TID 0000.0001) W2_mapIO        =  -1 ; /* select option for Exch2 global-IO map */
(PID.TID 0000.0001) W2_printMsg     =  -1 ; /* select option for printing information */
(PID.TID 0000.0001) ===== Start setting W2 TOPOLOGY:
(PID.TID 0000.0001)  write to log-file: w2_tile_topology.0000.log
(PID.TID 0000.0001) =====       setting W2 TOPOLOGY: Done
(PID.TID 0000.0001) 
(PID.TID 0000.0001)  INI_PARMS: opening model parameter file "data"
(PID.TID 0000.0001)  OPEN_COPY_DATA_FILE: opening file data
(PID.TID 0000.0001) // =======================================================
(PID.TID 0000.0001) // Parameter file "data"
(PID.TID 0000.0001) // =======================================================
(PID.TID 0000.0001) ># ====================
(PID.TID 0000.0001) ># | Model parameters |
(PID.TID 0000.0001) ># ====================
(PID.TID 0000.0001) >#
(PID.TID 0000.0001) ># Continuous equation parameters
(PID.TID 0000.0001) > &PARM01
(PID.TID 0000.0001) > tRef=15*20.,
(PID.TID 0000.0001) > sRef=15*35.,
(PID.TID 0000.0001) > viscAh =1.E5,
(PID.TID 0000.0001) >#- biharmonic Viscosity: 3.e15 is close to the stability limit with deltaTmom=20mn
(PID.TID 0000.0001) > viscA4 =3.E14,
(PID.TID 0000.0001) > viscAr =1.E-3,
(PID.TID 0000.0001) > diffKhT=0.,
(PID.TID 0000.0001) > diffK4T=0.,
(PID.TID 0000.0001) > diffKrT=3.E-5,
(PID.TID 0000.0001) > diffKhS=0.,
(PID.TID 0000.0001) > diffK4S=0.,
(PID.TID 0000.0001) > diffKrS=3.E-5,
(PID.TID 0000.0001) > ivdc_kappa=10.,
(PID.TID 0000.0001) > implicitDiffusion=.TRUE.,
(PID.TID 0000.0001) > gravity=9.81,
(PID.TID 0000.0001) > rhonil=1035.,
(PID.TID 0000.0001) > rhoConstFresh=1000.,
(PID.TID 0000.0001) > eosType='JMD95Z',
(PID.TID 0000.0001) > staggerTimeStep=.TRUE.,
(PID.TID 0000.0001) > vectorInvariantMomentum=.TRUE.,
(PID.TID 0000.0001) > implicitFreeSurface=.TRUE.,
(PID.TID 0000.0001) > exactConserv=.TRUE.,
(PID.TID 0000.0001) > selectP_inEOS_Zc=3,
(PID.TID 0000.0001) > nonHydrostatic=.TRUE.,
(PID.TID 0000.0001) > selectNHfreeSurf=1,
(PID.TID 0000.0001) > useNHMTerms=.TRUE.,
(PID.TID 0000.0001) > hFacInf=0.2,
(PID.TID 0000.0001) > hFacSup=2.0,
(PID.TID 0000.0001) > useRealFreshWaterFlux=.TRUE.,
(PID.TID 0000.0001) > allowFreezing=.TRUE.,
(PID.TID 0000.0001) > hFacMin=.1,
(PID.TID 0000.0001) > hFacMinDr=20.,
(PID.TID 0000.0001) > readBinaryPrec=64,
(PID.TID 0000.0001) >#writeBinaryPrec=64,
(PID.TID 0000.0001) > useSingleCpuIO=.TRUE.,
(PID.TID 0000.0001) > /
(PID.TID 0000.0001) >
(PID.TID 0000.0001) ># Elliptic solver parameters
(PID.TID 0000.0001) > &PARM02
(PID.TID 0000.0001) > cg2dMaxIters=200,
(PID.TID 0000.0001) >#cg2dTargetResidual=1.E-9,
(PID.TID 0000.0001) > cg2dTargetResWunit=1.E-14,
(PID.TID 0000.0001) > cg3dMaxIters=60,
(PID.TID 0000.0001) > cg3dTargetResidual=1.E-9,
(PID.TID 0000.0001) > /
(PID.TID 0000.0001) >
(PID.TID 0000.0001) ># Time stepping parameters
(PID.TID 0000.0001) > &PARM03
(PID.TID 0000.0001) > nIter0=86400,
(PID.TID 0000.0001) > nTimeSteps=10,
(PID.TID 0000.0001) > deltaTClock =3600.,
(PID.TID 0000.0001) > abEps = 0.12,
(PID.TID 0000.0001) > forcing_In_AB=.FALSE.,
(PID.TID 0000.0001) > pickupStrictlyMatch=.FALSE.,
(PID.TID 0000.0001) > pChkptFreq  =31104000.,
(PID.TID 0000.0001) > taveFreq    =31104000.,
(PID.TID 0000.0001) > dumpFreq    =31104000.,
(PID.TID 0000.0001) > monitorFreq =86400.,
(PID.TID 0000.0001) > periodicExternalForcing=.TRUE.,
(PID.TID 0000.0001) > externForcingPeriod=2592000.,
(PID.TID 0000.0001) > externForcingCycle=31104000.,
(PID.TID 0000.0001) ># 2 months restoring timescale for temperature
(PID.TID 0000.0001) > tauThetaClimRelax = 5184000.,
(PID.TID 0000.0001) ># 2yrs restoring timescale for salinity
(PID.TID 0000.0001) > tauSaltClimRelax = 62208000.,
(PID.TID 0000.0001) > monitorFreq =1.,
(PID.TID 0000.0001) > /
(PID.TID 0000.0001) >
(PID.TID 0000.0001) ># Gridding parameters
(PID.TID 0000.0001) > &PARM04
(PID.TID 0000.0001) > usingCurvilinearGrid=.TRUE.,
(PID.TID 0000.0001) > horizGridFile='grid_cs32',
(PID.TID 0000.0001) > radius_fromHorizGrid=6370.E3,
(PID.TID 0000.0001) > delR= 50., 70., 100., 140., 190.,
(PID.TID 0000.0001) >       240., 290., 340., 390., 440.,
(PID.TID 0000.0001) >       490., 540., 590., 640., 690.,
(PID.TID 0000.0001) > rSphere=6370.E3,
(PID.TID 0000.0001) > /
(PID.TID 0000.0001) >
(PID.TID 0000.0001) ># Input datasets
(PID.TID 0000.0001) > &PARM05
(PID.TID 0000.0001) > bathyFile      ='bathy_Hmin50.bin',
(PID.TID 0000.0001) > hydrogThetaFile='lev_T_cs_15k.bin',
(PID.TID 0000.0001) > hydrogSaltFile ='lev_S_cs_15k.bin',
(PID.TID 0000.0001) > zonalWindFile  ='trenberth_taux.bin',
(PID.TID 0000.0001) > meridWindFile  ='trenberth_tauy.bin',
(PID.TID 0000.0001) > thetaClimFile  ='lev_surfT_cs_12m.bin',
(PID.TID 0000.0001) > saltClimFile   ='lev_surfS_cs_12m.bin',
(PID.TID 0000.0001) > surfQFile      ='shiQnet_cs32.bin',
(PID.TID 0000.0001) > EmPmRFile      ='shiEmPR_cs32.bin',
(PID.TID 0000.0001) > /
(PID.TID 0000.0001) 
(PID.TID 0000.0001)  INI_PARMS ; starts to read PARM01
(PID.TID 0000.0001)  INI_PARMS ; read PARM01 : OK
(PID.TID 0000.0001)  INI_PARMS ; starts to read PARM02
(PID.TID 0000.0001)  INI_PARMS ; read PARM02 : OK
(PID.TID 0000.0001)  INI_PARMS ; starts to read PARM03
(PID.TID 0000.0001)  INI_PARMS ; read PARM03 : OK
(PID.TID 0000.0001)  INI_PARMS ; starts to read PARM04
(PID.TID 0000.0001)  INI_PARMS ; read PARM04 : OK
(PID.TID 0000.0001)  INI_PARMS ; starts to read PARM05
(PID.TID 0000.0001)  INI_PARMS ; read PARM05 : OK
(PID.TID 0000.0001)  INI_PARMS: finished reading file "data"
(PID.TID 0000.0001)  PACKAGES_BOOT: opening data.pkg
(PID.TID 0000.0001)  OPEN_COPY_DATA_FILE: opening file data.pkg
(PID.TID 0000.0001) // =======================================================
(PID.TID 0000.0001) // Parameter file "data.pkg"
(PID.TID 0000.0001) // =======================================================
(PID.TID 0000.0001) ># Packages
(PID.TID 0000.0001) > &PACKAGES
(PID.TID 0000.0001) > useGMRedi=.TRUE.,
(PID.TID 0000.0001) >#useBulkforce=.TRUE.,
(PID.TID 0000.0001) >#useThSIce=.TRUE.,
(PID.TID 0000.0001) >#useDiagnostics=.TRUE.,
(PID.TID 0000.0001) >#useMNC=.TRUE.,
(PID.TID 0000.0001) > /
(PID.TID 0000.0001) 
(PID.TID 0000.0001)  PACKAGES_BOOT: finished reading data.pkg
(PID.TID 0000.0001)  PACKAGES_BOOT: On/Off package Summary
 --------  pkgs with a standard "usePKG" On/Off switch in "data.pkg":  --------
 pkg/gmredi               compiled   and   used ( useGMRedi                = T )
 pkg/cal                  compiled but not used ( useCAL                   = F )
 pkg/exf                  compiled but not used ( useEXF                   = F )
 pkg/bulk_force           compiled but not used ( useBulkForce             = F )
 pkg/seaice               compiled but not used ( useSEAICE                = F )
 pkg/thsice               compiled but not used ( useThSIce                = F )
 pkg/diagnostics          compiled but not used ( useDiagnostics           = F )
 pkg/mnc                  compiled but not used ( useMNC                   = F )
 -------- pkgs without standard "usePKG" On/Off switch in "data.pkg":  --------
 pkg/generic_advdiff      compiled   and   used ( useGAD                   = T )
 pkg/mom_common           compiled   and   used ( momStepping              = T )
 pkg/mom_vecinv           compiled   and   used ( +vectorInvariantMomentum = T )
 pkg/mom_fluxform         compiled but not used ( & not vectorInvariantMom = F )
 pkg/monitor              compiled   and   used ( monitorFreq > 0.         = T )
 pkg/timeave              compiled   and   used ( taveFreq > 0.            = T )
 pkg/debug                compiled but not used ( debugMode                = F )
 pkg/exch2                compiled   and   used
 pkg/rw                   compiled   and   used
 pkg/mdsio                compiled   and   used
(PID.TID 0000.0001)  PACKAGES_BOOT: End of package Summary
(PID.TID 0000.0001) 
(PID.TID 0000.0001)  GM_READPARMS: opening data.gmredi
(PID.TID 0000.0001)  OPEN_COPY_DATA_FILE: opening file data.gmredi
(PID.TID 0000.0001) // =======================================================
(PID.TID 0000.0001) // Parameter file "data.gmredi"
(PID.TID 0000.0001) // =======================================================
(PID.TID 0000.0001) ># GM+Redi package parameters:
(PID.TID 0000.0001) >
(PID.TID 0000.0001) >#-from MOM :
(PID.TID 0000.0001) ># GM_background_K: 	G & Mc.W  diffusion coefficient
(PID.TID 0000.0001) ># GM_maxSlope    :	max slope of isopycnals
(PID.TID 0000.0001) ># GM_Scrit       :	transition for scaling diffusion coefficient
(PID.TID 0000.0001) ># GM_Sd          :	half width scaling for diffusion coefficient
(PID.TID 0000.0001) ># GM_taper_scheme:	slope clipping or one of the tapering schemes
(PID.TID 0000.0001) ># GM_Kmin_horiz  :	horizontal diffusion minimum value
(PID.TID 0000.0001) >
(PID.TID 0000.0001) >#-Option parameters (needs to "define" options in GMREDI_OPTIONS.h")
(PID.TID 0000.0001) ># GM_isopycK     :	isopycnal diffusion coefficient (default=GM_background_K)
(PID.TID 0000.0001) ># GM_AdvForm     :	turn on GM Advective form       (default=Skew flux form)
(PID.TID 0000.0001) >
(PID.TID 0000.0001) > &GM_PARM01
(PID.TID 0000.0001) >  GM_background_K    = 800.,
(PID.TID 0000.0001) ># GM_AdvForm         = .TRUE.,
(PID.TID 0000.0001) ># GM_background_K    = 10.,
(PID.TID 0000.0001) ># GM_Visbeck_alpha   = 1.e-2,
(PID.TID 0000.0001) >  GM_Visbeck_length  = 2.e+5,
(PID.TID 0000.0001) >  GM_Visbeck_depth   = 1.e+3,
(PID.TID 0000.0001) >  GM_Visbeck_maxval_K= 2.5e+3,
(PID.TID 0000.0001) >  GM_taper_scheme    = 'gkw91',
(PID.TID 0000.0001) ># GM_Small_Number    = 1.e-18,
(PID.TID 0000.0001) >  GM_maxSlope        = 1.e-2,
(PID.TID 0000.0001) >  GM_Kmin_horiz      = 50.,
(PID.TID 0000.0001) >  GM_Scrit           = 4.e-3,
(PID.TID 0000.0001) >  GM_Sd              = 1.e-3,
(PID.TID 0000.0001) > /
(PID.TID 0000.0001) >
(PID.TID 0000.0001) 
(PID.TID 0000.0001)  GM_READPARMS: finished reading data.gmredi
(PID.TID 0000.0001) SET_PARMS: done
(PID.TID 0000.0001) Enter INI_VERTICAL_GRID: setInterFDr=    T ; setCenterDr=    F
(PID.TID 0000.0001) tile:   1 ; Read from file grid_cs32.face001.bin
(PID.TID 0000.0001)   => xC yC dxF dyF rA xG yG dxV dyU rAz dxC dyC rAw rAs dxG dyG AngleCS AngleSN
(PID.TID 0000.0001) tile:   2 ; Read from file grid_cs32.face001.bin
(PID.TID 0000.0001)   => xC yC dxF dyF rA xG yG dxV dyU rAz dxC dyC rAw rAs dxG dyG AngleCS AngleSN
(PID.TID 0000.0001) tile:   3 ; Read from file grid_cs32.face002.bin
(PID.TID 0000.0001)   => xC yC dxF dyF rA xG yG dxV dyU rAz dxC dyC rAw rAs dxG dyG AngleCS AngleSN
(PID.TID 0000.0001) tile:   4 ; Read from file grid_cs32.face002.bin
(PID.TID 0000.0001)   => xC yC dxF dyF rA xG yG dxV dyU rAz dxC dyC rAw rAs dxG dyG AngleCS AngleSN
(PID.TID 0000.0001) tile:   5 ; Read from file grid_cs32.face003.bin
(PID.TID 0000.0001)   => xC yC dxF dyF rA xG yG dxV dyU rAz dxC dyC rAw rAs dxG dyG AngleCS AngleSN
(PID.TID 0000.0001) tile:   6 ; Read from file grid_cs32.face003.bin
(PID.TID 0000.0001)   => xC yC dxF dyF rA xG yG dxV dyU rAz dxC dyC rAw rAs dxG dyG AngleCS AngleSN
(PID.TID 0000.0001) tile:   7 ; Read from file grid_cs32.face004.bin
(PID.TID 0000.0001)   => xC yC dxF dyF rA xG yG dxV dyU rAz dxC dyC rAw rAs dxG dyG AngleCS AngleSN
(PID.TID 0000.0001) tile:   8 ; Read from file grid_cs32.face004.bin
(PID.TID 0000.0001)   => xC yC dxF dyF rA xG yG dxV dyU rAz dxC dyC rAw rAs dxG dyG AngleCS AngleSN
(PID.TID 0000.0001) tile:   9 ; Read from file grid_cs32.face005.bin
(PID.TID 0000.0001)   => xC yC dxF dyF rA xG yG dxV dyU rAz dxC dyC rAw rAs dxG dyG AngleCS AngleSN
(PID.TID 0000.0001) tile:  10 ; Read from file grid_cs32.face005.bin
(PID.TID 0000.0001)   => xC yC dxF dyF rA xG yG dxV dyU rAz dxC dyC rAw rAs dxG dyG AngleCS AngleSN
(PID.TID 0000.0001) tile:  11 ; Read from file grid_cs32.face006.bin
(PID.TID 0000.0001)   => xC yC dxF dyF rA xG yG dxV dyU rAz dxC dyC rAw rAs dxG dyG AngleCS AngleSN
(PID.TID 0000.0001) tile:  12 ; Read from file grid_cs32.face006.bin
(PID.TID 0000.0001)   => xC yC dxF dyF rA xG yG dxV dyU rAz dxC dyC rAw rAs dxG dyG AngleCS AngleSN
(PID.TID 0000.0001) %MON XC_max                       =   1.7854351589505E+02
(PID.TID 0000.0001) %MON XC_min                       =  -1.7854351589505E+02
(PID.TID 0000.0001) %MON XC_mean                      =  -1.4199289892029E-14
(PID.TID 0000.0001) %MON XC_sd                        =   1.0355545336287E+02
(PID.TID 0000.0001) %MON XG_max                       =   1.8000000000000E+02
(PID.TID 0000.0001) %MON XG_min                       =  -1.7708797161002E+02
(PID.TID 0000.0001) %MON XG_mean                      =   1.8603515625000E+00
(PID.TID 0000.0001) %MON XG_sd                        =   1.0357130300504E+02
(PID.TID 0000.0001) %MON DXC_max                      =   3.2375185836900E+05
(PID.TID 0000.0001) %MON DXC_min                      =   1.1142031410131E+05
(PID.TID 0000.0001) %MON DXC_mean                     =   2.8605689051214E+05
(PID.TID 0000.0001) %MON DXC_sd                       =   3.4042087138252E+04
(PID.TID 0000.0001) %MON DXF_max                      =   3.2369947500827E+05
(PID.TID 0000.0001) %MON DXF_min                      =   1.2020820513318E+05
(PID.TID 0000.0001) %MON DXF_mean                     =   2.8605437324820E+05
(PID.TID 0000.0001) %MON DXF_sd                       =   3.4050524252539E+04
(PID.TID 0000.0001) %MON DXG_max                      =   3.2375195872773E+05
(PID.TID 0000.0001) %MON DXG_min                      =   1.0098378008791E+05
(PID.TID 0000.0001) %MON DXG_mean                     =   2.8603818508931E+05
(PID.TID 0000.0001) %MON DXG_sd                       =   3.4140406908005E+04
(PID.TID 0000.0001) %MON DXV_max                      =   3.2380418162750E+05
(PID.TID 0000.0001) %MON DXV_min                      =   8.0152299824136E+04
(PID.TID 0000.0001) %MON DXV_mean                     =   2.8603970633619E+05
(PID.TID 0000.0001) %MON DXV_sd                       =   3.4145142117723E+04
(PID.TID 0000.0001) %MON YC_max                       =   8.7940663871962E+01
(PID.TID 0000.0001) %MON YC_min                       =  -8.7940663871962E+01
(PID.TID 0000.0001) %MON YC_mean                      =  -2.3684757858670E-15
(PID.TID 0000.0001) %MON YC_sd                        =   3.8676242969072E+01
(PID.TID 0000.0001) %MON YG_max                       =   9.0000000000000E+01
(PID.TID 0000.0001) %MON YG_min                       =  -9.0000000000000E+01
(PID.TID 0000.0001) %MON YG_mean                      =  -4.1448326252673E-15
(PID.TID 0000.0001) %MON YG_sd                        =   3.8676895860710E+01
(PID.TID 0000.0001) %MON DYC_max                      =   3.2375185836900E+05
(PID.TID 0000.0001) %MON DYC_min                      =   1.1142031410131E+05
(PID.TID 0000.0001) %MON DYC_mean                     =   2.8605689051214E+05
(PID.TID 0000.0001) %MON DYC_sd                       =   3.4042087138252E+04
(PID.TID 0000.0001) %MON DYF_max                      =   3.2369947500827E+05
(PID.TID 0000.0001) %MON DYF_min                      =   1.2020820513318E+05
(PID.TID 0000.0001) %MON DYF_mean                     =   2.8605437324820E+05
(PID.TID 0000.0001) %MON DYF_sd                       =   3.4050524252539E+04
(PID.TID 0000.0001) %MON DYG_max                      =   3.2375195872773E+05
(PID.TID 0000.0001) %MON DYG_min                      =   1.0098378008791E+05
(PID.TID 0000.0001) %MON DYG_mean                     =   2.8603818508931E+05
(PID.TID 0000.0001) %MON DYG_sd                       =   3.4140406908005E+04
(PID.TID 0000.0001) %MON DYU_max                      =   3.2380418162750E+05
(PID.TID 0000.0001) %MON DYU_min                      =   8.0152299824136E+04
(PID.TID 0000.0001) %MON DYU_mean                     =   2.8603970633619E+05
(PID.TID 0000.0001) %MON DYU_sd                       =   3.4145142117723E+04
(PID.TID 0000.0001) %MON RA_max                       =   1.0479260248419E+11
(PID.TID 0000.0001) %MON RA_min                       =   1.4019007022556E+10
(PID.TID 0000.0001) %MON RA_mean                      =   8.2992246709265E+10
(PID.TID 0000.0001) %MON RA_sd                        =   1.7509089299457E+10
(PID.TID 0000.0001) %MON RAW_max                      =   1.0480965274559E+11
(PID.TID 0000.0001) %MON RAW_min                      =   1.2166903467143E+10
(PID.TID 0000.0001) %MON RAW_mean                     =   8.2992246709235E+10
(PID.TID 0000.0001) %MON RAW_sd                       =   1.7481917919656E+10
(PID.TID 0000.0001) %MON RAS_max                      =   1.0480965274559E+11
(PID.TID 0000.0001) %MON RAS_min                      =   1.2166903467143E+10
(PID.TID 0000.0001) %MON RAS_mean                     =   8.2992246709235E+10
(PID.TID 0000.0001) %MON RAS_sd                       =   1.7481917919656E+10
(PID.TID 0000.0001) %MON RAZ_max                      =   1.0484349334619E+11
(PID.TID 0000.0001) %MON RAZ_min                      =   8.8317900612505E+09
(PID.TID 0000.0001) %MON RAZ_mean                     =   8.2992246709235E+10
(PID.TID 0000.0001) %MON RAZ_sd                       =   1.7482297311044E+10
(PID.TID 0000.0001) %MON AngleCS_max                  =   9.9999994756719E-01
(PID.TID 0000.0001) %MON AngleCS_min                  =  -9.9968286884824E-01
(PID.TID 0000.0001) %MON AngleCS_mean                 =   3.3078922539000E-01
(PID.TID 0000.0001) %MON AngleCS_sd                   =   6.2496278958502E-01
(PID.TID 0000.0001) %MON AngleSN_max                  =   9.9968286884824E-01
(PID.TID 0000.0001) %MON AngleSN_min                  =  -9.9999994756719E-01
(PID.TID 0000.0001) %MON AngleSN_mean                 =  -3.3078922539000E-01
(PID.TID 0000.0001) %MON AngleSN_sd                   =   6.2496278958502E-01
(PID.TID 0000.0001) 
(PID.TID 0000.0001) FIND_HYD_PRESS_1D: Start to iterate (MaxIter=  150 ) until P(rho(P))
(PID.TID 0000.0001) FIND_HYD_PRESS_1D:  converges ; critera (x  5) on Rho diff= 1.035000E-11
(PID.TID 0000.0001)  iter    1, RMS-diff=  3.067292373321E-02, Max-diff= -4.865992464306E-02
(PID.TID 0000.0001)  iter    2, RMS-diff=  3.008677774568E-04, Max-diff= -5.940271378222E-04
(PID.TID 0000.0001)  iter    3, RMS-diff=  2.137566369311E-06, Max-diff= -5.763074113929E-06
(PID.TID 0000.0001)  iter    4, RMS-diff=  1.105374630434E-08, Max-diff= -3.385775926290E-08
(PID.TID 0000.0001)  iter    5, RMS-diff=  4.540984940442E-11, Max-diff= -1.493845047662E-10
(PID.TID 0000.0001)  iter    6, RMS-diff=  2.033691978340E-13, Max-diff= -6.821210263297E-13
(PID.TID 0000.0001)  iter    7, RMS-diff=  0.000000000000E+00, Max-diff=  0.000000000000E+00
(PID.TID 0000.0001) FIND_HYD_PRESS_1D: converged after    7 iters (nUnderCrit=  2 )
(PID.TID 0000.0001)  MDS_READ_FIELD: opening global file: bathy_Hmin50.bin
(PID.TID 0000.0001) // =======================================================
(PID.TID 0000.0001) // Field Model R_low (ini_masks_etc)
(PID.TID 0000.0001) // CMIN =         -5.200000000000000E+03
(PID.TID 0000.0001) // CMAX =         -5.000000000000000E+01
(PID.TID 0000.0001) // CINT =          1.907407407407407E+02
(PID.TID 0000.0001) // SYMBOLS (CMIN->CMAX): -abcdefghijklmnopqrstuvwxyz+
(PID.TID 0000.0001) //                  0.0: .
(PID.TID 0000.0001) // RANGE I (Lo:Hi:Step):(    -3:   388:     1)
(PID.TID 0000.0001) // RANGE J (Lo:Hi:Step):(    20:    -3:    -1)
(PID.TID 0000.0001) // RANGE K (Lo:Hi:Step):(   1:   1:   1)
(PID.TID 0000.0001) // =======================================================
(PID.TID 0000.0001) K =   1
(PID.TID 0000.0001) //                I=6       I=16      I=26      I=36      I=38      I=48      I=58      I=68      I=70      I=80      I=90      I=100     I=102     I=112     I=122     I=132     I=134     I=144     I=154     I=164     I=166     I=176     I=186     I=196     I=198     I=208     I=218     I=228     I=230     I=240     I=250     I=260     I=262     I=272     I=282     I=292     I=294     I=304     I=314     I=324     I=326     I=336     I=346     I=356     I=358     I=368     I=378     I=388
(PID.TID 0000.0001) // |--J--|321012345|789012345|789012345|789012345|901234567|901234567|901234567|901234567|123456789|123456789|123456789|123456789|345678901|345678901|345678901|345678901|567890123|567890123|567890123|567890123|789012345|789012345|789012345|789012345|901234567|901234567|901234567|901234567|123456789|123456789|123456789|123456789|345678901|345678901|345678901|345678901|567890123|567890123|567890123|567890123|789012345|789012345|789012345|789012345|901234567|901234567|901234567|901234567|
(PID.TID 0000.0001) //     20 fbbbcgfcaa-aae+.......................lccbbc-ddcbcdehkhhmn..++........................lcgfdddhq.+hiilnz++.+oquxyz--adgkf................................okn.skkodcaabcfmtooyxz......+yuiiy....++gb--------a-fc----bba-cp.............tfeecccbbdegb--------ddcca-a-----acbaa------bbaaaabecccbbdeddedcdcccdddcddffggghiggfffdeeff........ywxy.lulo.lv...kcdgddffefffilyx+ijlihjlica---a--cgffel.+edfgeedflcbahgflfffilyx+fffk.+xyyy.........mgeimvskjkllllcbahgfllfhdffhkfffca-aady...llnabdoa--a
(PID.TID 0000.0001) //     19 zmfeccdghfeegcbt......................aadcac--cbbeefjkfefw+..........zpu..............aafifccgnrzgghjry.+++sr+lq.--edfkk................................kqnzrqqkoxtkblwnnsp.vv......skhggt...+++t---------b-da----bbbbfu..............fdddccaadct---------bdaf---------edd-------adlaaaaddccaadcdddcbbbbcdddcccdffffghgffffddeff+..........vnhzy.tllqiedccdhggfggffiiggflligfiljfba---aafddehy...pwvlhfffcbagfccgffiiggfcbdgy..yz..........xigqophijkkiifcbagfcceeffffjlkjgaa---bfvheeln-aesaaab
(PID.TID 0000.0001) //     18 ..wifedfkhfegbbcivlqfoz..............jaad--ba-abcehjnldcclz+........spps.............jaacfihggokeeffgt..++++..hhlfdeddke...............................vkqn+xnnnz..qcz+.zwxtsttz..ysrkhot++++++zig------cabbcbba--aabfu+..............hcbaaaaaccig--------b--f---------egqqqaa----frb---baaaaaccdccbaaabbddddccdffffghfeeeeedeff+........+kkrhw.vqmlnieddcdehgggffgigedbjiffefilhfcaaaacgceei.......zomggfcaecbbffgigedbaaceiy.............zilrddefikkhhgfcaecbbccddefilihecbaacbaajfega-aesfeed
(PID.TID 0000.0001) //     17 ..+wfeefikhgcbbccaaacgn.............icaa--abbbccceiomkfdbbc+.......+s...............icaaccfihfoedddeedy..++...nnqwgfeeke...............................xsrxzz+z.yy.z++..+zsjjllllljllpjos+++.+zhhi-----efdcddb-----adu+...............hcbaa--acchi-----e-----ea--------foqqoqqo--hlwgea-baa--accddba--bbbddddccdfffhhgfeeddccedd.........+nk+..xiioonhfefddegihhghigfdbahfeddfgikhfffdfgccffw........zohhgebbaaaghigfdbaaabdgx..............nheddefiklhghgebbaaaaaccdfhlhfefdcccaabjefbaaafoosso
(PID.TID 0000.0001) //     16 ....wiheddeccdfhfbabdfl............jdbad--bddefhhkqqlgfaakqz..v.+..+...............jdbaddddgifkccccdccd+.++..++ynvz.tkkq.............................++..u+....z.mu....++zyslllllkhggkmpy++...ihhi-----eigfdba----adu+................kdcaaa-acchi-----ea---feb-----a-acnoohfghknvmwnucacaaa-accdcb---bbbcdddddefffggfeeedcccccb..........qhu..hhhkojgffgeefghihhiieedbaccbbdcdfgghhiihcbeiw.........+ynjgebaaaahiieedbaaabcdy..............ygddeghiljgfjgebaaaa-aacccfikkhecccbbbaaabaadfklnqpp
(PID.TID 0000.0001) //     15 ......ylea--acfihebcbbes..........sfcbbnabbcffijnpnqneaaat..umrr+s.z..............sfcbbngfffigcaaabdbcac+.+++++zgmpx...y.............................+++++.ztsvd.mm....++..zslwz.yhhhhnz+++...rhgc----ablifeb--dfdfu+................+lkdca--abcgc----ab----ige----acaaalllkddfiy..yswxbdca--abcccb---bbbbddddeffflhfeeeecbbbbaa..........thk.xgghiligfghfefhhhhiiheedcdba-abbacbcdceffbbfw+..........++ujfbaaa-iiheedcdbbabdmz.............zfdeghikkifdujfbaaa----aacffiljgfffcca--adfikkiihhhf
(PID.TID 0000.0001) //     14 ........c---acgkhdcc--di..........ofddch--adgillkkkifcadcx.ymmqzqikvnnps..........ofddchohffikaaaaabaaa-aw+.+ysnggox++...............................+++++wmegt-.qrv..........yzzzzrjil+++....qhgd-----ajlifcacdlqx+++...............mligea---abgd-----a-----i---cccdeabkklldinqssy..xxvgea---abbbb---abaaddddeedkmeddefdbbbaaaa...........+y.uhghikihgfghefgihhhgeeeeedbc---b--aaaaabaabm..............+viba---hgeeeeeddbaadhw.............nedeghjjhfed+viba-------acdefinmlgiieb-chnnnmlmlgffc
(PID.TID 0000.0001) //     13 .......+b----cfkhec---afz.........nhfdff--cfiljigfjd--efdozy...+ximpnnuz..........nhfdffholghkaaaaaba-a---flkkuswyy++++y..............................+++yqddhp-+zr...........zzzzz++ry++......yd-------iljhcbbchz+......++.........+mmhffc----ad--------------aeecdeidfkkqnqlmqquukqqmfffc----aaba------acdddcbcineddgdbaaa----..............iihiijjhfefgefhjihiffgggffcdd--a------aa-bfz...............+qe---aiffgggffecaabelx...........zjecehijhfecc.+qe---aa---aedeegknmlgiigcdfhpokkimlfdb
(PID.TID 0000.0001) //     12 .......ec----chjhec---ag..........skiqdd-abgkhfcccea-bdei........t................skiqddeiiiifaaabae--a---dd--iu+++.+++s..............................++zwgfcfk-xq++..........+z+++++.+++....++.s-------gknhccbbhwwy.....+++........+njfeed-----s------------a-ceccdejhlllkqlkklssiccdeeeed-----aa-------abddcabcnfddegcaaa-----.............wjkkkjjjigeefffgjiiighiiihhhlf------------dk+................+ja---ighiiihhhdaabdffghtxx......mfccehjiffdb-..+ja------bffdddehfd--bedaacfhpnligiihd
(PID.TID 0000.0001) //     11 ......pdca--achlheba--ai..........nkn.fd-acghfbaaaa-achmy......................+..nkn.fdemijidaaaabi-------a--q+....++.z.......+++....................++vnbbbcleiis...........+++++..........+yyza----b-fkpkeeecflmqxy....++........+lhfeecc----za----b-----a--ccccddkhieekkossssfbbbbcdeecc------------aaadcbabcfhddccba-------............njjijhhihijhgggggjjjjijkkkkjzqd-----------irw.................++e---jijkkkkjjhcaacddeegpy.....xfdccdhjgfdda-..++e-----mhmijddda--------ahhfiokhedegg
(PID.TID 0000.0001) //     10 ......wfdb--achlhea---an.........uos..dc-adhfca-----bfiv.......................+.uos..dcemikkfdcaabi-------equ+................++sy...................+tq-fdbblcmk...........................zyvuq----ccjknqiheddefhiksz++++........zkhfdccb----uq----cc----a---dcfhkopqjeissrnpfbbcccdedccb------------aabdcaaaacfddbca-------a..........zslihhigghgijjihhhhkllkkkkkkjk+xfa-abb-----vvv...................+wa--kkkkkkjkkkedccdeeeeipz..zwhccbcdhgfddcam...+wa---mlmkijhc----------cjjffiheb-aad
(PID.TID 0000.0001) //      9 ......vgec---bfikca--cjl+.......+nnv.+cc-achfa------ch+..................w......+nnv.+ccffhkkiddaadha-----as++...........w.......njo+................+x-----bcgipvz++........................zxuuk------diqqojfefiiiijmy.++.........zkhfdbaa----uk------a---a----djmqrrnlllsoiddcccccdjfdbaa-------daa---acccaaaacccca--------ac.........+zjijhfgfggffhjkkkiillljihhghgi.+udaabbb----tei...................++qdejihhghgihighdeeffgghimnnjgecbbcdgfeccbas...++qdeqnghiljcaaaaidaa----beedeeca--bb
(PID.TID 0000.0001) //      8 .....zleca---afjfca--hdfz.......vkky.jceaaeifa--acbcei...................w......vkky.jceddefijffdddhb--a-afv.............w.......likn+.....++.....++znpa----bbdinn..ss.........................+yku------fnlmnjhinlksssw............qhfeca------yku--------------ejnpqqnninnritqdccchkmfca--------addc--aeffaaaaaaccb-a----a--bd+.......wihgghgeffffeefhijkjkljiigeeffef.++udbbaba---ven....................++xyigeeffefffhjhhikkklljklmhffeeeggfdcbaay.....++xywnfgllcbbabegkecba----ddddcaacdc
(PID.TID 0000.0001) //      7 ...+zohec--abcfkhecbchbdx.......qiht.faaabfida-aabchjk...................zz.....qiht.faaaabdgijgfededcdcb-f+.............zz.....nhhijz....tqq.....+ujgzgd---abcinn...pz.........................+zu------cegklkkknols..xuu..........zgfdba------+zu--------------edefqgqddsz+......+yuddba--------bcd---affaaadffabbb-----aa-bccmm+....tiggfggfeeeefeeefiiiijkiihheddddd.+.+ufb-----l.gx...........s.........++zhheddddddddjjllliijhfkmmkkjjhijgdcba--q......++zzkfilfccccoz..ulkcd---bccnfddddd
(PID.TID 0000.0001) //      6 ..+yomfddcaabefkifdchaadt......uqdeisc---afhfaa---bfgi....................zz..rnqdeisc----dfefgifffkklldc--v..............zz..rnjffggm...nlmn+....+sffzya--aabciup...pp.........................v.x-----eaaffdfhimrmp...yuu.++.......zudba------v.x---------a----fbbpqgzenx+........zdbcba--------adc---dda-adffe-aa--------aaacmllkhhfffffffgfeeeeeeeefhhhhijihhffddcbb....+ufc-baaqvhh..........dcfeeh......++hffddcbbbbdhhiihedddb-cfhhhjjjieca----+.......++zggqvifefhz......zobbaccfwuffeee
(PID.TID 0000.0001) //      5 ..+nhgffkghccfhkhffgdaackz....uoibcimlaababcgca----abe.....................ysstlibcimlaaacfbddfjjhijeehf-a-c...............ysstlgeeeeoz..ijklt+....lfjzzf---adfczs...su.........................qk.yi---fdaadcehllotq....yy+++zzs.....+zcba-----qk.yi-------gha-fjddqs+xkrz.........q-bccba-------cdd--aaa----df------------aaachikdccdeeeeeeedddedddddgghhhhjhhgffcbbaa.....+upjdcy.vohq.......+idcdfeeefwz....gffcbbaaaaddfegecca----dfeefhfgdb-----+.efwz....+hhn.vklox.........gdccfjwrigffh
(PID.TID 0000.0001) //      4 .+ujhgfllfhdffhkfffca-aady...llnabdopfcbfbbbcgfcaa-aae+.......................lcabdopfcbdgdbcdehlihgfddc--ms..................lcgfdddhq.+hiilnz++.+oquxyz--adgkf................................okn.zd--dcaabcfmtooyxz......+yuiiy....++gb------okn.zd---eciiiicfkeeqy.ysz..........n-aagb--------ddcca-a-----acbaa------bbaaaabfgdcbbdeddedcdcccdddcddffggghiggfffdbaa-........ywxy.lulo.lv...kcdgddffefffilyx+fffdbaa---acdcccba--abvfedeffdcca----b+.fffilyx+fffk.+xyyy.........mgeimvskjklll
(PID.TID 0000.0001) //      3 +vjggfcceeffffjlkjgaa---bfvheeln-aesphfdzmfeccdghfeegcbt......................aa-aesphfdhgabddeflihhgfecbaaayq+++++...........aafifccgnrzgghjry.+++sr+lq.--edfkk................................kqnz.vtpoxtkblwnnsp.vv......skhggt...+++t-------kqnz.vtpkllgdccfkkkkk..++..........+g---t---------bdaf---------edd-------adlaaaafecaaadcdddcbbbbcdddcccdffffghgffffdcaa-+..........vnhzy.tllqiedccdhggfggffiiggffffdcaa----abcaaaa-acxxmecdjmdbba----r+.gffiiggfcbdgy..yz..........xigqophijkkii
(PID.TID 0000.0001) //      2 qifeecbbccddefilihecbaacbaajfega-aesqhff..wifedfkhfegbbcivlqfoz..............jaa-aesqhffiea-cdeflkkljifeddcba---bry+.........jaacfihggokeeffgt..++++..hhlfdeddke...............................vkqn+.sghz..qcz+.zwxtsttz..ysrkhot++++++zig------kqn+.sghfcbcbbbdgfdek.++++.........+l---ig--------b--f---------egqqqaa----frb---caaaaaccdccbaaabbddddccdffffghfeeeeecba-+........+kkrhw.vqmlnieddcdehgggffgigedbeeeecba------baaaa-euwxqdbcdkud-----sy+.ffgigedbaaceiy.............zilrddefikkhh
(PID.TID 0000.0001) //      1 ebbbbaaaaaccdfhlhfefdcccaabjefbaaafonhgl..+wfeefikhgcbbccaaacgn.............icaaaafonhglid--adfgkkkklkhffddca-----s++++.....icaaccfihfoedddeedy..++...nnqwgfeeke...............................xsrxz.tedyy.z++..+zsjjllllljllpjos+++.+zhhi-----esrxz.tedcbbbbaaadddet.++++.........+l---hi-----e-----ea--------foqqoqqo--hlwgea----a-accddba--bbbddddccdfffhhgfeeddccba-.........+nk+..xiioonhfefddegihhghigfdbaeddccba-------aaaabgns.qcbcchyzqngll++..ghigfdbaaabdgx..............nheddefiklhg
(PID.TID 0000.0001) //      0 -aaaaaaa-aacccfikkhecccbbbaaabaadfkllilm....wiheddeccdfhfbabdfl............jdbaddfkllilmgebaadfijjiiikjhffdcba-----lllgn...jdbaddddgifkccccdccd+.++..++ynvz.tkkq.............................++..u+..zmd.mu....++zyslllllkhggkmpy++...ihhi-----e.u+..zmdfbd---a-aeef.xx+..........+++s--hi-----ea---feb-----a-acnoohfghknvmwnuca-----accdcb---bbbcdddddefffggfeeedcccbba..........qhu..hhhkojgffgeefghihhiieedbaedcccbba----aa--alrwwy.kcbccc+...++++...hiieedbaaabcdy..............ygddeghiljgf
(PID.TID 0000.0001) //     -1 --aaaaa----aacffiljgfffcca--adfikkiikimi......ylea--acfihebcbbes..........sfcbbnkkiikimiiheccfurkiffhijjigfecb-----l----..sfcbbngfffigcaaabdbcac+.+++++zgmpx...y.............................+++++.z+.wq.mm....++..zslwz.yhhhhnz+++...rhgc----ab++.z+.wqgbf-------dgzpoy+........+ys+yrbgc----ab----ige----acaaalllkddfiy..yswxb--aa-abcccb---bbbbddddeffflhfeeeecbbcbba..........thk.xgghiligfghfefhhhhiiheedcdecbbcbbaa----a--bdflm.yuibbcc.......+...iiheedcdbbabdmz.............zfdeghikkifd
(PID.TID 0000.0001) //     -2 --aaa-------acdefinmlgiieb-chnnnmlmlfklk........c---acgkhdcc--di..........ofddchmlmlfklklkhednwwsheeghhijjgfdca----g---a..ofddchohffikaaaaabaaa-aw+.+ysnggox++...............................+++++wmu++y.qrv..........yzzzzrjil+++....qhgd-----a++wmu++ywn--------fwvmgy+........+r-.+++gd-----a-----i---cccdeabkklldinqssy..xxv-abc--abbbb---abaaddddeedkmeddefdbbbdcba...........+y.uhghikihgfghefgihhhgeeeeeddbbbdcbaa-------ba-hv.susfbcc.......+...hgeeeeeddbaadhw.............nedeghjjhfed
(PID.TID 0000.0001) //     -3 a--a---aa---aedeegknmlgiigcdfhpokkimdkmk.......+b----cfkhec---afz.........nhfdffkkimdkmknoiedcfjvpddegghhhhgfdcbaa-n---a..nhfdffholghkaaaaaba-a---flkkuswyy++++y..............................+++yqd.++++zr...........zzzzz++ry++......yd-------+yqd.+++zvq--dafz.lqnggw+........+b-....d--------------aeecdeidfkkqnqlmqquukqqmfabcc---aaba------acdddcbcineddgdbaaaeedb..............iihiijjhfefgefhjihiffgggffbaaaeedbaa----------nysqssfcd...........iffgggffecaabelx...........zjecehijhfecc
(PID.TID 0000.0001) // =======================================================
(PID.TID 0000.0001) // END OF FIELD                                          =
(PID.TID 0000.0001) // =======================================================
(PID.TID 0000.0001) 
(PID.TID 0000.0001) // =======================================================
(PID.TID 0000.0001) // Field Model Ro_surf (ini_masks_etc)
(PID.TID 0000.0001) // CMIN =         -7.105427357601002E-15
(PID.TID 0000.0001) // CMAX =         -7.105427357601002E-15
(PID.TID 0000.0001) // CINT =          0.000000000000000E+00
(PID.TID 0000.0001) // SYMBOLS (CMIN->CMAX): -abcdefghijklmnopqrstuvwxyz+
(PID.TID 0000.0001) //                  0.0: .
(PID.TID 0000.0001) // RANGE I (Lo:Hi:Step):(    -3:   388:     1)
(PID.TID 0000.0001) // RANGE J (Lo:Hi:Step):(    20:    -3:    -1)
(PID.TID 0000.0001) // RANGE K (Lo:Hi:Step):(   1:   1:   1)
(PID.TID 0000.0001) // =======================================================
(PID.TID 0000.0001) // =======================================================
(PID.TID 0000.0001) // END OF FIELD                                          =
(PID.TID 0000.0001) // =======================================================
(PID.TID 0000.0001) 
(PID.TID 0000.0001) // =======================================================
(PID.TID 0000.0001) // Field hFacC at iteration          0
(PID.TID 0000.0001) // CMIN =          1.000000000000000E+00
(PID.TID 0000.0001) // CMAX =          1.000000000000000E+00
(PID.TID 0000.0001) // CINT =          0.000000000000000E+00
(PID.TID 0000.0001) // SYMBOLS (CMIN->CMAX): -abcdefghijklmnopqrstuvwxyz+
(PID.TID 0000.0001) //                  0.0: .
(PID.TID 0000.0001) // RANGE I (Lo:Hi:Step):(    -3:   388:     1)
(PID.TID 0000.0001) // RANGE J (Lo:Hi:Step):(    20:    -3:    -1)
(PID.TID 0000.0001) // RANGE K (Lo:Hi:Step):(   1:   1:   1)
(PID.TID 0000.0001) // =======================================================
(PID.TID 0000.0001) // =======================================================
(PID.TID 0000.0001) // END OF FIELD                                          =
(PID.TID 0000.0001) // =======================================================
(PID.TID 0000.0001) 
(PID.TID 0000.0001) // =======================================================
(PID.TID 0000.0001) // Field hFacW at iteration          0
(PID.TID 0000.0001) // CMIN =          1.000000000000000E+00
(PID.TID 0000.0001) // CMAX =          1.000000000000000E+00
(PID.TID 0000.0001) // CINT =          0.000000000000000E+00
(PID.TID 0000.0001) // SYMBOLS (CMIN->CMAX): -abcdefghijklmnopqrstuvwxyz+
(PID.TID 0000.0001) //                  0.0: .
(PID.TID 0000.0001) // RANGE I (Lo:Hi:Step):(    -3:   388:     1)
(PID.TID 0000.0001) // RANGE J (Lo:Hi:Step):(    20:    -3:    -1)
(PID.TID 0000.0001) // RANGE K (Lo:Hi:Step):(   1:   1:   1)
(PID.TID 0000.0001) // =======================================================
(PID.TID 0000.0001) // =======================================================
(PID.TID 0000.0001) // END OF FIELD                                          =
(PID.TID 0000.0001) // =======================================================
(PID.TID 0000.0001) 
(PID.TID 0000.0001) // =======================================================
(PID.TID 0000.0001) // Field hFacS at iteration          0
(PID.TID 0000.0001) // CMIN =          1.000000000000000E+00
(PID.TID 0000.0001) // CMAX =          1.000000000000000E+00
(PID.TID 0000.0001) // CINT =          0.000000000000000E+00
(PID.TID 0000.0001) // SYMBOLS (CMIN->CMAX): -abcdefghijklmnopqrstuvwxyz+
(PID.TID 0000.0001) //                  0.0: .
(PID.TID 0000.0001) // RANGE I (Lo:Hi:Step):(    -3:   388:     1)
(PID.TID 0000.0001) // RANGE J (Lo:Hi:Step):(    20:    -3:    -1)
(PID.TID 0000.0001) // RANGE K (Lo:Hi:Step):(   1:   1:   1)
(PID.TID 0000.0001) // =======================================================
(PID.TID 0000.0001) // =======================================================
(PID.TID 0000.0001) // END OF FIELD                                          =
(PID.TID 0000.0001) // =======================================================
(PID.TID 0000.0001) 
(PID.TID 0000.0001) GAD_INIT_FIXED: GAD_OlMinSize=  1  0  1
(PID.TID 0000.0001) 
(PID.TID 0000.0001) // ===================================
(PID.TID 0000.0001) // GAD parameters :
(PID.TID 0000.0001) // ===================================
(PID.TID 0000.0001) tempAdvScheme =   /* Temp. Horiz.Advection scheme selector */
(PID.TID 0000.0001)                       2
(PID.TID 0000.0001)     ;
(PID.TID 0000.0001) tempVertAdvScheme =   /* Temp. Vert. Advection scheme selector */
(PID.TID 0000.0001)                       2
(PID.TID 0000.0001)     ;
(PID.TID 0000.0001) tempMultiDimAdvec =   /* use Muti-Dim Advec method for Temp */
(PID.TID 0000.0001)                   F
(PID.TID 0000.0001)     ;
(PID.TID 0000.0001) tempSOM_Advection = /* use 2nd Order Moment Advection for Temp */
(PID.TID 0000.0001)                   F
(PID.TID 0000.0001)     ;
(PID.TID 0000.0001) AdamsBashforthGt = /* apply Adams-Bashforth extrapolation on Gt */
(PID.TID 0000.0001)                   T
(PID.TID 0000.0001)     ;
(PID.TID 0000.0001) AdamsBashforth_T = /* apply Adams-Bashforth extrapolation on Temp */
(PID.TID 0000.0001)                   F
(PID.TID 0000.0001)     ;
(PID.TID 0000.0001) saltAdvScheme =   /* Salt. Horiz.advection scheme selector */
(PID.TID 0000.0001)                       2
(PID.TID 0000.0001)     ;
(PID.TID 0000.0001) saltVertAdvScheme =   /* Salt. Vert. Advection scheme selector */
(PID.TID 0000.0001)                       2
(PID.TID 0000.0001)     ;
(PID.TID 0000.0001) saltMultiDimAdvec =   /* use Muti-Dim Advec method for Salt */
(PID.TID 0000.0001)                   F
(PID.TID 0000.0001)     ;
(PID.TID 0000.0001) saltSOM_Advection = /* use 2nd Order Moment Advection for Salt */
(PID.TID 0000.0001)                   F
(PID.TID 0000.0001)     ;
(PID.TID 0000.0001) AdamsBashforthGs = /* apply Adams-Bashforth extrapolation on Gs */
(PID.TID 0000.0001)                   T
(PID.TID 0000.0001)     ;
(PID.TID 0000.0001) AdamsBashforth_S = /* apply Adams-Bashforth extrapolation on Salt */
(PID.TID 0000.0001)                   F
(PID.TID 0000.0001)     ;
(PID.TID 0000.0001) // ===================================
(PID.TID 0000.0001) INI_GLOBAL_DOMAIN: Found  19 CS-corner Pts in the domain
(PID.TID 0000.0001) %MON fCori_max                    =   1.4574827780704E-04
(PID.TID 0000.0001) %MON fCori_min                    =  -1.4574827780704E-04
(PID.TID 0000.0001) %MON fCori_mean                   =   3.3881317890172E-21
(PID.TID 0000.0001) %MON fCori_sd                     =   8.4202189509968E-05
(PID.TID 0000.0001) %MON fCoriG_max                   =   1.4584247033981E-04
(PID.TID 0000.0001) %MON fCoriG_min                   =  -1.4584247033981E-04
(PID.TID 0000.0001) %MON fCoriG_mean                  =  -1.6940658945086E-20
(PID.TID 0000.0001) %MON fCoriG_sd                    =   8.4202189509968E-05
(PID.TID 0000.0001) %MON fCoriCos_max                 =   1.4580166994612E-04
(PID.TID 0000.0001) %MON fCoriCos_min                 =   5.2407700865903E-06
(PID.TID 0000.0001) %MON fCoriCos_mean                =   1.1514045869113E-04
(PID.TID 0000.0001) %MON fCoriCos_sd                  =   3.0375849106513E-05
(PID.TID 0000.0001) INI_CG2D: CG2D normalisation factor =  1.9156564154949553E-04
(PID.TID 0000.0001) INI_CG2D: cg2dTolerance = 1.936338786725099E-07 (Area=3.6388673751E+14)
(PID.TID 0000.0001) 
(PID.TID 0000.0001) INI_CG3D: CG3D normalisation factor =  5.7255949921703569E-10
(PID.TID 0000.0001) 
(PID.TID 0000.0001) // =======================================================
(PID.TID 0000.0001) // Model configuration
(PID.TID 0000.0001) // =======================================================
(PID.TID 0000.0001) //
(PID.TID 0000.0001) // "Physical" paramters ( PARM01 in namelist )
(PID.TID 0000.0001) //
(PID.TID 0000.0001) buoyancyRelation = /* Type of relation to get Buoyancy */
(PID.TID 0000.0001)               'OCEANIC'
(PID.TID 0000.0001)     ;
(PID.TID 0000.0001) fluidIsAir   =  /* fluid major constituent is Air */
(PID.TID 0000.0001)                   F
(PID.TID 0000.0001)     ;
(PID.TID 0000.0001) fluidIsWater =  /* fluid major constituent is Water */
(PID.TID 0000.0001)                   T
(PID.TID 0000.0001)     ;
(PID.TID 0000.0001) usingPCoords =  /* use p (or p*) vertical coordinate */
(PID.TID 0000.0001)                   F
(PID.TID 0000.0001)     ;
(PID.TID 0000.0001) usingZCoords =  /* use z (or z*) vertical coordinate */
(PID.TID 0000.0001)                   T
(PID.TID 0000.0001)     ;
(PID.TID 0000.0001) tRef =   /* Reference temperature profile ( oC or K ) */
(PID.TID 0000.0001)    15 @  2.000000000000000E+01              /* K =  1: 15 */
(PID.TID 0000.0001)     ;
(PID.TID 0000.0001) sRef =   /* Reference salinity profile ( psu ) */
(PID.TID 0000.0001)    15 @  3.500000000000000E+01              /* K =  1: 15 */
(PID.TID 0000.0001)     ;
(PID.TID 0000.0001) useStrainTensionVisc= /* Use StrainTension Form of Viscous Operator */
(PID.TID 0000.0001)                   F
(PID.TID 0000.0001)     ;
(PID.TID 0000.0001) useVariableVisc = /* Use variable horizontal viscosity */
(PID.TID 0000.0001)                   F
(PID.TID 0000.0001)     ;
(PID.TID 0000.0001) useHarmonicVisc = /* Use harmonic horizontal viscosity */
(PID.TID 0000.0001)                   T
(PID.TID 0000.0001)     ;
(PID.TID 0000.0001) useBiharmonicVisc= /* Use biharmonic horiz.  viscosity */
(PID.TID 0000.0001)                   T
(PID.TID 0000.0001)     ;
(PID.TID 0000.0001) useSmag3D = /* Use isotropic 3-D Smagorinsky viscosity */
(PID.TID 0000.0001)                   F
(PID.TID 0000.0001)     ;
(PID.TID 0000.0001) viscAh  =   /* Lateral harmonic viscosity ( m^2/s ) */
(PID.TID 0000.0001)                 1.000000000000000E+05
(PID.TID 0000.0001)     ;
(PID.TID 0000.0001) viscAhW =   /* Lateral harmonic viscosity in W eq. ( m^2/s ) */
(PID.TID 0000.0001)                 1.000000000000000E+05
(PID.TID 0000.0001)     ;
(PID.TID 0000.0001) viscA4  =   /* Lateral biharmonic viscosity ( m^4/s ) */
(PID.TID 0000.0001)                 3.000000000000000E+14
(PID.TID 0000.0001)     ;
(PID.TID 0000.0001) viscA4W =   /* Lateral biharmonic viscosity in W eq. ( m^2/s ) */
(PID.TID 0000.0001)                 3.000000000000000E+14
(PID.TID 0000.0001)     ;
(PID.TID 0000.0001) no_slip_sides =  /* Viscous BCs: No-slip sides */
(PID.TID 0000.0001)                   T
(PID.TID 0000.0001)     ;
(PID.TID 0000.0001) sideDragFactor = /* side-drag scaling factor (non-dim) */
(PID.TID 0000.0001)                 2.000000000000000E+00
(PID.TID 0000.0001)     ;
(PID.TID 0000.0001) viscArNr = /* vertical profile of vertical viscosity ( m^2/s )*/
(PID.TID 0000.0001)    15 @  1.000000000000000E-03              /* K =  1: 15 */
(PID.TID 0000.0001)     ;
(PID.TID 0000.0001) no_slip_bottom =  /* Viscous BCs: No-slip bottom */
(PID.TID 0000.0001)                   T
(PID.TID 0000.0001)     ;
(PID.TID 0000.0001) bottomVisc_pCell = /* Partial-cell in bottom Visc. BC */
(PID.TID 0000.0001)                   F
(PID.TID 0000.0001)     ;
(PID.TID 0000.0001) bottomDragLinear = /* linear bottom-drag coefficient ( m/s ) */
(PID.TID 0000.0001)                 0.000000000000000E+00
(PID.TID 0000.0001)     ;
(PID.TID 0000.0001) bottomDragQuadratic = /* quadratic bottom-drag coefficient (-) */
(PID.TID 0000.0001)                 0.000000000000000E+00
(PID.TID 0000.0001)     ;
(PID.TID 0000.0001) selectBotDragQuadr = /* select quadratic bottom drag options */
(PID.TID 0000.0001)                      -1
(PID.TID 0000.0001)     ;
(PID.TID 0000.0001) diffKhT =   /* Laplacian diffusion of heat laterally ( m^2/s ) */
(PID.TID 0000.0001)                 0.000000000000000E+00
(PID.TID 0000.0001)     ;
(PID.TID 0000.0001) diffK4T =   /* Biharmonic diffusion of heat laterally ( m^4/s ) */
(PID.TID 0000.0001)                 0.000000000000000E+00
(PID.TID 0000.0001)     ;
(PID.TID 0000.0001) diffKhS =   /* Laplacian diffusion of salt laterally ( m^2/s ) */
(PID.TID 0000.0001)                 0.000000000000000E+00
(PID.TID 0000.0001)     ;
(PID.TID 0000.0001) diffK4S =   /* Biharmonic diffusion of salt laterally ( m^4/s ) */
(PID.TID 0000.0001)                 0.000000000000000E+00
(PID.TID 0000.0001)     ;
(PID.TID 0000.0001) diffKrNrT = /* vertical profile of vertical diffusion of Temp ( m^2/s )*/
(PID.TID 0000.0001)    15 @  3.000000000000000E-05              /* K =  1: 15 */
(PID.TID 0000.0001)     ;
(PID.TID 0000.0001) diffKrNrS = /* vertical profile of vertical diffusion of Salt ( m^2/s )*/
(PID.TID 0000.0001)    15 @  3.000000000000000E-05              /* K =  1: 15 */
(PID.TID 0000.0001)     ;
(PID.TID 0000.0001) diffKrBL79surf = /* Surface diffusion for Bryan and Lewis 79 ( m^2/s ) */
(PID.TID 0000.0001)                 0.000000000000000E+00
(PID.TID 0000.0001)     ;
(PID.TID 0000.0001) diffKrBL79deep = /* Deep diffusion for Bryan and Lewis 1979 ( m^2/s ) */
(PID.TID 0000.0001)                 0.000000000000000E+00
(PID.TID 0000.0001)     ;
(PID.TID 0000.0001) diffKrBL79scl = /* Depth scale for Bryan and Lewis 1979 ( m ) */
(PID.TID 0000.0001)                 2.000000000000000E+02
(PID.TID 0000.0001)     ;
(PID.TID 0000.0001) diffKrBL79Ho = /* Turning depth for Bryan and Lewis 1979 ( m ) */
(PID.TID 0000.0001)                -2.000000000000000E+03
(PID.TID 0000.0001)     ;
(PID.TID 0000.0001) ivdc_kappa = /* Implicit Vertical Diffusivity for Convection ( m^2/s) */
(PID.TID 0000.0001)                 1.000000000000000E+01
(PID.TID 0000.0001)     ;
(PID.TID 0000.0001) hMixCriteria=  /* Criteria for mixed-layer diagnostic */
(PID.TID 0000.0001)                -8.000000000000000E-01
(PID.TID 0000.0001)     ;
(PID.TID 0000.0001) dRhoSmall =  /* Parameter for mixed-layer diagnostic */
(PID.TID 0000.0001)                 1.000000000000000E-06
(PID.TID 0000.0001)     ;
(PID.TID 0000.0001) hMixSmooth=  /* Smoothing parameter for mixed-layer diagnostic */
(PID.TID 0000.0001)                 0.000000000000000E+00
(PID.TID 0000.0001)     ;
(PID.TID 0000.0001) eosType =  /* Type of Equation of State */
(PID.TID 0000.0001)               'JMD95Z'
(PID.TID 0000.0001)     ;
(PID.TID 0000.0001) selectP_inEOS_Zc = /* select pressure to use in EOS (0,1,2,3) */
(PID.TID 0000.0001)                       3
(PID.TID 0000.0001)     0= -g*rhoConst*z ; 1= pRef (from tRef,sRef); 2= Hyd P ; 3= Hyd+NH P
(PID.TID 0000.0001)     ;
(PID.TID 0000.0001) HeatCapacity_Cp =  /* Specific heat capacity ( J/kg/K ) */
(PID.TID 0000.0001)                 3.994000000000000E+03
(PID.TID 0000.0001)     ;
(PID.TID 0000.0001) celsius2K = /* 0 degree Celsius converted to Kelvin ( K ) */
(PID.TID 0000.0001)                 2.731500000000000E+02
(PID.TID 0000.0001)     ;
(PID.TID 0000.0001) rhoConst  = /* Reference density (Boussinesq)  ( kg/m^3 ) */
(PID.TID 0000.0001)                 1.035000000000000E+03
(PID.TID 0000.0001)     ;
(PID.TID 0000.0001) rhoFacC = /* normalized Reference density @ cell-Center (-) */
(PID.TID 0000.0001)    15 @  1.000000000000000E+00              /* K =  1: 15 */
(PID.TID 0000.0001)     ;
(PID.TID 0000.0001) rhoFacF = /* normalized Reference density @ W-Interface (-) */
(PID.TID 0000.0001)    16 @  1.000000000000000E+00              /* K =  1: 16 */
(PID.TID 0000.0001)     ;
(PID.TID 0000.0001) rhoConstFresh = /* Fresh-water reference density ( kg/m^3 ) */
(PID.TID 0000.0001)                 1.000000000000000E+03
(PID.TID 0000.0001)     ;
(PID.TID 0000.0001) gravity =   /* Gravitational acceleration ( m/s^2 ) */
(PID.TID 0000.0001)                 9.810000000000000E+00
(PID.TID 0000.0001)     ;
(PID.TID 0000.0001) gBaro =   /* Barotropic gravity ( m/s^2 ) */
(PID.TID 0000.0001)                 9.810000000000000E+00
(PID.TID 0000.0001)     ;
(PID.TID 0000.0001) gravFacC = /* gravity factor (vs surf.) @ cell-Center (-) */
(PID.TID 0000.0001)    15 @  1.000000000000000E+00              /* K =  1: 15 */
(PID.TID 0000.0001)     ;
(PID.TID 0000.0001) gravFacF = /* gravity factor (vs surf.) @ W-Interface (-) */
(PID.TID 0000.0001)    16 @  1.000000000000000E+00              /* K =  1: 16 */
(PID.TID 0000.0001)     ;
(PID.TID 0000.0001) rotationPeriod =   /* Rotation Period ( s ) */
(PID.TID 0000.0001)                 8.616400000000000E+04
(PID.TID 0000.0001)     ;
(PID.TID 0000.0001) omega =   /* Angular velocity ( rad/s ) */
(PID.TID 0000.0001)                 7.292123516990375E-05
(PID.TID 0000.0001)     ;
(PID.TID 0000.0001) f0 =   /* Reference coriolis parameter ( 1/s ) */
(PID.TID 0000.0001)                 1.000000000000000E-04
(PID.TID 0000.0001)     ;
(PID.TID 0000.0001) beta =   /* Beta ( 1/(m.s) ) */
(PID.TID 0000.0001)                 9.999999999999999E-12
(PID.TID 0000.0001)     ;
(PID.TID 0000.0001) fPrime =   /* Second coriolis parameter ( 1/s ) */
(PID.TID 0000.0001)                 0.000000000000000E+00
(PID.TID 0000.0001)     ;
(PID.TID 0000.0001) rigidLid =   /* Rigid lid on/off flag */
(PID.TID 0000.0001)                   F
(PID.TID 0000.0001)     ;
(PID.TID 0000.0001) implicitFreeSurface =   /* Implicit free surface on/off flag */
(PID.TID 0000.0001)                   T
(PID.TID 0000.0001)     ;
(PID.TID 0000.0001) freeSurfFac =   /* Implicit free surface factor */
(PID.TID 0000.0001)                 1.000000000000000E+00
(PID.TID 0000.0001)     ;
(PID.TID 0000.0001) implicSurfPress =  /* Surface Pressure implicit factor (0-1)*/
(PID.TID 0000.0001)                 1.000000000000000E+00
(PID.TID 0000.0001)     ;
(PID.TID 0000.0001) implicDiv2Dflow =  /* Barot. Flow Div. implicit factor (0-1)*/
(PID.TID 0000.0001)                 1.000000000000000E+00
(PID.TID 0000.0001)     ;
(PID.TID 0000.0001) uniformLin_PhiSurf = /* use uniform Bo_surf on/off flag*/
(PID.TID 0000.0001)                   T
(PID.TID 0000.0001)     ;
(PID.TID 0000.0001) uniformFreeSurfLev = /* free-surface level-index is uniform */
(PID.TID 0000.0001)                   T
(PID.TID 0000.0001)     ;
(PID.TID 0000.0001) hFacMin =   /* minimum partial cell factor (hFac) */
(PID.TID 0000.0001)                 1.000000000000000E-01
(PID.TID 0000.0001)     ;
(PID.TID 0000.0001) hFacMinDr = /* minimum partial cell thickness ( m) */
(PID.TID 0000.0001)                 2.000000000000000E+01
(PID.TID 0000.0001)     ;
(PID.TID 0000.0001) exactConserv =  /* Exact Volume Conservation on/off flag*/
(PID.TID 0000.0001)                   T
(PID.TID 0000.0001)     ;
(PID.TID 0000.0001) linFSConserveTr = /* Tracer correction for Lin Free Surface on/off flag*/
(PID.TID 0000.0001)                   F
(PID.TID 0000.0001)     ;
(PID.TID 0000.0001) nonlinFreeSurf = /* Non-linear Free Surf. options (-1,0,1,2,3)*/
(PID.TID 0000.0001)                       0
(PID.TID 0000.0001)      -1,0= Off ; 1,2,3= On, 2=+rescale gU,gV, 3=+update cg2d solv.
(PID.TID 0000.0001)     ;
(PID.TID 0000.0001) hFacInf =   /* lower threshold for hFac (nonlinFreeSurf only)*/
(PID.TID 0000.0001)                 2.000000000000000E-01
(PID.TID 0000.0001)     ;
(PID.TID 0000.0001) hFacSup =   /* upper threshold for hFac (nonlinFreeSurf only)*/
(PID.TID 0000.0001)                 2.000000000000000E+00
(PID.TID 0000.0001)     ;
(PID.TID 0000.0001) select_rStar = /* r* Vertical coord. options (=0 r coord.; >0 uses r*)*/
(PID.TID 0000.0001)                       0
(PID.TID 0000.0001)     ;
(PID.TID 0000.0001) useRealFreshWaterFlux = /* Real Fresh Water Flux on/off flag*/
(PID.TID 0000.0001)                   T
(PID.TID 0000.0001)     ;
(PID.TID 0000.0001) temp_EvPrRn = /* Temp. of Evap/Prec/R (UNSET=use local T)(oC)*/
(PID.TID 0000.0001)                 1.234567000000000E+05
(PID.TID 0000.0001)     ;
(PID.TID 0000.0001) salt_EvPrRn = /* Salin. of Evap/Prec/R (UNSET=use local S)(psu)*/
(PID.TID 0000.0001)                 0.000000000000000E+00
(PID.TID 0000.0001)     ;
(PID.TID 0000.0001) selectAddFluid = /* option for mass source/sink of fluid (=0: off) */
(PID.TID 0000.0001)                       0
(PID.TID 0000.0001)     ;
(PID.TID 0000.0001) temp_addMass = /* Temp. of addMass array (UNSET=use local T)(oC)*/
(PID.TID 0000.0001)                 1.234567000000000E+05
(PID.TID 0000.0001)     ;
(PID.TID 0000.0001) salt_addMass = /* Salin. of addMass array (UNSET=use local S)(psu)*/
(PID.TID 0000.0001)                 0.000000000000000E+00
(PID.TID 0000.0001)     ;
(PID.TID 0000.0001) convertFW2Salt = /* convert F.W. Flux to Salt Flux (-1=use local S)(psu)*/
(PID.TID 0000.0001)                -1.000000000000000E+00
(PID.TID 0000.0001)     ;
(PID.TID 0000.0001) use3Dsolver = /* use 3-D pressure solver on/off flag */
(PID.TID 0000.0001)                   T
(PID.TID 0000.0001)     ;
(PID.TID 0000.0001) nonHydrostatic =  /* Non-Hydrostatic on/off flag */
(PID.TID 0000.0001)                   T
(PID.TID 0000.0001)     ;
(PID.TID 0000.0001) nh_Am2 = /* Non-Hydrostatic terms scaling factor */
(PID.TID 0000.0001)                 1.000000000000000E+00
(PID.TID 0000.0001)     ;
(PID.TID 0000.0001) implicitNHPress = /* Non-Hyd Pressure implicit factor (0-1)*/
(PID.TID 0000.0001)                 1.000000000000000E+00
(PID.TID 0000.0001)     ;
(PID.TID 0000.0001) selectNHfreeSurf = /* Non-Hyd (free-)Surface option */
(PID.TID 0000.0001)                       1
(PID.TID 0000.0001)     ;
(PID.TID 0000.0001) quasiHydrostatic = /* Quasi-Hydrostatic on/off flag */
(PID.TID 0000.0001)                   F
(PID.TID 0000.0001)     ;
(PID.TID 0000.0001) calc_wVelocity = /* vertical velocity calculation on/off flag */
(PID.TID 0000.0001)                   T
(PID.TID 0000.0001)     ;
(PID.TID 0000.0001) momStepping =  /* Momentum equation on/off flag */
(PID.TID 0000.0001)                   T
(PID.TID 0000.0001)     ;
(PID.TID 0000.0001) vectorInvariantMomentum= /* Vector-Invariant Momentum on/off */
(PID.TID 0000.0001)                   T
(PID.TID 0000.0001)     ;
(PID.TID 0000.0001) momAdvection =  /* Momentum advection on/off flag */
(PID.TID 0000.0001)                   T
(PID.TID 0000.0001)     ;
(PID.TID 0000.0001) momViscosity =  /* Momentum viscosity on/off flag */
(PID.TID 0000.0001)                   T
(PID.TID 0000.0001)     ;
(PID.TID 0000.0001) momImplVertAdv= /* Momentum implicit vert. advection on/off*/
(PID.TID 0000.0001)                   F
(PID.TID 0000.0001)     ;
(PID.TID 0000.0001) implicitViscosity = /* Implicit viscosity on/off flag */
(PID.TID 0000.0001)                   F
(PID.TID 0000.0001)     ;
(PID.TID 0000.0001) implBottomFriction= /* Implicit bottom friction on/off flag */
(PID.TID 0000.0001)                   F
(PID.TID 0000.0001)     ;
(PID.TID 0000.0001) metricTerms =  /* metric-Terms on/off flag */
(PID.TID 0000.0001)                   F
(PID.TID 0000.0001)     ;
(PID.TID 0000.0001) useNHMTerms = /* Non-Hydrostatic Metric-Terms on/off */
(PID.TID 0000.0001)                   T
(PID.TID 0000.0001)     ;
(PID.TID 0000.0001) selectCoriMap = /* Coriolis Map options (0,1,2,3)*/
(PID.TID 0000.0001)                       2
(PID.TID 0000.0001)     0= f-Plane ; 1= Beta-Plane ; 2= Spherical ; 3= read from file
(PID.TID 0000.0001)     ;
(PID.TID 0000.0001) use3dCoriolis = /* 3-D Coriolis on/off flag */
(PID.TID 0000.0001)                   T
(PID.TID 0000.0001)     ;
(PID.TID 0000.0001) useCoriolis =  /* Coriolis on/off flag */
(PID.TID 0000.0001)                   T
(PID.TID 0000.0001)     ;
(PID.TID 0000.0001) useCDscheme =  /* CD scheme on/off flag */
(PID.TID 0000.0001)                   F
(PID.TID 0000.0001)     ;
(PID.TID 0000.0001) useEnergyConservingCoriolis= /* Flx-Form Coriolis scheme flag */
(PID.TID 0000.0001)                   F
(PID.TID 0000.0001)     ;
(PID.TID 0000.0001) useJamartWetPoints= /* Coriolis WetPoints method flag */
(PID.TID 0000.0001)                   F
(PID.TID 0000.0001)     ;
(PID.TID 0000.0001) useJamartMomAdv= /* V.I Non-linear terms Jamart flag */
(PID.TID 0000.0001)                   F
(PID.TID 0000.0001)     ;
(PID.TID 0000.0001) useAbsVorticity= /* V.I Works with f+zeta in Coriolis */
(PID.TID 0000.0001)                   F
(PID.TID 0000.0001)     ;
(PID.TID 0000.0001) selectVortScheme= /* V.I Scheme selector for Vorticity-Term */
(PID.TID 0000.0001)                       1
(PID.TID 0000.0001)    = 0 : enstrophy (Shallow-Water Eq.) conserving scheme by Sadourny, JAS 75
(PID.TID 0000.0001)    = 1 : same as 0 with modified hFac
(PID.TID 0000.0001)    = 2 : energy conserving scheme (used by Sadourny in JAS 75 paper)
(PID.TID 0000.0001)    = 3 : energy (general) and enstrophy (2D, nonDiv.) conserving scheme
(PID.TID 0000.0001)          from Sadourny (Burridge & Haseler, ECMWF Rep.4, 1977)
(PID.TID 0000.0001)     ;
(PID.TID 0000.0001) upwindVorticity= /* V.I Upwind bias vorticity flag */
(PID.TID 0000.0001)                   F
(PID.TID 0000.0001)     ;
(PID.TID 0000.0001) highOrderVorticity= /* V.I High order vort. advect. flag */
(PID.TID 0000.0001)                   F
(PID.TID 0000.0001)     ;
(PID.TID 0000.0001) upwindShear= /* V.I Upwind vertical Shear advection flag */
(PID.TID 0000.0001)                   F
(PID.TID 0000.0001)     ;
(PID.TID 0000.0001) selectKEscheme= /* V.I Kinetic Energy scheme selector */
(PID.TID 0000.0001)                       0
(PID.TID 0000.0001)     ;
(PID.TID 0000.0001) momForcing =  /* Momentum forcing on/off flag */
(PID.TID 0000.0001)                   T
(PID.TID 0000.0001)     ;
(PID.TID 0000.0001) momPressureForcing =  /* Momentum pressure term on/off flag */
(PID.TID 0000.0001)                   T
(PID.TID 0000.0001)     ;
(PID.TID 0000.0001) implicitIntGravWave= /* Implicit Internal Gravity Wave flag */
(PID.TID 0000.0001)                   F
(PID.TID 0000.0001)     ;
(PID.TID 0000.0001) staggerTimeStep =    /* Stagger time stepping on/off flag */
(PID.TID 0000.0001)                   T
(PID.TID 0000.0001)     ;
(PID.TID 0000.0001) doResetHFactors = /* reset thickness factors @ each time-step */
(PID.TID 0000.0001)                   F
(PID.TID 0000.0001)     ;
(PID.TID 0000.0001) multiDimAdvection =  /* enable/disable Multi-Dim Advection */
(PID.TID 0000.0001)                   T
(PID.TID 0000.0001)     ;
(PID.TID 0000.0001) useMultiDimAdvec =   /* Multi-Dim Advection is/is-not used */
(PID.TID 0000.0001)                   F
(PID.TID 0000.0001)     ;
(PID.TID 0000.0001) implicitDiffusion = /* Implicit Diffusion on/off flag */
(PID.TID 0000.0001)                   T
(PID.TID 0000.0001)     ;
(PID.TID 0000.0001) tempStepping =  /* Temperature equation on/off flag */
(PID.TID 0000.0001)                   T
(PID.TID 0000.0001)     ;
(PID.TID 0000.0001) tempAdvection = /* Temperature advection on/off flag */
(PID.TID 0000.0001)                   T
(PID.TID 0000.0001)     ;
(PID.TID 0000.0001) tempImplVertAdv = /* Temp. implicit vert. advection on/off */
(PID.TID 0000.0001)                   F
(PID.TID 0000.0001)     ;
(PID.TID 0000.0001) tempForcing  =  /* Temperature forcing on/off flag */
(PID.TID 0000.0001)                   T
(PID.TID 0000.0001)     ;
(PID.TID 0000.0001) balanceQnet  =  /* balance net heat-flux on/off flag */
(PID.TID 0000.0001)                   F
(PID.TID 0000.0001)     ;
(PID.TID 0000.0001) doThetaClimRelax = /* apply SST relaxation on/off flag */
(PID.TID 0000.0001)                   T
(PID.TID 0000.0001)     ;
(PID.TID 0000.0001) balanceThetaClimRelax= /* balance SST relaxation on/off flag */
(PID.TID 0000.0001)                   F
(PID.TID 0000.0001)     ;
(PID.TID 0000.0001) tempIsActiveTr = /* Temp. is a dynamically Active Tracer */
(PID.TID 0000.0001)                   T
(PID.TID 0000.0001)     ;
(PID.TID 0000.0001) saltStepping =  /* Salinity equation on/off flag */
(PID.TID 0000.0001)                   T
(PID.TID 0000.0001)     ;
(PID.TID 0000.0001) saltAdvection = /* Salinity advection on/off flag */
(PID.TID 0000.0001)                   T
(PID.TID 0000.0001)     ;
(PID.TID 0000.0001) saltImplVertAdv = /* Sali. implicit vert. advection on/off */
(PID.TID 0000.0001)                   F
(PID.TID 0000.0001)     ;
(PID.TID 0000.0001) saltForcing  =  /* Salinity forcing on/off flag */
(PID.TID 0000.0001)                   T
(PID.TID 0000.0001)     ;
(PID.TID 0000.0001) balanceEmPmR =  /* balance net fresh-water flux on/off flag */
(PID.TID 0000.0001)                   F
(PID.TID 0000.0001)     ;
(PID.TID 0000.0001) doSaltClimRelax = /* apply SSS relaxation on/off flag */
(PID.TID 0000.0001)                   T
(PID.TID 0000.0001)     ;
(PID.TID 0000.0001) balanceSaltClimRelax= /* balance SSS relaxation on/off flag */
(PID.TID 0000.0001)                   F
(PID.TID 0000.0001)     ;
(PID.TID 0000.0001) saltIsActiveTr = /* Salt  is a dynamically Active Tracer */
(PID.TID 0000.0001)                   T
(PID.TID 0000.0001)     ;
(PID.TID 0000.0001)  readBinaryPrec = /* Precision used for reading binary files */
(PID.TID 0000.0001)                      64
(PID.TID 0000.0001)     ;
(PID.TID 0000.0001) writeBinaryPrec = /* Precision used for writing binary files */
(PID.TID 0000.0001)                      32
(PID.TID 0000.0001)     ;
(PID.TID 0000.0001)  globalFiles = /* write "global" (=not per tile) files */
(PID.TID 0000.0001)                   F
(PID.TID 0000.0001)     ;
(PID.TID 0000.0001)  useSingleCpuIO = /* only master MPI process does I/O */
(PID.TID 0000.0001)                   T
(PID.TID 0000.0001)     ;
(PID.TID 0000.0001)  useSingleCpuInput = /* only master process reads input */
(PID.TID 0000.0001)                   T
(PID.TID 0000.0001)     ;
(PID.TID 0000.0001) /* debLev[*]  : level of debug & auxiliary message printing */
(PID.TID 0000.0001) debLevZero =  0 ; /* level of disabled aux. msg printing */
(PID.TID 0000.0001)    debLevA =  1 ; /* level of minimum  aux. msg printing */
(PID.TID 0000.0001)    debLevB =  2 ; /* level of low aux. print (report read-file opening)*/
(PID.TID 0000.0001)    debLevC =  3 ; /* level of moderate debug prt (most pkgs debug msg) */
(PID.TID 0000.0001)    debLevD =  4 ; /* level of enhanced debug prt (add DEBUG_STATS prt) */
(PID.TID 0000.0001)    debLevE =  5 ; /* level of extensive debug printing */
(PID.TID 0000.0001) debugLevel =  /* select debug printing level */
(PID.TID 0000.0001)                       2
(PID.TID 0000.0001)     ;
(PID.TID 0000.0001) //
(PID.TID 0000.0001) // Elliptic solver(s) paramters ( PARM02 in namelist )
(PID.TID 0000.0001) //
(PID.TID 0000.0001) cg2dMaxIters =   /* Upper limit on 2d con. grad iterations  */
(PID.TID 0000.0001)                     200
(PID.TID 0000.0001)     ;
(PID.TID 0000.0001) cg2dChkResFreq =   /* 2d con. grad convergence test frequency */
(PID.TID 0000.0001)                       1
(PID.TID 0000.0001)     ;
(PID.TID 0000.0001) cg2dUseMinResSol= /* use cg2d last-iter(=0) / min-resid.(=1) solution */
(PID.TID 0000.0001)                       0
(PID.TID 0000.0001)     ;
(PID.TID 0000.0001) cg2dTargetResidual =   /* 2d con. grad target residual  */
(PID.TID 0000.0001)                 1.000000000000000E-07
(PID.TID 0000.0001)     ;
(PID.TID 0000.0001) cg2dTargetResWunit =   /* CG2d target residual [W units] */
(PID.TID 0000.0001)                 1.000000000000000E-14
(PID.TID 0000.0001)     ;
(PID.TID 0000.0001) cg2dPreCondFreq =   /* Freq. for updating cg2d preconditioner */
(PID.TID 0000.0001)                       1
(PID.TID 0000.0001)     ;
(PID.TID 0000.0001) useSRCGSolver =  /* use single reduction CG solver(s) */
(PID.TID 0000.0001)                   F
(PID.TID 0000.0001)     ;
(PID.TID 0000.0001) printResidualFreq = /* Freq. for printing CG residual */
(PID.TID 0000.0001)                       0
(PID.TID 0000.0001)     ;
(PID.TID 0000.0001) //
(PID.TID 0000.0001) // Time stepping paramters ( PARM03 in namelist )
(PID.TID 0000.0001) //
(PID.TID 0000.0001) deltaTMom =   /* Momentum equation timestep ( s ) */
(PID.TID 0000.0001)                 3.600000000000000E+03
(PID.TID 0000.0001)     ;
(PID.TID 0000.0001) deltaTFreeSurf = /* FreeSurface equation timestep ( s ) */
(PID.TID 0000.0001)                 3.600000000000000E+03
(PID.TID 0000.0001)     ;
(PID.TID 0000.0001) dTtracerLev =  /* Tracer equation timestep ( s ) */
(PID.TID 0000.0001)    15 @  3.600000000000000E+03              /* K =  1: 15 */
(PID.TID 0000.0001)     ;
(PID.TID 0000.0001) deltaTClock  =   /* Model clock timestep ( s ) */
(PID.TID 0000.0001)                 3.600000000000000E+03
(PID.TID 0000.0001)     ;
(PID.TID 0000.0001) cAdjFreq =   /* Convective adjustment interval ( s ) */
(PID.TID 0000.0001)                 0.000000000000000E+00
(PID.TID 0000.0001)     ;
(PID.TID 0000.0001) momForcingOutAB = /* =1: take Momentum Forcing out of Adams-Bash. stepping */
(PID.TID 0000.0001)                       1
(PID.TID 0000.0001)     ;
(PID.TID 0000.0001) tracForcingOutAB = /* =1: take T,S,pTr Forcing out of Adams-Bash. stepping */
(PID.TID 0000.0001)                       1
(PID.TID 0000.0001)     ;
(PID.TID 0000.0001) momDissip_In_AB = /* put Dissipation Tendency in Adams-Bash. stepping */
(PID.TID 0000.0001)                   T
(PID.TID 0000.0001)     ;
(PID.TID 0000.0001) doAB_onGtGs = /* apply AB on Tendencies (rather than on T,S)*/
(PID.TID 0000.0001)                   T
(PID.TID 0000.0001)     ;
(PID.TID 0000.0001) abEps =   /* Adams-Bashforth-2 stabilizing weight */
(PID.TID 0000.0001)                 1.200000000000000E-01
(PID.TID 0000.0001)     ;
(PID.TID 0000.0001) applyExchUV_early = /* Apply EXCH to U,V earlier in time-step */
(PID.TID 0000.0001)                   F
(PID.TID 0000.0001)     ;
(PID.TID 0000.0001) pickupStrictlyMatch= /* stop if pickup do not strictly match */
(PID.TID 0000.0001)                   F
(PID.TID 0000.0001)     ;
(PID.TID 0000.0001) nIter0   =   /* Run starting timestep number */
(PID.TID 0000.0001)                   86400
(PID.TID 0000.0001)     ;
(PID.TID 0000.0001) nTimeSteps = /* Number of timesteps */
(PID.TID 0000.0001)                      10
(PID.TID 0000.0001)     ;
(PID.TID 0000.0001) nEndIter =   /* Run ending timestep number */
(PID.TID 0000.0001)                   86410
(PID.TID 0000.0001)     ;
(PID.TID 0000.0001) baseTime =   /* Model base time ( s ) */
(PID.TID 0000.0001)                 0.000000000000000E+00
(PID.TID 0000.0001)     ;
(PID.TID 0000.0001) startTime =  /* Run start time ( s ) */
(PID.TID 0000.0001)                 3.110400000000000E+08
(PID.TID 0000.0001)     ;
(PID.TID 0000.0001) endTime  =   /* Integration ending time ( s ) */
(PID.TID 0000.0001)                 3.110760000000000E+08
(PID.TID 0000.0001)     ;
(PID.TID 0000.0001) pChkPtFreq = /* Permanent restart/pickup file interval ( s ) */
(PID.TID 0000.0001)                 3.110400000000000E+07
(PID.TID 0000.0001)     ;
(PID.TID 0000.0001) chkPtFreq  = /* Rolling restart/pickup file interval ( s ) */
(PID.TID 0000.0001)                 0.000000000000000E+00
(PID.TID 0000.0001)     ;
(PID.TID 0000.0001) pickup_write_mdsio =   /* Model IO flag. */
(PID.TID 0000.0001)                   T
(PID.TID 0000.0001)     ;
(PID.TID 0000.0001) pickup_read_mdsio =   /* Model IO flag. */
(PID.TID 0000.0001)                   T
(PID.TID 0000.0001)     ;
(PID.TID 0000.0001) pickup_write_mnc =   /* Model IO flag. */
(PID.TID 0000.0001)                   F
(PID.TID 0000.0001)     ;
(PID.TID 0000.0001) pickup_read_mnc =   /* Model IO flag. */
(PID.TID 0000.0001)                   F
(PID.TID 0000.0001)     ;
(PID.TID 0000.0001) pickup_write_immed =   /* Model IO flag. */
(PID.TID 0000.0001)                   F
(PID.TID 0000.0001)     ;
(PID.TID 0000.0001) writePickupAtEnd =   /* Model IO flag. */
(PID.TID 0000.0001)                   T
(PID.TID 0000.0001)     ;
(PID.TID 0000.0001) dumpFreq =   /* Model state write out interval ( s ). */
(PID.TID 0000.0001)                 3.110400000000000E+07
(PID.TID 0000.0001)     ;
(PID.TID 0000.0001) dumpInitAndLast= /* write out Initial & Last iter. model state */
(PID.TID 0000.0001)                   T
(PID.TID 0000.0001)     ;
(PID.TID 0000.0001) snapshot_mdsio =   /* Model IO flag. */
(PID.TID 0000.0001)                   T
(PID.TID 0000.0001)     ;
(PID.TID 0000.0001) snapshot_mnc =   /* Model IO flag. */
(PID.TID 0000.0001)                   F
(PID.TID 0000.0001)     ;
(PID.TID 0000.0001) monitorFreq =   /* Monitor output interval ( s ). */
(PID.TID 0000.0001)                 1.000000000000000E+00
(PID.TID 0000.0001)     ;
(PID.TID 0000.0001) monitorSelect = /* select group of variables to monitor */
(PID.TID 0000.0001)                       3
(PID.TID 0000.0001)     ;
(PID.TID 0000.0001) monitor_stdio =   /* Model IO flag. */
(PID.TID 0000.0001)                   T
(PID.TID 0000.0001)     ;
(PID.TID 0000.0001) monitor_mnc =   /* Model IO flag. */
(PID.TID 0000.0001)                   F
(PID.TID 0000.0001)     ;
(PID.TID 0000.0001) externForcingPeriod =   /* forcing period (s) */
(PID.TID 0000.0001)                 2.592000000000000E+06
(PID.TID 0000.0001)     ;
(PID.TID 0000.0001) externForcingCycle =   /* period of the cyle (s). */
(PID.TID 0000.0001)                 3.110400000000000E+07
(PID.TID 0000.0001)     ;
(PID.TID 0000.0001) tauThetaClimRelax =   /* relaxation time scale (s) */
(PID.TID 0000.0001)                 5.184000000000000E+06
(PID.TID 0000.0001)     ;
(PID.TID 0000.0001) tauSaltClimRelax =   /* relaxation time scale (s) */
(PID.TID 0000.0001)                 6.220800000000000E+07
(PID.TID 0000.0001)     ;
(PID.TID 0000.0001) latBandClimRelax =   /* max. Lat. where relaxation */
(PID.TID 0000.0001)                 1.800000000000000E+02
(PID.TID 0000.0001)     ;
(PID.TID 0000.0001) //
(PID.TID 0000.0001) // Gridding paramters ( PARM04 in namelist )
(PID.TID 0000.0001) //
(PID.TID 0000.0001) usingCartesianGrid = /* Cartesian coordinates flag ( True/False ) */
(PID.TID 0000.0001)                   F
(PID.TID 0000.0001)     ;
(PID.TID 0000.0001) usingCylindricalGrid = /* Cylindrical coordinates flag ( True/False ) */
(PID.TID 0000.0001)                   F
(PID.TID 0000.0001)     ;
(PID.TID 0000.0001) usingSphericalPolarGrid = /* Spherical coordinates flag ( True/False ) */
(PID.TID 0000.0001)                   F
(PID.TID 0000.0001)     ;
(PID.TID 0000.0001) usingCurvilinearGrid = /* Curvilinear coordinates flag ( True/False ) */
(PID.TID 0000.0001)                   T
(PID.TID 0000.0001)     ;
(PID.TID 0000.0001) selectSigmaCoord = /* Hybrid-Sigma Vert. Coordinate option */
(PID.TID 0000.0001)                       0
(PID.TID 0000.0001)     ;
(PID.TID 0000.0001) rSigmaBnd = /* r/sigma transition ( units of r ==  m ) */
(PID.TID 0000.0001)                 1.234567000000000E+05
(PID.TID 0000.0001)     ;
(PID.TID 0000.0001) rkSign =   /* index orientation relative to vertical coordinate */
(PID.TID 0000.0001)                -1.000000000000000E+00
(PID.TID 0000.0001)     ;
(PID.TID 0000.0001) gravitySign = /* gravity orientation relative to vertical coordinate */
(PID.TID 0000.0001)                -1.000000000000000E+00
(PID.TID 0000.0001)     ;
(PID.TID 0000.0001) seaLev_Z =  /* reference height of sea-level [m] */
(PID.TID 0000.0001)                 0.000000000000000E+00
(PID.TID 0000.0001)     ;
(PID.TID 0000.0001) top_Pres =  /* reference pressure at the top [Pa] */
(PID.TID 0000.0001)                 0.000000000000000E+00
(PID.TID 0000.0001)     ;
(PID.TID 0000.0001) mass2rUnit = /* convert mass per unit area [kg/m2] to r-units [m] */
(PID.TID 0000.0001)                 9.661835748792270E-04
(PID.TID 0000.0001)     ;
(PID.TID 0000.0001) rUnit2mass = /* convert r-units [m] to mass per unit area [kg/m2] */
(PID.TID 0000.0001)                 1.035000000000000E+03
(PID.TID 0000.0001)     ;
(PID.TID 0000.0001) drC =   /* C spacing ( units of r ) */
(PID.TID 0000.0001)                 2.500000000000000E+01,      /* K =  1 */
(PID.TID 0000.0001)                 6.000000000000000E+01,      /* K =  2 */
(PID.TID 0000.0001)                 8.500000000000000E+01,      /* K =  3 */
(PID.TID 0000.0001)                 1.200000000000000E+02,      /* K =  4 */
(PID.TID 0000.0001)                 1.650000000000000E+02,      /* K =  5 */
(PID.TID 0000.0001)                 2.150000000000000E+02,      /* K =  6 */
(PID.TID 0000.0001)                 2.650000000000000E+02,      /* K =  7 */
(PID.TID 0000.0001)                 3.150000000000000E+02,      /* K =  8 */
(PID.TID 0000.0001)                 3.650000000000000E+02,      /* K =  9 */
(PID.TID 0000.0001)                 4.150000000000000E+02,      /* K = 10 */
(PID.TID 0000.0001)                 4.650000000000000E+02,      /* K = 11 */
(PID.TID 0000.0001)                 5.150000000000000E+02,      /* K = 12 */
(PID.TID 0000.0001)                 5.650000000000000E+02,      /* K = 13 */
(PID.TID 0000.0001)                 6.150000000000000E+02,      /* K = 14 */
(PID.TID 0000.0001)                 6.650000000000000E+02,      /* K = 15 */
(PID.TID 0000.0001)                 3.450000000000000E+02       /* K = 16 */
(PID.TID 0000.0001)     ;
(PID.TID 0000.0001) drF =   /* W spacing ( units of r ) */
(PID.TID 0000.0001)                 5.000000000000000E+01,      /* K =  1 */
(PID.TID 0000.0001)                 7.000000000000000E+01,      /* K =  2 */
(PID.TID 0000.0001)                 1.000000000000000E+02,      /* K =  3 */
(PID.TID 0000.0001)                 1.400000000000000E+02,      /* K =  4 */
(PID.TID 0000.0001)                 1.900000000000000E+02,      /* K =  5 */
(PID.TID 0000.0001)                 2.400000000000000E+02,      /* K =  6 */
(PID.TID 0000.0001)                 2.900000000000000E+02,      /* K =  7 */
(PID.TID 0000.0001)                 3.400000000000000E+02,      /* K =  8 */
(PID.TID 0000.0001)                 3.900000000000000E+02,      /* K =  9 */
(PID.TID 0000.0001)                 4.400000000000000E+02,      /* K = 10 */
(PID.TID 0000.0001)                 4.900000000000000E+02,      /* K = 11 */
(PID.TID 0000.0001)                 5.400000000000000E+02,      /* K = 12 */
(PID.TID 0000.0001)                 5.900000000000000E+02,      /* K = 13 */
(PID.TID 0000.0001)                 6.400000000000000E+02,      /* K = 14 */
(PID.TID 0000.0001)                 6.900000000000000E+02       /* K = 15 */
(PID.TID 0000.0001)     ;
(PID.TID 0000.0001) radius_fromHorizGrid = /* sphere Radius of input horiz. grid */
(PID.TID 0000.0001)                 6.370000000000000E+06
(PID.TID 0000.0001)     ;
(PID.TID 0000.0001) rSphere =  /* Radius ( ignored - cartesian, m - spherical ) */
(PID.TID 0000.0001)                 6.370000000000000E+06
(PID.TID 0000.0001)     ;
(PID.TID 0000.0001) deepAtmosphere = /* Deep/Shallow Atmosphere flag (True/False) */
(PID.TID 0000.0001)                   F
(PID.TID 0000.0001)     ;
(PID.TID 0000.0001) xC =  /* xC(:,1,:,1) : P-point X coord ( deg. or m if cartesian) */
(PID.TID 0000.0001)                -4.439521994760536E+01,      /* I =  1 */
(PID.TID 0000.0001)                -4.295641272275883E+01,      /* I =  2 */
(PID.TID 0000.0001)                -4.122055553388957E+01,      /* I =  3 */
(PID.TID 0000.0001)      . . .
(PID.TID 0000.0001)                 1.312205555338896E+02,      /* I = 94 */
(PID.TID 0000.0001)                 1.329564127227588E+02,      /* I = 95 */
(PID.TID 0000.0001)                 1.343952199476053E+02,      /* I = 96 */
(PID.TID 0000.0001)                 4.635509675007168E+01,      /* I = 97 */
(PID.TID 0000.0001)                 4.906731228843647E+01,      /* I = 98 */
(PID.TID 0000.0001)                 5.178550688214704E+01,      /* I = 99 */
(PID.TID 0000.0001)      . . .
(PID.TID 0000.0001)                -1.778001716525716E+02,      /* I =190 */
(PID.TID 0000.0001)                -1.779288225675308E+02,      /* I =191 */
(PID.TID 0000.0001)                -1.780367200854751E+02,      /* I =192 */
(PID.TID 0000.0001)                 1.356047800523947E+02,      /* I =193 */
(PID.TID 0000.0001)                 1.358367907661329E+02,      /* I =194 */
(PID.TID 0000.0001)                 1.359720382181193E+02,      /* I =195 */
(PID.TID 0000.0001)      . . .
(PID.TID 0000.0001)                -1.340279617818807E+02,      /* I =286 */
(PID.TID 0000.0001)                -1.341632092338671E+02,      /* I =287 */
(PID.TID 0000.0001)                -1.343952199476053E+02,      /* I =288 */
(PID.TID 0000.0001)                -8.812739148696656E+01,      /* I =289 */
(PID.TID 0000.0001)                -8.820362659721324E+01,      /* I =290 */
(PID.TID 0000.0001)                -8.826768106944316E+01,      /* I =291 */
(PID.TID 0000.0001)      . . .
(PID.TID 0000.0001)                 8.780017165257156E+01,      /* I =382 */
(PID.TID 0000.0001)                 8.792882256753080E+01,      /* I =383 */
(PID.TID 0000.0001)                 8.803672008547504E+01       /* I =384 */
(PID.TID 0000.0001)     ;
(PID.TID 0000.0001) yC =  /* yC(1,:,1,:) : P-point Y coord ( deg. or m if cartesian) */
(PID.TID 0000.0001)                -3.497677942598243E+01,      /* J =  1 */
(PID.TID 0000.0001)                -3.374005967394886E+01,      /* J =  2 */
(PID.TID 0000.0001)                -3.220655175667454E+01,      /* J =  3 */
(PID.TID 0000.0001)                -3.045756348838641E+01,      /* J =  4 */
(PID.TID 0000.0001)                -2.853728129852918E+01,      /* J =  5 */
(PID.TID 0000.0001)                -2.647426640173173E+01,      /* J =  6 */
(PID.TID 0000.0001)                -2.428936657094636E+01,      /* J =  7 */
(PID.TID 0000.0001)                -2.199915808312262E+01,      /* J =  8 */
(PID.TID 0000.0001)                -1.961768597440146E+01,      /* J =  9 */
(PID.TID 0000.0001)                -1.715743888281371E+01,      /* J = 10 */
(PID.TID 0000.0001)                -1.462993396899330E+01,      /* J = 11 */
(PID.TID 0000.0001)                -1.204608340464756E+01,      /* J = 12 */
(PID.TID 0000.0001)                -9.416429130284818E+00,      /* J = 13 */
(PID.TID 0000.0001)                -6.751293662992216E+00,      /* J = 14 */
(PID.TID 0000.0001)                -4.060875511835959E+00,      /* J = 15 */
(PID.TID 0000.0001)                -1.355307764409121E+00       /* J = 16 */
(PID.TID 0000.0001)     ;
(PID.TID 0000.0001) rcoord = /* P-point R coordinate (  units of r ) */
(PID.TID 0000.0001)                -2.500000000000000E+01,      /* K =  1 */
(PID.TID 0000.0001)                -8.500000000000000E+01,      /* K =  2 */
(PID.TID 0000.0001)                -1.700000000000000E+02,      /* K =  3 */
(PID.TID 0000.0001)                -2.900000000000000E+02,      /* K =  4 */
(PID.TID 0000.0001)                -4.550000000000000E+02,      /* K =  5 */
(PID.TID 0000.0001)                -6.700000000000000E+02,      /* K =  6 */
(PID.TID 0000.0001)                -9.350000000000000E+02,      /* K =  7 */
(PID.TID 0000.0001)                -1.250000000000000E+03,      /* K =  8 */
(PID.TID 0000.0001)                -1.615000000000000E+03,      /* K =  9 */
(PID.TID 0000.0001)                -2.030000000000000E+03,      /* K = 10 */
(PID.TID 0000.0001)                -2.495000000000000E+03,      /* K = 11 */
(PID.TID 0000.0001)                -3.010000000000000E+03,      /* K = 12 */
(PID.TID 0000.0001)                -3.575000000000000E+03,      /* K = 13 */
(PID.TID 0000.0001)                -4.190000000000000E+03,      /* K = 14 */
(PID.TID 0000.0001)                -4.855000000000000E+03       /* K = 15 */
(PID.TID 0000.0001)     ;
(PID.TID 0000.0001) rF =   /* W-Interf. R coordinate (  units of r ) */
(PID.TID 0000.0001)                 0.000000000000000E+00,      /* K =  1 */
(PID.TID 0000.0001)                -5.000000000000000E+01,      /* K =  2 */
(PID.TID 0000.0001)                -1.200000000000000E+02,      /* K =  3 */
(PID.TID 0000.0001)                -2.200000000000000E+02,      /* K =  4 */
(PID.TID 0000.0001)                -3.600000000000000E+02,      /* K =  5 */
(PID.TID 0000.0001)                -5.500000000000000E+02,      /* K =  6 */
(PID.TID 0000.0001)                -7.900000000000000E+02,      /* K =  7 */
(PID.TID 0000.0001)                -1.080000000000000E+03,      /* K =  8 */
(PID.TID 0000.0001)                -1.420000000000000E+03,      /* K =  9 */
(PID.TID 0000.0001)                -1.810000000000000E+03,      /* K = 10 */
(PID.TID 0000.0001)                -2.250000000000000E+03,      /* K = 11 */
(PID.TID 0000.0001)                -2.740000000000000E+03,      /* K = 12 */
(PID.TID 0000.0001)                -3.280000000000000E+03,      /* K = 13 */
(PID.TID 0000.0001)                -3.870000000000000E+03,      /* K = 14 */
(PID.TID 0000.0001)                -4.510000000000000E+03,      /* K = 15 */
(PID.TID 0000.0001)                -5.200000000000000E+03       /* K = 16 */
(PID.TID 0000.0001)     ;
(PID.TID 0000.0001) deepFacC = /* deep-model grid factor @ cell-Center (-) */
(PID.TID 0000.0001)    15 @  1.000000000000000E+00              /* K =  1: 15 */
(PID.TID 0000.0001)     ;
(PID.TID 0000.0001) deepFacF = /* deep-model grid factor @ W-Interface (-) */
(PID.TID 0000.0001)    16 @  1.000000000000000E+00              /* K =  1: 16 */
(PID.TID 0000.0001)     ;
(PID.TID 0000.0001) rVel2wUnit = /* convert units: rVel -> wSpeed (=1 if z-coord)*/
(PID.TID 0000.0001)    16 @  1.000000000000000E+00              /* K =  1: 16 */
(PID.TID 0000.0001)     ;
(PID.TID 0000.0001) wUnit2rVel = /* convert units: wSpeed -> rVel (=1 if z-coord)*/
(PID.TID 0000.0001)    16 @  1.000000000000000E+00              /* K =  1: 16 */
(PID.TID 0000.0001)     ;
(PID.TID 0000.0001) dBdrRef = /* Vertical grad. of reference buoyancy [(m/s/r)^2] */
(PID.TID 0000.0001)    15 @  0.000000000000000E+00              /* K =  1: 15 */
(PID.TID 0000.0001)     ;
(PID.TID 0000.0001) rotateGrid = /* use rotated grid ( True/False ) */
(PID.TID 0000.0001)                   F
(PID.TID 0000.0001)     ;
(PID.TID 0000.0001) phiEuler = /* Euler angle, rotation about original z-coordinate [rad] */
(PID.TID 0000.0001)                 0.000000000000000E+00
(PID.TID 0000.0001)     ;
(PID.TID 0000.0001) thetaEuler = /* Euler angle, rotation about new x-coordinate [rad] */
(PID.TID 0000.0001)                 0.000000000000000E+00
(PID.TID 0000.0001)     ;
(PID.TID 0000.0001) psiEuler = /* Euler angle, rotation about new z-coordinate [rad] */
(PID.TID 0000.0001)                 0.000000000000000E+00
(PID.TID 0000.0001)     ;
(PID.TID 0000.0001) dxF =  /* dxF(:,1,:,1) ( units: m ) */
(PID.TID 0000.0001)                 1.202082051331828E+05,      /* I =  1 */
(PID.TID 0000.0001)                 1.563594089971120E+05,      /* I =  2 */
(PID.TID 0000.0001)                 1.835530058121492E+05,      /* I =  3 */
(PID.TID 0000.0001)      . . .
(PID.TID 0000.0001)                 1.835530058121492E+05,      /* I = 94 */
(PID.TID 0000.0001)                 1.563594089971120E+05,      /* I = 95 */
(PID.TID 0000.0001)                 1.202082051331828E+05,      /* I = 96 */
(PID.TID 0000.0001)                 3.012844832048790E+05,      /* I = 97 */
(PID.TID 0000.0001)                 3.017314519159184E+05,      /* I = 98 */
(PID.TID 0000.0001)                 3.026061571839506E+05,      /* I = 99 */
(PID.TID 0000.0001)      . . .
(PID.TID 0000.0001)                 3.026061571839506E+05,      /* I =190 */
(PID.TID 0000.0001)                 3.017314519159184E+05,      /* I =191 */
(PID.TID 0000.0001)                 3.012844832048790E+05,      /* I =192 */
(PID.TID 0000.0001)                 1.202082051331828E+05,      /* I =193 */
(PID.TID 0000.0001)                 1.563594089971120E+05,      /* I =194 */
(PID.TID 0000.0001)                 1.835530058121492E+05,      /* I =195 */
(PID.TID 0000.0001)      . . .
(PID.TID 0000.0001)                 1.835530058121492E+05,      /* I =286 */
(PID.TID 0000.0001)                 1.563594089971120E+05,      /* I =287 */
(PID.TID 0000.0001)                 1.202082051331828E+05,      /* I =288 */
(PID.TID 0000.0001)                 3.012844832048790E+05,      /* I =289 */
(PID.TID 0000.0001)                 3.017314519159184E+05,      /* I =290 */
(PID.TID 0000.0001)                 3.026061571839506E+05,      /* I =291 */
(PID.TID 0000.0001)      . . .
(PID.TID 0000.0001)                 3.026061571839506E+05,      /* I =382 */
(PID.TID 0000.0001)                 3.017314519159184E+05,      /* I =383 */
(PID.TID 0000.0001)                 3.012844832048790E+05       /* I =384 */
(PID.TID 0000.0001)     ;
(PID.TID 0000.0001) dxF =  /* dxF(1,:,1,:) ( units: m ) */
(PID.TID 0000.0001)                 1.202082051331828E+05,      /* J =  1 */
(PID.TID 0000.0001)                 1.572908084538706E+05,      /* J =  2 */
(PID.TID 0000.0001)                 1.840412227747703E+05,      /* J =  3 */
(PID.TID 0000.0001)                 2.048868197919576E+05,      /* J =  4 */
(PID.TID 0000.0001)                 2.220405216043041E+05,      /* J =  5 */
(PID.TID 0000.0001)                 2.365892017348392E+05,      /* J =  6 */
(PID.TID 0000.0001)                 2.491250781852558E+05,      /* J =  7 */
(PID.TID 0000.0001)                 2.599949918261881E+05,      /* J =  8 */
(PID.TID 0000.0001)                 2.694110134598581E+05,      /* J =  9 */
(PID.TID 0000.0001)                 2.775055554645015E+05,      /* J = 10 */
(PID.TID 0000.0001)                 2.843615645344775E+05,      /* J = 11 */
(PID.TID 0000.0001)                 2.900303768613599E+05,      /* J = 12 */
(PID.TID 0000.0001)                 2.945429307892709E+05,      /* J = 13 */
(PID.TID 0000.0001)                 2.979171143158405E+05,      /* J = 14 */
(PID.TID 0000.0001)                 3.001626787528886E+05,      /* J = 15 */
(PID.TID 0000.0001)                 3.012844832048790E+05       /* J = 16 */
(PID.TID 0000.0001)     ;
(PID.TID 0000.0001) dyF =  /* dyF(:,1,:,1) ( units: m ) */
(PID.TID 0000.0001)                 1.202082051331828E+05,      /* I =  1 */
(PID.TID 0000.0001)                 1.572908084538706E+05,      /* I =  2 */
(PID.TID 0000.0001)                 1.840412227747703E+05,      /* I =  3 */
(PID.TID 0000.0001)      . . .
(PID.TID 0000.0001)                 1.840412227747703E+05,      /* I = 94 */
(PID.TID 0000.0001)                 1.572908084538706E+05,      /* I = 95 */
(PID.TID 0000.0001)                 1.202082051331828E+05,      /* I = 96 */
(PID.TID 0000.0001)                 3.012190981969055E+05,      /* I = 97 */
(PID.TID 0000.0001)                 3.016675528553907E+05,      /* I = 98 */
(PID.TID 0000.0001)                 3.025451404065074E+05,      /* I = 99 */
(PID.TID 0000.0001)      . . .
(PID.TID 0000.0001)                 3.025451404065074E+05,      /* I =190 */
(PID.TID 0000.0001)                 3.016675528553907E+05,      /* I =191 */
(PID.TID 0000.0001)                 3.012190981969055E+05,      /* I =192 */
(PID.TID 0000.0001)                 1.202082051331828E+05,      /* I =193 */
(PID.TID 0000.0001)                 1.572908084538706E+05,      /* I =194 */
(PID.TID 0000.0001)                 1.840412227747703E+05,      /* I =195 */
(PID.TID 0000.0001)      . . .
(PID.TID 0000.0001)                 1.840412227747703E+05,      /* I =286 */
(PID.TID 0000.0001)                 1.572908084538706E+05,      /* I =287 */
(PID.TID 0000.0001)                 1.202082051331828E+05,      /* I =288 */
(PID.TID 0000.0001)                 3.012190981969055E+05,      /* I =289 */
(PID.TID 0000.0001)                 3.016675528553907E+05,      /* I =290 */
(PID.TID 0000.0001)                 3.025451404065074E+05,      /* I =291 */
(PID.TID 0000.0001)      . . .
(PID.TID 0000.0001)                 3.025451404065074E+05,      /* I =382 */
(PID.TID 0000.0001)                 3.016675528553907E+05,      /* I =383 */
(PID.TID 0000.0001)                 3.012190981969055E+05       /* I =384 */
(PID.TID 0000.0001)     ;
(PID.TID 0000.0001) dyF =  /* dyF(1,:,1,:) ( units: m ) */
(PID.TID 0000.0001)                 1.202082051331828E+05,      /* J =  1 */
(PID.TID 0000.0001)                 1.563594089971120E+05,      /* J =  2 */
(PID.TID 0000.0001)                 1.835530058121492E+05,      /* J =  3 */
(PID.TID 0000.0001)                 2.045883481718707E+05,      /* J =  4 */
(PID.TID 0000.0001)                 2.218350349844185E+05,      /* J =  5 */
(PID.TID 0000.0001)                 2.364352994647058E+05,      /* J =  6 */
(PID.TID 0000.0001)                 2.490022710862746E+05,      /* J =  7 */
(PID.TID 0000.0001)                 2.598919724358304E+05,      /* J =  8 */
(PID.TID 0000.0001)                 2.693210245495156E+05,      /* J =  9 */
(PID.TID 0000.0001)                 2.774243179696503E+05,      /* J = 10 */
(PID.TID 0000.0001)                 2.842862532064524E+05,      /* J = 11 */
(PID.TID 0000.0001)                 2.899590699694043E+05,      /* J = 12 */
(PID.TID 0000.0001)                 2.944742915095688E+05,      /* J = 13 */
(PID.TID 0000.0001)                 2.978501920522794E+05,      /* J = 14 */
(PID.TID 0000.0001)                 3.000967749619962E+05,      /* J = 15 */
(PID.TID 0000.0001)                 3.012190981969055E+05       /* J = 16 */
(PID.TID 0000.0001)     ;
(PID.TID 0000.0001) dxG =  /* dxG(:,1,:,1) ( units: m ) */
(PID.TID 0000.0001)                 1.009837800879055E+05,      /* I =  1 */
(PID.TID 0000.0001)                 1.534505834330338E+05,      /* I =  2 */
(PID.TID 0000.0001)                 1.823321598773926E+05,      /* I =  3 */
(PID.TID 0000.0001)      . . .
(PID.TID 0000.0001)                 1.823321598773926E+05,      /* I = 94 */
(PID.TID 0000.0001)                 1.534505834330338E+05,      /* I = 95 */
(PID.TID 0000.0001)                 1.009837800879055E+05,      /* I = 96 */
(PID.TID 0000.0001)                 3.014246674484008E+05,      /* I = 97 */
(PID.TID 0000.0001)                 3.018694497480782E+05,      /* I = 98 */
(PID.TID 0000.0001)                 3.027399364062562E+05,      /* I = 99 */
(PID.TID 0000.0001)      . . .
(PID.TID 0000.0001)                 3.027399364062562E+05,      /* I =190 */
(PID.TID 0000.0001)                 3.018694497480782E+05,      /* I =191 */
(PID.TID 0000.0001)                 3.014246674484008E+05,      /* I =192 */
(PID.TID 0000.0001)                 1.009837800879055E+05,      /* I =193 */
(PID.TID 0000.0001)                 1.534505834330338E+05,      /* I =194 */
(PID.TID 0000.0001)                 1.823321598773926E+05,      /* I =195 */
(PID.TID 0000.0001)      . . .
(PID.TID 0000.0001)                 1.823321598773926E+05,      /* I =286 */
(PID.TID 0000.0001)                 1.534505834330338E+05,      /* I =287 */
(PID.TID 0000.0001)                 1.009837800879055E+05,      /* I =288 */
(PID.TID 0000.0001)                 3.014246674484008E+05,      /* I =289 */
(PID.TID 0000.0001)                 3.018694497480782E+05,      /* I =290 */
(PID.TID 0000.0001)                 3.027399364062562E+05,      /* I =291 */
(PID.TID 0000.0001)      . . .
(PID.TID 0000.0001)                 3.027399364062562E+05,      /* I =382 */
(PID.TID 0000.0001)                 3.018694497480782E+05,      /* I =383 */
(PID.TID 0000.0001)                 3.014246674484008E+05       /* I =384 */
(PID.TID 0000.0001)     ;
(PID.TID 0000.0001) dxG =  /* dxG(1,:,1,:) ( units: m ) */
(PID.TID 0000.0001)                 1.009837800879055E+05,      /* J =  1 */
(PID.TID 0000.0001)                 1.403701524205398E+05,      /* J =  2 */
(PID.TID 0000.0001)                 1.716197227386011E+05,      /* J =  3 */
(PID.TID 0000.0001)                 1.950254041626018E+05,      /* J =  4 */
(PID.TID 0000.0001)                 2.138410773065497E+05,      /* J =  5 */
(PID.TID 0000.0001)                 2.295958105911512E+05,      /* J =  6 */
(PID.TID 0000.0001)                 2.430829951739083E+05,      /* J =  7 */
(PID.TID 0000.0001)                 2.547526806712889E+05,      /* J =  8 */
(PID.TID 0000.0001)                 2.648750305193301E+05,      /* J =  9 */
(PID.TID 0000.0001)                 2.736173771018112E+05,      /* J = 10 */
(PID.TID 0000.0001)                 2.810845823202647E+05,      /* J = 11 */
(PID.TID 0000.0001)                 2.873420591008078E+05,      /* J = 12 */
(PID.TID 0000.0001)                 2.924298293668651E+05,      /* J = 13 */
(PID.TID 0000.0001)                 2.963715635865306E+05,      /* J = 14 */
(PID.TID 0000.0001)                 2.991805843171258E+05,      /* J = 15 */
(PID.TID 0000.0001)                 3.008638765647886E+05       /* J = 16 */
(PID.TID 0000.0001)     ;
(PID.TID 0000.0001) dyG =  /* dyG(:,1,:,1) ( units: m ) */
(PID.TID 0000.0001)                 1.009837800879055E+05,      /* I =  1 */
(PID.TID 0000.0001)                 1.403701524205398E+05,      /* I =  2 */
(PID.TID 0000.0001)                 1.716197227386011E+05,      /* I =  3 */
(PID.TID 0000.0001)      . . .
(PID.TID 0000.0001)                 1.950254041626018E+05,      /* I = 94 */
(PID.TID 0000.0001)                 1.716197227386011E+05,      /* I = 95 */
(PID.TID 0000.0001)                 1.403701524205398E+05,      /* I = 96 */
(PID.TID 0000.0001)                 3.011625828699101E+05,      /* I = 97 */
(PID.TID 0000.0001)                 3.013880313304323E+05,      /* I = 98 */
(PID.TID 0000.0001)                 3.020546438966793E+05,      /* I = 99 */
(PID.TID 0000.0001)      . . .
(PID.TID 0000.0001)                 3.031337933484788E+05,      /* I =190 */
(PID.TID 0000.0001)                 3.020546438966793E+05,      /* I =191 */
(PID.TID 0000.0001)                 3.013880313304323E+05,      /* I =192 */
(PID.TID 0000.0001)                 1.009837800879055E+05,      /* I =193 */
(PID.TID 0000.0001)                 1.403701524205398E+05,      /* I =194 */
(PID.TID 0000.0001)                 1.716197227386011E+05,      /* I =195 */
(PID.TID 0000.0001)      . . .
(PID.TID 0000.0001)                 1.950254041626018E+05,      /* I =286 */
(PID.TID 0000.0001)                 1.716197227386011E+05,      /* I =287 */
(PID.TID 0000.0001)                 1.403701524205398E+05,      /* I =288 */
(PID.TID 0000.0001)                 3.011625828699101E+05,      /* I =289 */
(PID.TID 0000.0001)                 3.013880313304323E+05,      /* I =290 */
(PID.TID 0000.0001)                 3.020546438966793E+05,      /* I =291 */
(PID.TID 0000.0001)      . . .
(PID.TID 0000.0001)                 3.031337933484788E+05,      /* I =382 */
(PID.TID 0000.0001)                 3.020546438966793E+05,      /* I =383 */
(PID.TID 0000.0001)                 3.013880313304323E+05       /* I =384 */
(PID.TID 0000.0001)     ;
(PID.TID 0000.0001) dyG =  /* dyG(1,:,1,:) ( units: m ) */
(PID.TID 0000.0001)                 1.009837800879055E+05,      /* J =  1 */
(PID.TID 0000.0001)                 1.534505834330338E+05,      /* J =  2 */
(PID.TID 0000.0001)                 1.823321598773926E+05,      /* J =  3 */
(PID.TID 0000.0001)                 2.038999045536999E+05,      /* J =  4 */
(PID.TID 0000.0001)                 2.213884732245467E+05,      /* J =  5 */
(PID.TID 0000.0001)                 2.361211699596122E+05,      /* J =  6 */
(PID.TID 0000.0001)                 2.487693460283865E+05,      /* J =  7 */
(PID.TID 0000.0001)                 2.597126963772147E+05,      /* J =  8 */
(PID.TID 0000.0001)                 2.691790288994575E+05,      /* J =  9 */
(PID.TID 0000.0001)                 2.773091043277394E+05,      /* J = 10 */
(PID.TID 0000.0001)                 2.841906470085516E+05,      /* J = 11 */
(PID.TID 0000.0001)                 2.898778860929753E+05,      /* J = 12 */
(PID.TID 0000.0001)                 2.944035815526416E+05,      /* J = 13 */
(PID.TID 0000.0001)                 2.977867909042096E+05,      /* J = 14 */
(PID.TID 0000.0001)                 3.000380090330854E+05,      /* J = 15 */
(PID.TID 0000.0001)                 3.011625828699101E+05       /* J = 16 */
(PID.TID 0000.0001)     ;
(PID.TID 0000.0001) dxC =  /* dxC(:,1,:,1) ( units: m ) */
(PID.TID 0000.0001)                 1.114203141013064E+05,      /* I =  1 */
(PID.TID 0000.0001)                 1.391343389937106E+05,      /* I =  2 */
(PID.TID 0000.0001)                 1.709574999026266E+05,      /* I =  3 */
(PID.TID 0000.0001)      . . .
(PID.TID 0000.0001)                 1.946503699269892E+05,      /* I = 94 */
(PID.TID 0000.0001)                 1.709574999026266E+05,      /* I = 95 */
(PID.TID 0000.0001)                 1.391343389937106E+05,      /* I = 96 */
(PID.TID 0000.0001)                 3.012281885409289E+05,      /* I = 97 */
(PID.TID 0000.0001)                 3.014528555318499E+05,      /* I = 98 */
(PID.TID 0000.0001)                 3.021172674809921E+05,      /* I = 99 */
(PID.TID 0000.0001)      . . .
(PID.TID 0000.0001)                 3.031928954490276E+05,      /* I =190 */
(PID.TID 0000.0001)                 3.021172674809921E+05,      /* I =191 */
(PID.TID 0000.0001)                 3.014528555318499E+05,      /* I =192 */
(PID.TID 0000.0001)                 1.114203141013064E+05,      /* I =193 */
(PID.TID 0000.0001)                 1.391343389937106E+05,      /* I =194 */
(PID.TID 0000.0001)                 1.709574999026266E+05,      /* I =195 */
(PID.TID 0000.0001)      . . .
(PID.TID 0000.0001)                 1.946503699269892E+05,      /* I =286 */
(PID.TID 0000.0001)                 1.709574999026266E+05,      /* I =287 */
(PID.TID 0000.0001)                 1.391343389937106E+05,      /* I =288 */
(PID.TID 0000.0001)                 3.012281885409289E+05,      /* I =289 */
(PID.TID 0000.0001)                 3.014528555318499E+05,      /* I =290 */
(PID.TID 0000.0001)                 3.021172674809921E+05,      /* I =291 */
(PID.TID 0000.0001)      . . .
(PID.TID 0000.0001)                 3.031928954490276E+05,      /* I =382 */
(PID.TID 0000.0001)                 3.021172674809921E+05,      /* I =383 */
(PID.TID 0000.0001)                 3.014528555318499E+05       /* I =384 */
(PID.TID 0000.0001)     ;
(PID.TID 0000.0001) dxC =  /* dxC(1,:,1,:) ( units: m ) */
(PID.TID 0000.0001)                 1.114203141013064E+05,      /* J =  1 */
(PID.TID 0000.0001)                 1.549545757850771E+05,      /* J =  2 */
(PID.TID 0000.0001)                 1.829777599966776E+05,      /* J =  3 */
(PID.TID 0000.0001)                 2.042717761866506E+05,      /* J =  4 */
(PID.TID 0000.0001)                 2.216367828252819E+05,      /* J =  5 */
(PID.TID 0000.0001)                 2.363029564123586E+05,      /* J =  6 */
(PID.TID 0000.0001)                 2.489113743322025E+05,      /* J =  7 */
(PID.TID 0000.0001)                 2.598293319150326E+05,      /* J =  8 */
(PID.TID 0000.0001)                 2.692787333338535E+05,      /* J =  9 */
(PID.TID 0000.0001)                 2.773972106720365E+05,      /* J = 10 */
(PID.TID 0000.0001)                 2.842706922224557E+05,      /* J = 11 */
(PID.TID 0000.0001)                 2.899523122489403E+05,      /* J = 12 */
(PID.TID 0000.0001)                 2.944741346384699E+05,      /* J = 13 */
(PID.TID 0000.0001)                 2.978547649292580E+05,      /* J = 14 */
(PID.TID 0000.0001)                 3.001044073506459E+05,      /* J = 15 */
(PID.TID 0000.0001)                 3.012281885409289E+05       /* J = 16 */
(PID.TID 0000.0001)     ;
(PID.TID 0000.0001) dyC =  /* dyC(:,1,:,1) ( units: m ) */
(PID.TID 0000.0001)                 1.114203141013064E+05,      /* I =  1 */
(PID.TID 0000.0001)                 1.549545757850771E+05,      /* I =  2 */
(PID.TID 0000.0001)                 1.829777599966776E+05,      /* I =  3 */
(PID.TID 0000.0001)      . . .
(PID.TID 0000.0001)                 1.829777599966776E+05,      /* I = 94 */
(PID.TID 0000.0001)                 1.549545757850771E+05,      /* I = 95 */
(PID.TID 0000.0001)                 1.114203141013064E+05,      /* I = 96 */
(PID.TID 0000.0001)                 3.013593857228136E+05,      /* I = 97 */
(PID.TID 0000.0001)                 3.018056440786431E+05,      /* I = 98 */
(PID.TID 0000.0001)                 3.026789946729719E+05,      /* I = 99 */
(PID.TID 0000.0001)      . . .
(PID.TID 0000.0001)                 3.026789946729719E+05,      /* I =190 */
(PID.TID 0000.0001)                 3.018056440786431E+05,      /* I =191 */
(PID.TID 0000.0001)                 3.013593857228136E+05,      /* I =192 */
(PID.TID 0000.0001)                 1.114203141013064E+05,      /* I =193 */
(PID.TID 0000.0001)                 1.549545757850771E+05,      /* I =194 */
(PID.TID 0000.0001)                 1.829777599966776E+05,      /* I =195 */
(PID.TID 0000.0001)      . . .
(PID.TID 0000.0001)                 1.829777599966776E+05,      /* I =286 */
(PID.TID 0000.0001)                 1.549545757850771E+05,      /* I =287 */
(PID.TID 0000.0001)                 1.114203141013064E+05,      /* I =288 */
(PID.TID 0000.0001)                 3.013593857228136E+05,      /* I =289 */
(PID.TID 0000.0001)                 3.018056440786431E+05,      /* I =290 */
(PID.TID 0000.0001)                 3.026789946729719E+05,      /* I =291 */
(PID.TID 0000.0001)      . . .
(PID.TID 0000.0001)                 3.026789946729719E+05,      /* I =382 */
(PID.TID 0000.0001)                 3.018056440786431E+05,      /* I =383 */
(PID.TID 0000.0001)                 3.013593857228136E+05       /* I =384 */
(PID.TID 0000.0001)     ;
(PID.TID 0000.0001) dyC =  /* dyC(1,:,1,:) ( units: m ) */
(PID.TID 0000.0001)                 1.114203141013064E+05,      /* J =  1 */
(PID.TID 0000.0001)                 1.391343389937106E+05,      /* J =  2 */
(PID.TID 0000.0001)                 1.709574999026266E+05,      /* J =  3 */
(PID.TID 0000.0001)                 1.946503699269892E+05,      /* J =  4 */
(PID.TID 0000.0001)                 2.135964483342134E+05,      /* J =  5 */
(PID.TID 0000.0001)                 2.294195678257306E+05,      /* J =  6 */
(PID.TID 0000.0001)                 2.429464709770498E+05,      /* J =  7 */
(PID.TID 0000.0001)                 2.546408290696998E+05,      /* J =  8 */
(PID.TID 0000.0001)                 2.647791839299727E+05,      /* J =  9 */
(PID.TID 0000.0001)                 2.735321911346108E+05,      /* J = 10 */
(PID.TID 0000.0001)                 2.810065951609633E+05,      /* J = 11 */
(PID.TID 0000.0001)                 2.872689479506990E+05,      /* J = 12 */
(PID.TID 0000.0001)                 2.923599955312932E+05,      /* J = 13 */
(PID.TID 0000.0001)                 2.963038832565530E+05,      /* J = 14 */
(PID.TID 0000.0001)                 2.991142470004740E+05,      /* J = 15 */
(PID.TID 0000.0001)                 3.007982711627968E+05       /* J = 16 */
(PID.TID 0000.0001)     ;
(PID.TID 0000.0001) dxV =  /* dxV(:,1,:,1) ( units: m ) */
(PID.TID 0000.0001)                 8.015229982413632E+04,      /* I =  1 */
(PID.TID 0000.0001)                 1.333130744933864E+05,      /* I =  2 */
(PID.TID 0000.0001)                 1.691744868129062E+05,      /* I =  3 */
(PID.TID 0000.0001)      . . .
(PID.TID 0000.0001)                 1.937548202849060E+05,      /* I = 94 */
(PID.TID 0000.0001)                 1.691744868129062E+05,      /* I = 95 */
(PID.TID 0000.0001)                 1.333130744933864E+05,      /* I = 96 */
(PID.TID 0000.0001)                 3.013686170436881E+05,      /* I = 97 */
(PID.TID 0000.0001)                 3.015922136961168E+05,      /* I = 98 */
(PID.TID 0000.0001)                 3.022533948177109E+05,      /* I = 99 */
(PID.TID 0000.0001)      . . .
(PID.TID 0000.0001)                 3.033238888442880E+05,      /* I =190 */
(PID.TID 0000.0001)                 3.022533948177109E+05,      /* I =191 */
(PID.TID 0000.0001)                 3.015922136961168E+05,      /* I =192 */
(PID.TID 0000.0001)                 8.015229982413632E+04,      /* I =193 */
(PID.TID 0000.0001)                 1.333130744933864E+05,      /* I =194 */
(PID.TID 0000.0001)                 1.691744868129062E+05,      /* I =195 */
(PID.TID 0000.0001)      . . .
(PID.TID 0000.0001)                 1.937548202849060E+05,      /* I =286 */
(PID.TID 0000.0001)                 1.691744868129062E+05,      /* I =287 */
(PID.TID 0000.0001)                 1.333130744933864E+05,      /* I =288 */
(PID.TID 0000.0001)                 3.013686170436881E+05,      /* I =289 */
(PID.TID 0000.0001)                 3.015922136961168E+05,      /* I =290 */
(PID.TID 0000.0001)                 3.022533948177109E+05,      /* I =291 */
(PID.TID 0000.0001)      . . .
(PID.TID 0000.0001)                 3.033238888442880E+05,      /* I =382 */
(PID.TID 0000.0001)                 3.022533948177109E+05,      /* I =383 */
(PID.TID 0000.0001)                 3.015922136961168E+05       /* I =384 */
(PID.TID 0000.0001)     ;
(PID.TID 0000.0001) dxV =  /* dxV(1,:,1,:) ( units: m ) */
(PID.TID 0000.0001)                 8.015229982413632E+04,      /* J =  1 */
(PID.TID 0000.0001)                 1.362652340208229E+05,      /* J =  2 */
(PID.TID 0000.0001)                 1.701080315742101E+05,      /* J =  3 */
(PID.TID 0000.0001)                 1.942331448101592E+05,      /* J =  4 */
(PID.TID 0000.0001)                 2.133486626971531E+05,      /* J =  5 */
(PID.TID 0000.0001)                 2.292584591272880E+05,      /* J =  6 */
(PID.TID 0000.0001)                 2.428369969078989E+05,      /* J =  7 */
(PID.TID 0000.0001)                 2.545652950875683E+05,      /* J =  8 */
(PID.TID 0000.0001)                 2.647274964828301E+05,      /* J =  9 */
(PID.TID 0000.0001)                 2.734980225206389E+05,      /* J = 10 */
(PID.TID 0000.0001)                 2.809856491525217E+05,      /* J = 11 */
(PID.TID 0000.0001)                 2.872580915202295E+05,      /* J = 12 */
(PID.TID 0000.0001)                 2.923567890694162E+05,      /* J = 13 */
(PID.TID 0000.0001)                 2.963063101754721E+05,      /* J = 14 */
(PID.TID 0000.0001)                 2.991205495886625E+05,      /* J = 15 */
(PID.TID 0000.0001)                 3.008068453676764E+05       /* J = 16 */
(PID.TID 0000.0001)     ;
(PID.TID 0000.0001) dyU =  /* dyU(:,1,:,1) ( units: m ) */
(PID.TID 0000.0001)                 8.015229982413632E+04,      /* I =  1 */
(PID.TID 0000.0001)                 1.362652340208229E+05,      /* I =  2 */
(PID.TID 0000.0001)                 1.701080315742101E+05,      /* I =  3 */
(PID.TID 0000.0001)      . . .
(PID.TID 0000.0001)                 1.942331448101592E+05,      /* I = 94 */
(PID.TID 0000.0001)                 1.701080315742101E+05,      /* I = 95 */
(PID.TID 0000.0001)                 1.362652340208229E+05,      /* I = 96 */
(PID.TID 0000.0001)                 3.013031486919771E+05,      /* I = 97 */
(PID.TID 0000.0001)                 3.015274890091515E+05,      /* I = 98 */
(PID.TID 0000.0001)                 3.021908563699420E+05,      /* I = 99 */
(PID.TID 0000.0001)      . . .
(PID.TID 0000.0001)                 3.032648502024415E+05,      /* I =190 */
(PID.TID 0000.0001)                 3.021908563699420E+05,      /* I =191 */
(PID.TID 0000.0001)                 3.015274890091515E+05,      /* I =192 */
(PID.TID 0000.0001)                 8.015229982413632E+04,      /* I =193 */
(PID.TID 0000.0001)                 1.362652340208229E+05,      /* I =194 */
(PID.TID 0000.0001)                 1.701080315742101E+05,      /* I =195 */
(PID.TID 0000.0001)      . . .
(PID.TID 0000.0001)                 1.942331448101592E+05,      /* I =286 */
(PID.TID 0000.0001)                 1.701080315742101E+05,      /* I =287 */
(PID.TID 0000.0001)                 1.362652340208229E+05,      /* I =288 */
(PID.TID 0000.0001)                 3.013031486919771E+05,      /* I =289 */
(PID.TID 0000.0001)                 3.015274890091515E+05,      /* I =290 */
(PID.TID 0000.0001)                 3.021908563699420E+05,      /* I =291 */
(PID.TID 0000.0001)      . . .
(PID.TID 0000.0001)                 3.032648502024415E+05,      /* I =382 */
(PID.TID 0000.0001)                 3.021908563699420E+05,      /* I =383 */
(PID.TID 0000.0001)                 3.015274890091515E+05       /* I =384 */
(PID.TID 0000.0001)     ;
(PID.TID 0000.0001) dyU =  /* dyU(1,:,1,:) ( units: m ) */
(PID.TID 0000.0001)                 8.015229982413632E+04,      /* J =  1 */
(PID.TID 0000.0001)                 1.333130744933864E+05,      /* J =  2 */
(PID.TID 0000.0001)                 1.691744868129062E+05,      /* J =  3 */
(PID.TID 0000.0001)                 1.937548202849060E+05,      /* J =  4 */
(PID.TID 0000.0001)                 2.130490056267208E+05,      /* J =  5 */
(PID.TID 0000.0001)                 2.290479919481738E+05,      /* J =  6 */
(PID.TID 0000.0001)                 2.426774358027003E+05,      /* J =  7 */
(PID.TID 0000.0001)                 2.544372984215561E+05,      /* J =  8 */
(PID.TID 0000.0001)                 2.646201463834826E+05,      /* J =  9 */
(PID.TID 0000.0001)                 2.734046499619031E+05,      /* J = 10 */
(PID.TID 0000.0001)                 2.809019351693761E+05,      /* J = 11 */
(PID.TID 0000.0001)                 2.871811105274442E+05,      /* J = 12 */
(PID.TID 0000.0001)                 2.922844849381675E+05,      /* J = 13 */
(PID.TID 0000.0001)                 2.962371870847826E+05,      /* J = 14 */
(PID.TID 0000.0001)                 2.990534755671296E+05,      /* J = 15 */
(PID.TID 0000.0001)                 3.007409169495504E+05       /* J = 16 */
(PID.TID 0000.0001)     ;
(PID.TID 0000.0001) rA  =  /* rA (:,1,:,1) ( units: m^2 ) */
(PID.TID 0000.0001)                 1.401900702255611E+10,      /* I =  1 */
(PID.TID 0000.0001)                 2.459906945574446E+10,      /* I =  2 */
(PID.TID 0000.0001)                 3.378518544307869E+10,      /* I =  3 */
(PID.TID 0000.0001)      . . .
(PID.TID 0000.0001)                 3.378518544304265E+10,      /* I = 94 */
(PID.TID 0000.0001)                 2.459906945574446E+10,      /* I = 95 */
(PID.TID 0000.0001)                 1.401900702259215E+10,      /* I = 96 */
(PID.TID 0000.0001)                 9.076111290422060E+10,      /* I = 97 */
(PID.TID 0000.0001)                 9.103111035233499E+10,      /* I = 98 */
(PID.TID 0000.0001)                 9.156064070993231E+10,      /* I = 99 */
(PID.TID 0000.0001)      . . .
(PID.TID 0000.0001)                 9.156064070993231E+10,      /* I =190 */
(PID.TID 0000.0001)                 9.103111035233499E+10,      /* I =191 */
(PID.TID 0000.0001)                 9.076111290418457E+10,      /* I =192 */
(PID.TID 0000.0001)                 1.401900702255611E+10,      /* I =193 */
(PID.TID 0000.0001)                 2.459906945574446E+10,      /* I =194 */
(PID.TID 0000.0001)                 3.378518544307869E+10,      /* I =195 */
(PID.TID 0000.0001)      . . .
(PID.TID 0000.0001)                 3.378518544304265E+10,      /* I =286 */
(PID.TID 0000.0001)                 2.459906945574446E+10,      /* I =287 */
(PID.TID 0000.0001)                 1.401900702259215E+10,      /* I =288 */
(PID.TID 0000.0001)                 9.076111290422060E+10,      /* I =289 */
(PID.TID 0000.0001)                 9.103111035233499E+10,      /* I =290 */
(PID.TID 0000.0001)                 9.156064070993231E+10,      /* I =291 */
(PID.TID 0000.0001)      . . .
(PID.TID 0000.0001)                 9.156064070993231E+10,      /* I =382 */
(PID.TID 0000.0001)                 9.103111035233499E+10,      /* I =383 */
(PID.TID 0000.0001)                 9.076111290418457E+10       /* I =384 */
(PID.TID 0000.0001)     ;
(PID.TID 0000.0001) rA  =  /* rA (1,:,1,:) ( units: m^2 ) */
(PID.TID 0000.0001)                 1.401900702255611E+10,      /* J =  1 */
(PID.TID 0000.0001)                 2.459906945574446E+10,      /* J =  2 */
(PID.TID 0000.0001)                 3.378518544307869E+10,      /* J =  3 */
(PID.TID 0000.0001)                 4.192037169898667E+10,      /* J =  4 */
(PID.TID 0000.0001)                 4.925938996118163E+10,      /* J =  5 */
(PID.TID 0000.0001)                 5.594154126607553E+10,      /* J =  6 */
(PID.TID 0000.0001)                 6.203683527776127E+10,      /* J =  7 */
(PID.TID 0000.0001)                 6.757541173817516E+10,      /* J =  8 */
(PID.TID 0000.0001)                 7.256353271748119E+10,      /* J =  9 */
(PID.TID 0000.0001)                 7.699293007098555E+10,      /* J = 10 */
(PID.TID 0000.0001)                 8.084683449728902E+10,      /* J = 11 */
(PID.TID 0000.0001)                 8.410423102799828E+10,      /* J = 12 */
(PID.TID 0000.0001)                 8.674306976737517E+10,      /* J = 13 */
(PID.TID 0000.0001)                 8.874277443041928E+10,      /* J = 14 */
(PID.TID 0000.0001)                 9.008620045350865E+10,      /* J = 15 */
(PID.TID 0000.0001)                 9.076111290418457E+10       /* J = 16 */
(PID.TID 0000.0001)     ;
(PID.TID 0000.0001) rAw =  /* rAw(:,1,:,1) ( units: m^2 ) */
(PID.TID 0000.0001)                 1.216690346714270E+10,      /* I =  1 */
(PID.TID 0000.0001)                 1.974052138506315E+10,      /* I =  2 */
(PID.TID 0000.0001)                 2.943712825252015E+10,      /* I =  3 */
(PID.TID 0000.0001)      . . .
(PID.TID 0000.0001)                 3.801790263325260E+10,      /* I = 94 */
(PID.TID 0000.0001)                 2.943712825251114E+10,      /* I = 95 */
(PID.TID 0000.0001)                 1.974052138509018E+10,      /* I = 96 */
(PID.TID 0000.0001)                 9.071447638299399E+10,      /* I = 97 */
(PID.TID 0000.0001)                 9.085012105610597E+10,      /* I = 98 */
(PID.TID 0000.0001)                 9.125179254955583E+10,      /* I = 99 */
(PID.TID 0000.0001)      . . .
(PID.TID 0000.0001)                 9.190392048045309E+10,      /* I =190 */
(PID.TID 0000.0001)                 9.125179254954683E+10,      /* I =191 */
(PID.TID 0000.0001)                 9.085012105606993E+10,      /* I =192 */
(PID.TID 0000.0001)                 1.216690346714270E+10,      /* I =193 */
(PID.TID 0000.0001)                 1.974052138506315E+10,      /* I =194 */
(PID.TID 0000.0001)                 2.943712825252015E+10,      /* I =195 */
(PID.TID 0000.0001)      . . .
(PID.TID 0000.0001)                 3.801790263325260E+10,      /* I =286 */
(PID.TID 0000.0001)                 2.943712825251114E+10,      /* I =287 */
(PID.TID 0000.0001)                 1.974052138509018E+10,      /* I =288 */
(PID.TID 0000.0001)                 9.071447638299399E+10,      /* I =289 */
(PID.TID 0000.0001)                 9.085012105610597E+10,      /* I =290 */
(PID.TID 0000.0001)                 9.125179254955583E+10,      /* I =291 */
(PID.TID 0000.0001)      . . .
(PID.TID 0000.0001)                 9.190392048045309E+10,      /* I =382 */
(PID.TID 0000.0001)                 9.125179254954683E+10,      /* I =383 */
(PID.TID 0000.0001)                 9.085012105606993E+10       /* I =384 */
(PID.TID 0000.0001)     ;
(PID.TID 0000.0001) rAw =  /* rAw(1,:,1,:) ( units: m^2 ) */
(PID.TID 0000.0001)                 1.216690346714270E+10,      /* J =  1 */
(PID.TID 0000.0001)                 2.390126200743558E+10,      /* J =  2 */
(PID.TID 0000.0001)                 3.341968103208270E+10,      /* J =  3 */
(PID.TID 0000.0001)                 4.168532893152940E+10,      /* J =  4 */
(PID.TID 0000.0001)                 4.909074590409593E+10,      /* J =  5 */
(PID.TID 0000.0001)                 5.581203765722643E+10,      /* J =  6 */
(PID.TID 0000.0001)                 6.193257577506788E+10,      /* J =  7 */
(PID.TID 0000.0001)                 6.748840226738273E+10,      /* J =  8 */
(PID.TID 0000.0001)                 7.248875782324815E+10,      /* J =  9 */
(PID.TID 0000.0001)                 7.692702995909871E+10,      /* J = 10 */
(PID.TID 0000.0001)                 8.078743937057304E+10,      /* J = 11 */
(PID.TID 0000.0001)                 8.404959656062837E+10,      /* J = 12 */
(PID.TID 0000.0001)                 8.669186205742538E+10,      /* J = 13 */
(PID.TID 0000.0001)                 8.869393350723613E+10,      /* J = 14 */
(PID.TID 0000.0001)                 9.003884657168852E+10,      /* J = 15 */
(PID.TID 0000.0001)                 9.071447638299399E+10       /* J = 16 */
(PID.TID 0000.0001)     ;
(PID.TID 0000.0001) rAs =  /* rAs(:,1,:,1) ( units: m^2 ) */
(PID.TID 0000.0001)                 1.216690346714270E+10,      /* I =  1 */
(PID.TID 0000.0001)                 2.390126200743558E+10,      /* I =  2 */
(PID.TID 0000.0001)                 3.341968103208270E+10,      /* I =  3 */
(PID.TID 0000.0001)      . . .
(PID.TID 0000.0001)                 3.341968103208270E+10,      /* I = 94 */
(PID.TID 0000.0001)                 2.390126200743558E+10,      /* I = 95 */
(PID.TID 0000.0001)                 1.216690346714270E+10,      /* I = 96 */
(PID.TID 0000.0001)                 9.083293515008307E+10,      /* I = 97 */
(PID.TID 0000.0001)                 9.110170898494536E+10,      /* I = 98 */
(PID.TID 0000.0001)                 9.162886297688426E+10,      /* I = 99 */
(PID.TID 0000.0001)      . . .
(PID.TID 0000.0001)                 9.162886297688426E+10,      /* I =190 */
(PID.TID 0000.0001)                 9.110170898494536E+10,      /* I =191 */
(PID.TID 0000.0001)                 9.083293515008307E+10,      /* I =192 */
(PID.TID 0000.0001)                 1.216690346714270E+10,      /* I =193 */
(PID.TID 0000.0001)                 2.390126200743558E+10,      /* I =194 */
(PID.TID 0000.0001)                 3.341968103208270E+10,      /* I =195 */
(PID.TID 0000.0001)      . . .
(PID.TID 0000.0001)                 3.341968103208270E+10,      /* I =286 */
(PID.TID 0000.0001)                 2.390126200743558E+10,      /* I =287 */
(PID.TID 0000.0001)                 1.216690346714270E+10,      /* I =288 */
(PID.TID 0000.0001)                 9.083293515008307E+10,      /* I =289 */
(PID.TID 0000.0001)                 9.110170898494536E+10,      /* I =290 */
(PID.TID 0000.0001)                 9.162886297688426E+10,      /* I =291 */
(PID.TID 0000.0001)      . . .
(PID.TID 0000.0001)                 9.162886297688426E+10,      /* I =382 */
(PID.TID 0000.0001)                 9.110170898494536E+10,      /* I =383 */
(PID.TID 0000.0001)                 9.083293515008307E+10       /* I =384 */
(PID.TID 0000.0001)     ;
(PID.TID 0000.0001) rAs =  /* rAs(1,:,1,:) ( units: m^2 ) */
(PID.TID 0000.0001)                 1.216690346714270E+10,      /* J =  1 */
(PID.TID 0000.0001)                 1.974052138506315E+10,      /* J =  2 */
(PID.TID 0000.0001)                 2.943712825252015E+10,      /* J =  3 */
(PID.TID 0000.0001)                 3.801790263324359E+10,      /* J =  4 */
(PID.TID 0000.0001)                 4.571243814189866E+10,      /* J =  5 */
(PID.TID 0000.0001)                 5.269930713599979E+10,      /* J =  6 */
(PID.TID 0000.0001)                 5.907428494299063E+10,      /* J =  7 */
(PID.TID 0000.0001)                 6.488320895111514E+10,      /* J =  8 */
(PID.TID 0000.0001)                 7.014205907741882E+10,      /* J =  9 */
(PID.TID 0000.0001)                 7.484854821847499E+10,      /* J = 10 */
(PID.TID 0000.0001)                 7.898934631431560E+10,      /* J = 11 */
(PID.TID 0000.0001)                 8.254500894894537E+10,      /* J = 12 */
(PID.TID 0000.0001)                 8.549360686473492E+10,      /* J = 13 */
(PID.TID 0000.0001)                 8.781353403175085E+10,      /* J = 14 */
(PID.TID 0000.0001)                 8.948571540392021E+10,      /* J = 15 */
(PID.TID 0000.0001)                 9.049530583086168E+10       /* J = 16 */
(PID.TID 0000.0001)     ;
(PID.TID 0000.0001) globalArea = /* Integrated horizontal Area (m^2) */
(PID.TID 0000.0001)                 3.638867375081599E+14
(PID.TID 0000.0001)     ;
(PID.TID 0000.0001) hasWetCSCorners = /* Domain contains CS corners (True/False) */
(PID.TID 0000.0001)                   T
(PID.TID 0000.0001)     ;
(PID.TID 0000.0001) // =======================================================
(PID.TID 0000.0001) // End of Model config. summary
(PID.TID 0000.0001) // =======================================================
(PID.TID 0000.0001) 
(PID.TID 0000.0001) == Packages configuration : Check & print summary ==
(PID.TID 0000.0001) 
(PID.TID 0000.0001) GMREDI_CHECK: #define GMREDI
(PID.TID 0000.0001) GM_AdvForm =     /* if FALSE => use SkewFlux Form */
(PID.TID 0000.0001)                   F
(PID.TID 0000.0001)     ;
(PID.TID 0000.0001) GM_InMomAsStress = /* if TRUE => apply as Eddy Stress */
(PID.TID 0000.0001)                   F
(PID.TID 0000.0001)     ;
(PID.TID 0000.0001) GM_AdvSeparate = /* Calc Bolus & Euler Adv. separately */
(PID.TID 0000.0001)                   F
(PID.TID 0000.0001)     ;
(PID.TID 0000.0001) GM_ExtraDiag =   /* Tensor Extra Diag (line 1&2) non 0 */
(PID.TID 0000.0001)                   F
(PID.TID 0000.0001)     ;
(PID.TID 0000.0001) GM_isopycK =    /* Background Isopyc. Diffusivity [m^2/s] */
(PID.TID 0000.0001)                 8.000000000000000E+02
(PID.TID 0000.0001)     ;
(PID.TID 0000.0001) GM_skewflx*K =  /* Background GM_SkewFlx Diffusivity [m^2/s] */
(PID.TID 0000.0001)                 8.000000000000000E+02
(PID.TID 0000.0001)     ;
(PID.TID 0000.0001) GM_advec*K =    /* Backg. GM-Advec(=Bolus) Diffusivity [m^2/s]*/
(PID.TID 0000.0001)                 0.000000000000000E+00
(PID.TID 0000.0001)     ;
(PID.TID 0000.0001) GM_Kmin_horiz = /* Minimum Horizontal Diffusivity [m^2/s] */
(PID.TID 0000.0001)                 5.000000000000000E+01
(PID.TID 0000.0001)     ;
(PID.TID 0000.0001) GM_Visbeck_alpha = /* Visbeck alpha coeff. [-] */
(PID.TID 0000.0001)                 0.000000000000000E+00
(PID.TID 0000.0001)     ;
(PID.TID 0000.0001) GM_Small_Number =  /* epsilon used in slope calc */
(PID.TID 0000.0001)                 9.999999999999999E-21
(PID.TID 0000.0001)     ;
(PID.TID 0000.0001) GM_slopeSqCutoff = /* Slope^2 cut-off value */
(PID.TID 0000.0001)                 1.000000000000000E+48
(PID.TID 0000.0001)     ;
(PID.TID 0000.0001) GM_taper_scheme =  /* Type of Tapering/Clipping scheme */
(PID.TID 0000.0001)               'gkw91                                   '
(PID.TID 0000.0001)     ;
(PID.TID 0000.0001) GM_maxSlope =  /* Maximum Slope (Tapering/Clipping) */
(PID.TID 0000.0001)                 1.000000000000000E-02
(PID.TID 0000.0001)     ;
(PID.TID 0000.0001) GM_facTrL2dz = /* Minimum Trans.Layer Thick. (factor of dz) */
(PID.TID 0000.0001)                 1.000000000000000E+00
(PID.TID 0000.0001)     ;
(PID.TID 0000.0001) GM_facTrL2ML = /* Max.Trans.Layer Thick. (factor of MxL Depth)*/
(PID.TID 0000.0001)                 5.000000000000000E+00
(PID.TID 0000.0001)     ;
(PID.TID 0000.0001) GM_maxTransLay = /* Maximum Transition Layer Thickness [m] */
(PID.TID 0000.0001)                 5.000000000000000E+02
(PID.TID 0000.0001)     ;
(PID.TID 0000.0001) GM_UseBVP = /* if TRUE => use bvp a la Ferrari et al. (2010) */
(PID.TID 0000.0001)                   F
(PID.TID 0000.0001)     ;
(PID.TID 0000.0001) GM_BVP_ModeNumber = /* Vertical mode number for BVP wave speed */
(PID.TID 0000.0001)                       1
(PID.TID 0000.0001)     ;
(PID.TID 0000.0001) GM_BVP_cMin = /* Minimum wave speed for BVP [m/s] */
(PID.TID 0000.0001)                 1.000000000000000E-01
(PID.TID 0000.0001)     ;
(PID.TID 0000.0001) GM_useSubMeso = /* if TRUE => use Sub-Meso param. (B.Fox-Kemper) */
(PID.TID 0000.0001)                   F
(PID.TID 0000.0001)     ;
(PID.TID 0000.0001) subMeso_Ceff = /* efficiency coeff. of Mixed-Layer Eddies [-] */
(PID.TID 0000.0001)                 7.000000000000001E-02
(PID.TID 0000.0001)     ;
(PID.TID 0000.0001) subMeso_invTau = /* inverse of Sub-Meso mixing time-scale [/s] */
(PID.TID 0000.0001)                 2.000000000000000E-06
(PID.TID 0000.0001)     ;
(PID.TID 0000.0001) subMeso_LfMin = /* minimum length-scale "Lf" [m] */
(PID.TID 0000.0001)                 1.000000000000000E+03
(PID.TID 0000.0001)     ;
(PID.TID 0000.0001) subMeso_Lmax = /* maximum grid-scale length [m] */
(PID.TID 0000.0001)                 1.100000000000000E+05
(PID.TID 0000.0001)     ;
(PID.TID 0000.0001) GAD_CHECK: #define ALLOW_GENERIC_ADVDIFF
(PID.TID 0000.0001) // =======================================================
(PID.TID 0000.0001) // Check Model config. (CONFIG_CHECK):
(PID.TID 0000.0001) // CONFIG_CHECK : Normal End
(PID.TID 0000.0001) // =======================================================
(PID.TID 0000.0001) 
(PID.TID 0000.0001)  MDS_READ_META: opening file: pickup.0000086400.meta
(PID.TID 0000.0001)  nRecords =   0 ; filePrec =  64 ; fileIter =         0
(PID.TID 0000.0001)     nDims =   0 , dims:
(PID.TID 0000.0001)     nFlds =   0 , nFl3D =   0 , fields:
(PID.TID 0000.0001) missingVal=  1.00000000000000E+00 ; nTimRec =   0 , timeList:
(PID.TID 0000.0001)  MDS_READ_FIELD: opening global file: pickup.0000086400
(PID.TID 0000.0001)  MDS_READ_FIELD: opening global file: pickup.0000086400
(PID.TID 0000.0001)  MDS_READ_FIELD: opening global file: pickup.0000086400
(PID.TID 0000.0001)  MDS_READ_FIELD: opening global file: pickup.0000086400
(PID.TID 0000.0001)  MDS_READ_FIELD: opening global file: pickup.0000086400
(PID.TID 0000.0001)  MDS_READ_FIELD: opening global file: pickup.0000086400
(PID.TID 0000.0001)  MDS_READ_FIELD: opening global file: pickup.0000086400
(PID.TID 0000.0001)  MDS_READ_FIELD: opening global file: pickup.0000086400
(PID.TID 0000.0001)  MDS_READ_FIELD: opening global file: pickup.0000086400
(PID.TID 0000.0001)  MDS_READ_FIELD: opening global file: pickup.0000086400
(PID.TID 0000.0001)  MDS_READ_FIELD: opening global file: pickup_ph.0000086400
(PID.TID 0000.0001)  MDS_READ_FIELD: opening global file: pickup_nh.0000086400
(PID.TID 0000.0001)  MDS_READ_FIELD: opening global file: pickup_nh.0000086400
(PID.TID 0000.0001) READ_MFLDS_CHECK: - normal end ; reset MFLDS file-name: pickup.0000086400
(PID.TID 0000.0001) INI_NH_FIELDS: dPhiNHstatus=   0
(PID.TID 0000.0001)  MDS_READ_FIELD: opening global file: trenberth_taux.bin
(PID.TID 0000.0001)  MDS_READ_FIELD: opening global file: trenberth_tauy.bin
(PID.TID 0000.0001)  MDS_READ_FIELD: opening global file: shiQnet_cs32.bin
(PID.TID 0000.0001)  MDS_READ_FIELD: opening global file: shiEmPR_cs32.bin
(PID.TID 0000.0001)  MDS_READ_FIELD: opening global file: lev_surfT_cs_12m.bin
(PID.TID 0000.0001)  MDS_READ_FIELD: opening global file: lev_surfS_cs_12m.bin
(PID.TID 0000.0001) // =======================================================
(PID.TID 0000.0001) // Model current state
(PID.TID 0000.0001) // =======================================================
(PID.TID 0000.0001) 
(PID.TID 0000.0001) // =======================================================
(PID.TID 0000.0001) // Begin MONITOR dynamic field statistics
(PID.TID 0000.0001) // =======================================================
(PID.TID 0000.0001) %MON time_tsnumber                =                 86400
(PID.TID 0000.0001) %MON time_secondsf                =   3.1104000000000E+08
(PID.TID 0000.0001) %MON dynstat_eta_max              =   9.2249308874653E-01
(PID.TID 0000.0001) %MON dynstat_eta_min              =  -1.6181619580030E+00
(PID.TID 0000.0001) %MON dynstat_eta_mean             =   1.4386344596806E-14
(PID.TID 0000.0001) %MON dynstat_eta_sd               =   5.9907976973986E-01
(PID.TID 0000.0001) %MON dynstat_eta_del2             =   7.8581345364806E-04
(PID.TID 0000.0001) %MON dynstat_uvel_max             =   1.8639442347386E-01
(PID.TID 0000.0001) %MON dynstat_uvel_min             =  -2.8803502100767E-01
(PID.TID 0000.0001) %MON dynstat_uvel_mean            =  -4.8903388680748E-04
(PID.TID 0000.0001) %MON dynstat_uvel_sd              =   1.2021590711450E-02
(PID.TID 0000.0001) %MON dynstat_uvel_del2            =   5.1214215649781E-05
(PID.TID 0000.0001) %MON dynstat_vvel_max             =   1.7346247050018E-01
(PID.TID 0000.0001) %MON dynstat_vvel_min             =  -2.2519444280963E-01
(PID.TID 0000.0001) %MON dynstat_vvel_mean            =  -4.0382876392900E-04
(PID.TID 0000.0001) %MON dynstat_vvel_sd              =   1.2638279102880E-02
(PID.TID 0000.0001) %MON dynstat_vvel_del2            =   5.0639130168720E-05
(PID.TID 0000.0001) %MON dynstat_wvel_max             =   1.0318718393244E-04
(PID.TID 0000.0001) %MON dynstat_wvel_min             =  -2.0420736500850E-04
(PID.TID 0000.0001) %MON dynstat_wvel_mean            =  -7.5426404424407E-23
(PID.TID 0000.0001) %MON dynstat_wvel_sd              =   3.8381177925063E-06
(PID.TID 0000.0001) %MON dynstat_wvel_del2            =   2.6463221806437E-08
(PID.TID 0000.0001) %MON dynstat_theta_max            =   3.0925958904704E+01
(PID.TID 0000.0001) %MON dynstat_theta_min            =  -3.0175293673864E+00
(PID.TID 0000.0001) %MON dynstat_theta_mean           =   3.9089031544422E+00
(PID.TID 0000.0001) %MON dynstat_theta_sd             =   4.5708543369188E+00
(PID.TID 0000.0001) %MON dynstat_theta_del2           =   2.6590891135790E-03
(PID.TID 0000.0001) %MON dynstat_salt_max             =   4.1386265990462E+01
(PID.TID 0000.0001) %MON dynstat_salt_min             =   1.8383410676806E+01
(PID.TID 0000.0001) %MON dynstat_salt_mean            =   3.4772067306802E+01
(PID.TID 0000.0001) %MON dynstat_salt_sd              =   5.3152106676595E-01
(PID.TID 0000.0001) %MON dynstat_salt_del2            =   8.0693627005697E-04
(PID.TID 0000.0001) %MON forcing_qnet_max             =   4.6211611868841E+02
(PID.TID 0000.0001) %MON forcing_qnet_min             =  -2.0410376912710E+02
(PID.TID 0000.0001) %MON forcing_qnet_mean            =  -1.2329247921290E+01
(PID.TID 0000.0001) %MON forcing_qnet_sd              =   1.1327998988989E+02
(PID.TID 0000.0001) %MON forcing_qnet_del2            =   4.4323506322358E-01
(PID.TID 0000.0001) %MON forcing_qsw_max              =   0.0000000000000E+00
(PID.TID 0000.0001) %MON forcing_qsw_min              =   0.0000000000000E+00
(PID.TID 0000.0001) %MON forcing_qsw_mean             =   0.0000000000000E+00
(PID.TID 0000.0001) %MON forcing_qsw_sd               =   0.0000000000000E+00
(PID.TID 0000.0001) %MON forcing_qsw_del2             =   0.0000000000000E+00
(PID.TID 0000.0001) %MON forcing_empmr_max            =   7.6494447208479E-05
(PID.TID 0000.0001) %MON forcing_empmr_min            =  -1.5362614137596E-04
(PID.TID 0000.0001) %MON forcing_empmr_mean           =  -2.7256318706594E-21
(PID.TID 0000.0001) %MON forcing_empmr_sd             =   2.4051723601802E-05
(PID.TID 0000.0001) %MON forcing_empmr_del2           =   1.2276157049243E-07
(PID.TID 0000.0001) %MON forcing_fu_max               =   2.4892781143428E-01
(PID.TID 0000.0001) %MON forcing_fu_min               =  -2.5159107438040E-01
(PID.TID 0000.0001) %MON forcing_fu_mean              =  -3.8956966288612E-03
(PID.TID 0000.0001) %MON forcing_fu_sd                =   6.5480383395885E-02
(PID.TID 0000.0001) %MON forcing_fu_del2              =   2.3114393556995E-04
(PID.TID 0000.0001) %MON forcing_fv_max               =   2.9305960402537E-01
(PID.TID 0000.0001) %MON forcing_fv_min               =  -3.3950131228473E-01
(PID.TID 0000.0001) %MON forcing_fv_mean              =  -1.3743384707768E-02
(PID.TID 0000.0001) %MON forcing_fv_sd                =   7.6816469815204E-02
(PID.TID 0000.0001) %MON forcing_fv_del2              =   2.5671701728584E-04
(PID.TID 0000.0001) %MON advcfl_uvel_max              =   3.4038414834914E-03
(PID.TID 0000.0001) %MON advcfl_vvel_max              =   3.1504102964412E-03
(PID.TID 0000.0001) %MON advcfl_wvel_max              =   2.7741377887947E-03
(PID.TID 0000.0001) %MON advcfl_W_hf_max              =   3.0631104751275E-03
(PID.TID 0000.0001) %MON pe_b_mean                    =   4.7811655460464E-04
(PID.TID 0000.0001) %MON ke_max                       =   4.0700605718919E-02
(PID.TID 0000.0001) %MON ke_mean                      =   1.4067956498214E-04
(PID.TID 0000.0001) %MON ke_vol                       =   1.3398024453628E+18
(PID.TID 0000.0001) %MON vort_r_min                   =  -1.1843904755479E-06
(PID.TID 0000.0001) %MON vort_r_max                   =   1.2148454936551E-06
(PID.TID 0000.0001) %MON vort_a_mean                  =  -2.0549865324846E-05
(PID.TID 0000.0001) %MON vort_a_sd                    =   7.5259517155846E-05
(PID.TID 0000.0001) %MON vort_p_mean                  =  -2.4783522345032E-05
(PID.TID 0000.0001) %MON vort_p_sd                    =   1.2810664012454E-04
(PID.TID 0000.0001) %MON surfExpan_theta_mean         =   3.7930044391615E-08
(PID.TID 0000.0001) %MON surfExpan_salt_mean          =   1.4579525088720E-08
(PID.TID 0000.0001) // =======================================================
(PID.TID 0000.0001) // End MONITOR dynamic field statistics
(PID.TID 0000.0001) // =======================================================
 EXTERNAL_FIELDS_LOAD,     86400 : iP,iLd,i0,i1=   12    0   12    1 ; Wght=  0.5000000000  0.5000000000
 EXTERNAL_FIELDS_LOAD, it=     86400 : Reading new data, i0,i1=   12    1 (prev=   12    0 )
(PID.TID 0000.0001)  MDS_READ_FIELD: opening global file: trenberth_taux.bin
(PID.TID 0000.0001)  MDS_READ_FIELD: opening global file: trenberth_taux.bin
(PID.TID 0000.0001)  MDS_READ_FIELD: opening global file: trenberth_tauy.bin
(PID.TID 0000.0001)  MDS_READ_FIELD: opening global file: trenberth_tauy.bin
(PID.TID 0000.0001)  MDS_READ_FIELD: opening global file: shiQnet_cs32.bin
(PID.TID 0000.0001)  MDS_READ_FIELD: opening global file: shiQnet_cs32.bin
(PID.TID 0000.0001)  MDS_READ_FIELD: opening global file: shiEmPR_cs32.bin
(PID.TID 0000.0001)  MDS_READ_FIELD: opening global file: shiEmPR_cs32.bin
(PID.TID 0000.0001)  MDS_READ_FIELD: opening global file: lev_surfT_cs_12m.bin
(PID.TID 0000.0001)  MDS_READ_FIELD: opening global file: lev_surfT_cs_12m.bin
(PID.TID 0000.0001)  MDS_READ_FIELD: opening global file: lev_surfS_cs_12m.bin
(PID.TID 0000.0001)  MDS_READ_FIELD: opening global file: lev_surfS_cs_12m.bin
(PID.TID 0000.0001) SOLVE_FOR_PRESSURE: putPmEinXvector =    F
(PID.TID 0000.0001) SOLVE_FOR_PRESSURE: zeroPsNH=    F , zeroMeanPnh=    F
(PID.TID 0000.0001) SOLVE_FOR_PRESSURE: oldFreeSurfTerm =    F
 cg2d: Sum(rhs),rhsMax =  -7.75344233261421E-11  4.19041389059266E+00
(PID.TID 0000.0001)      cg2d_init_res =   2.79832461925354E-01
(PID.TID 0000.0001)      cg2d_iters(min,last) =      -1      30
(PID.TID 0000.0001)      cg2d_last_res =   1.35146488551623E-07
 cg3d: Sum(rhs),rhsMax =  -3.61143051864888E-10  1.87733538337176E-03
(PID.TID 0000.0001)      cg3d_init_res =   1.88874023388561E+01
(PID.TID 0000.0001)      cg3d_iters (last) =                 47
(PID.TID 0000.0001)      cg3d_last_res =   6.56276402708581E-10
(PID.TID 0000.0001) // =======================================================
(PID.TID 0000.0001) // Begin MONITOR dynamic field statistics
(PID.TID 0000.0001) // =======================================================
(PID.TID 0000.0001) %MON time_tsnumber                =                 86401
(PID.TID 0000.0001) %MON time_secondsf                =   3.1104360000000E+08
(PID.TID 0000.0001) %MON dynstat_eta_max              =   9.2174140054893E-01
(PID.TID 0000.0001) %MON dynstat_eta_min              =  -1.6168995254766E+00
(PID.TID 0000.0001) %MON dynstat_eta_mean             =   1.4523749989326E-14
(PID.TID 0000.0001) %MON dynstat_eta_sd               =   5.9885262857819E-01
(PID.TID 0000.0001) %MON dynstat_eta_del2             =   7.8368523144489E-04
(PID.TID 0000.0001) %MON dynstat_uvel_max             =   1.8552707636487E-01
(PID.TID 0000.0001) %MON dynstat_uvel_min             =  -2.8727235178964E-01
(PID.TID 0000.0001) %MON dynstat_uvel_mean            =  -4.8857948509678E-04
(PID.TID 0000.0001) %MON dynstat_uvel_sd              =   1.2062089666135E-02
(PID.TID 0000.0001) %MON dynstat_uvel_del2            =   5.2646108626047E-05
(PID.TID 0000.0001) %MON dynstat_vvel_max             =   1.7729465215607E-01
(PID.TID 0000.0001) %MON dynstat_vvel_min             =  -2.2420642205579E-01
(PID.TID 0000.0001) %MON dynstat_vvel_mean            =  -3.9595101409636E-04
(PID.TID 0000.0001) %MON dynstat_vvel_sd              =   1.2667657023399E-02
(PID.TID 0000.0001) %MON dynstat_vvel_del2            =   5.2070320090018E-05
(PID.TID 0000.0001) %MON dynstat_wvel_max             =   1.1251964971281E-04
(PID.TID 0000.0001) %MON dynstat_wvel_min             =  -2.1766727359828E-04
(PID.TID 0000.0001) %MON dynstat_wvel_mean            =   1.7406093328709E-22
(PID.TID 0000.0001) %MON dynstat_wvel_sd              =   3.9591911472161E-06
(PID.TID 0000.0001) %MON dynstat_wvel_del2            =   2.8237048928981E-08
(PID.TID 0000.0001) %MON dynstat_theta_max            =   3.0926564765862E+01
(PID.TID 0000.0001) %MON dynstat_theta_min            =  -3.0190414015845E+00
(PID.TID 0000.0001) %MON dynstat_theta_mean           =   3.9089097611824E+00
(PID.TID 0000.0001) %MON dynstat_theta_sd             =   4.5708518662112E+00
(PID.TID 0000.0001) %MON dynstat_theta_del2           =   2.6589151092324E-03
(PID.TID 0000.0001) %MON dynstat_salt_max             =   4.1386278325955E+01
(PID.TID 0000.0001) %MON dynstat_salt_min             =   1.8383422852880E+01
(PID.TID 0000.0001) %MON dynstat_salt_mean            =   3.4772067372543E+01
(PID.TID 0000.0001) %MON dynstat_salt_sd              =   5.3152100016989E-01
(PID.TID 0000.0001) %MON dynstat_salt_del2            =   8.0700052717296E-04
(PID.TID 0000.0001) %MON forcing_qnet_max             =   4.5344826813507E+02
(PID.TID 0000.0001) %MON forcing_qnet_min             =  -2.1502574251756E+02
(PID.TID 0000.0001) %MON forcing_qnet_mean            =  -1.2145822391644E+01
(PID.TID 0000.0001) %MON forcing_qnet_sd              =   1.1565376981455E+02
(PID.TID 0000.0001) %MON forcing_qnet_del2            =   4.1640148928199E-01
(PID.TID 0000.0001) %MON forcing_qsw_max              =   0.0000000000000E+00
(PID.TID 0000.0001) %MON forcing_qsw_min              =   0.0000000000000E+00
(PID.TID 0000.0001) %MON forcing_qsw_mean             =   0.0000000000000E+00
(PID.TID 0000.0001) %MON forcing_qsw_sd               =   0.0000000000000E+00
(PID.TID 0000.0001) %MON forcing_qsw_del2             =   0.0000000000000E+00
(PID.TID 0000.0001) %MON forcing_empmr_max            =   7.6494447208479E-05
(PID.TID 0000.0001) %MON forcing_empmr_min            =  -1.5362614137596E-04
(PID.TID 0000.0001) %MON forcing_empmr_mean           =  -2.7256318706594E-21
(PID.TID 0000.0001) %MON forcing_empmr_sd             =   2.4051723601802E-05
(PID.TID 0000.0001) %MON forcing_empmr_del2           =   1.2276157049243E-07
(PID.TID 0000.0001) %MON forcing_fu_max               =   2.4760613571392E-01
(PID.TID 0000.0001) %MON forcing_fu_min               =  -2.0293190974520E-01
(PID.TID 0000.0001) %MON forcing_fu_mean              =  -4.5478806648627E-03
(PID.TID 0000.0001) %MON forcing_fu_sd                =   6.3937396831278E-02
(PID.TID 0000.0001) %MON forcing_fu_del2              =   2.0509729664672E-04
(PID.TID 0000.0001) %MON forcing_fv_max               =   2.5281098043587E-01
(PID.TID 0000.0001) %MON forcing_fv_min               =  -3.2691992401999E-01
(PID.TID 0000.0001) %MON forcing_fv_mean              =  -1.3684501518858E-02
(PID.TID 0000.0001) %MON forcing_fv_sd                =   7.5153512230531E-02
(PID.TID 0000.0001) %MON forcing_fv_del2              =   2.3373863441584E-04
(PID.TID 0000.0001) %MON advcfl_uvel_max              =   3.3948286727803E-03
(PID.TID 0000.0001) %MON advcfl_vvel_max              =   3.2200100462415E-03
(PID.TID 0000.0001) %MON advcfl_wvel_max              =   2.9569893771842E-03
(PID.TID 0000.0001) %MON advcfl_W_hf_max              =   3.2650091039743E-03
(PID.TID 0000.0001) %MON pe_b_mean                    =   4.7775406744593E-04
(PID.TID 0000.0001) %MON ke_max                       =   4.0375838923070E-02
(PID.TID 0000.0001) %MON ke_mean                      =   1.4146930431445E-04
(PID.TID 0000.0001) %MON ke_vol                       =   1.3398024453628E+18
(PID.TID 0000.0001) %MON vort_r_min                   =  -1.2462230082656E-06
(PID.TID 0000.0001) %MON vort_r_max                   =   1.2822208059404E-06
(PID.TID 0000.0001) %MON vort_a_mean                  =  -2.0549865324846E-05
(PID.TID 0000.0001) %MON vort_a_sd                    =   7.5259516607307E-05
(PID.TID 0000.0001) %MON vort_p_mean                  =  -2.4783522345032E-05
(PID.TID 0000.0001) %MON vort_p_sd                    =   1.2810657888782E-04
(PID.TID 0000.0001) %MON surfExpan_theta_mean         =  -4.0440712669762E-07
(PID.TID 0000.0001) %MON surfExpan_salt_mean          =  -1.6997200568755E-08
(PID.TID 0000.0001) // =======================================================
(PID.TID 0000.0001) // End MONITOR dynamic field statistics
(PID.TID 0000.0001) // =======================================================
 EXTERNAL_FIELDS_LOAD,     86401 : iP,iLd,i0,i1=   12    1   12    1 ; Wght=  0.4986111111  0.5013888889
 cg2d: Sum(rhs),rhsMax =  -7.77617970015854E-11  4.19857267678589E+00
(PID.TID 0000.0001)      cg2d_init_res =   1.77286385218507E-01
(PID.TID 0000.0001)      cg2d_iters(min,last) =      -1      31
(PID.TID 0000.0001)      cg2d_last_res =   1.33467491649497E-07
 cg3d: Sum(rhs),rhsMax =   9.57171644367012E-10  1.15496600208431E-03
(PID.TID 0000.0001)      cg3d_init_res =   1.21872098734143E+01
(PID.TID 0000.0001)      cg3d_iters (last) =                 45
(PID.TID 0000.0001)      cg3d_last_res =   7.26246224769445E-10
(PID.TID 0000.0001) // =======================================================
(PID.TID 0000.0001) // Begin MONITOR dynamic field statistics
(PID.TID 0000.0001) // =======================================================
(PID.TID 0000.0001) %MON time_tsnumber                =                 86402
(PID.TID 0000.0001) %MON time_secondsf                =   3.1104720000000E+08
(PID.TID 0000.0001) %MON dynstat_eta_max              =   9.2142869406741E-01
(PID.TID 0000.0001) %MON dynstat_eta_min              =  -1.6144278157611E+00
(PID.TID 0000.0001) %MON dynstat_eta_mean             =   1.4276420282791E-14
(PID.TID 0000.0001) %MON dynstat_eta_sd               =   5.9839418651515E-01
(PID.TID 0000.0001) %MON dynstat_eta_del2             =   7.8475563931735E-04
(PID.TID 0000.0001) %MON dynstat_uvel_max             =   1.8481121912602E-01
(PID.TID 0000.0001) %MON dynstat_uvel_min             =  -2.8804398435613E-01
(PID.TID 0000.0001) %MON dynstat_uvel_mean            =  -4.8690773516436E-04
(PID.TID 0000.0001) %MON dynstat_uvel_sd              =   1.2093007309812E-02
(PID.TID 0000.0001) %MON dynstat_uvel_del2            =   5.3545643419069E-05
(PID.TID 0000.0001) %MON dynstat_vvel_max             =   1.7968816744162E-01
(PID.TID 0000.0001) %MON dynstat_vvel_min             =  -2.2486876920479E-01
(PID.TID 0000.0001) %MON dynstat_vvel_mean            =  -3.9656109831112E-04
(PID.TID 0000.0001) %MON dynstat_vvel_sd              =   1.2716306752692E-02
(PID.TID 0000.0001) %MON dynstat_vvel_del2            =   5.2968684395125E-05
(PID.TID 0000.0001) %MON dynstat_wvel_max             =   1.1987585544615E-04
(PID.TID 0000.0001) %MON dynstat_wvel_min             =  -2.2485676127453E-04
(PID.TID 0000.0001) %MON dynstat_wvel_mean            =   5.2218279986128E-23
(PID.TID 0000.0001) %MON dynstat_wvel_sd              =   4.0550509454802E-06
(PID.TID 0000.0001) %MON dynstat_wvel_del2            =   2.9539855403209E-08
(PID.TID 0000.0001) %MON dynstat_theta_max            =   3.0927209254576E+01
(PID.TID 0000.0001) %MON dynstat_theta_min            =  -3.0206595791144E+00
(PID.TID 0000.0001) %MON dynstat_theta_mean           =   3.9089133872166E+00
(PID.TID 0000.0001) %MON dynstat_theta_sd             =   4.5708543943734E+00
(PID.TID 0000.0001) %MON dynstat_theta_del2           =   2.6589680192694E-03
(PID.TID 0000.0001) %MON dynstat_salt_max             =   4.1386300813595E+01
(PID.TID 0000.0001) %MON dynstat_salt_min             =   1.8383434423335E+01
(PID.TID 0000.0001) %MON dynstat_salt_mean            =   3.4772067476278E+01
(PID.TID 0000.0001) %MON dynstat_salt_sd              =   5.3152100067165E-01
(PID.TID 0000.0001) %MON dynstat_salt_del2            =   8.0703179621119E-04
(PID.TID 0000.0001) %MON forcing_qnet_max             =   4.5344433226140E+02
(PID.TID 0000.0001) %MON forcing_qnet_min             =  -2.1498522776812E+02
(PID.TID 0000.0001) %MON forcing_qnet_mean            =  -1.2146331907004E+01
(PID.TID 0000.0001) %MON forcing_qnet_sd              =   1.1564509800226E+02
(PID.TID 0000.0001) %MON forcing_qnet_del2            =   4.1643967163010E-01
(PID.TID 0000.0001) %MON forcing_qsw_max              =   0.0000000000000E+00
(PID.TID 0000.0001) %MON forcing_qsw_min              =   0.0000000000000E+00
(PID.TID 0000.0001) %MON forcing_qsw_mean             =   0.0000000000000E+00
(PID.TID 0000.0001) %MON forcing_qsw_sd               =   0.0000000000000E+00
(PID.TID 0000.0001) %MON forcing_qsw_del2             =   0.0000000000000E+00
(PID.TID 0000.0001) %MON forcing_empmr_max            =   7.6494447208479E-05
(PID.TID 0000.0001) %MON forcing_empmr_min            =  -1.5362614137596E-04
(PID.TID 0000.0001) %MON forcing_empmr_mean           =  -2.7256318706594E-21
(PID.TID 0000.0001) %MON forcing_empmr_sd             =   2.4051723601802E-05
(PID.TID 0000.0001) %MON forcing_empmr_del2           =   1.2276157049243E-07
(PID.TID 0000.0001) %MON forcing_fu_max               =   2.4760413366100E-01
(PID.TID 0000.0001) %MON forcing_fu_min               =  -2.0306298460596E-01
(PID.TID 0000.0001) %MON forcing_fu_mean              =  -4.5460690425405E-03
(PID.TID 0000.0001) %MON forcing_fu_sd                =   6.3937534883042E-02
(PID.TID 0000.0001) %MON forcing_fu_del2              =   2.0509875313888E-04
(PID.TID 0000.0001) %MON forcing_fv_max               =   2.5292278216807E-01
(PID.TID 0000.0001) %MON forcing_fv_min               =  -3.2695275335057E-01
(PID.TID 0000.0001) %MON forcing_fv_mean              =  -1.3684665083271E-02
(PID.TID 0000.0001) %MON forcing_fv_sd                =   7.5154948394995E-02
(PID.TID 0000.0001) %MON forcing_fv_del2              =   2.3374220081508E-04
(PID.TID 0000.0001) %MON advcfl_uvel_max              =   3.4039474074767E-03
(PID.TID 0000.0001) %MON advcfl_vvel_max              =   3.2634808626006E-03
(PID.TID 0000.0001) %MON advcfl_wvel_max              =   3.0546578890125E-03
(PID.TID 0000.0001) %MON advcfl_W_hf_max              =   3.3728514191180E-03
(PID.TID 0000.0001) %MON pe_b_mean                    =   4.7702287344177E-04
(PID.TID 0000.0001) %MON ke_max                       =   4.0516484666411E-02
(PID.TID 0000.0001) %MON ke_mean                      =   1.4238478500079E-04
(PID.TID 0000.0001) %MON ke_vol                       =   1.3398024453628E+18
(PID.TID 0000.0001) %MON vort_r_min                   =  -1.2894660381652E-06
(PID.TID 0000.0001) %MON vort_r_max                   =   1.3295521498707E-06
(PID.TID 0000.0001) %MON vort_a_mean                  =  -2.0549865324846E-05
(PID.TID 0000.0001) %MON vort_a_sd                    =   7.5259518325930E-05
(PID.TID 0000.0001) %MON vort_p_mean                  =  -2.4783522345032E-05
(PID.TID 0000.0001) %MON vort_p_sd                    =   1.2810655504774E-04
(PID.TID 0000.0001) %MON surfExpan_theta_mean         =  -9.0172655512596E-07
(PID.TID 0000.0001) %MON surfExpan_salt_mean          =  -5.2682022482663E-08
(PID.TID 0000.0001) // =======================================================
(PID.TID 0000.0001) // End MONITOR dynamic field statistics
(PID.TID 0000.0001) // =======================================================
 EXTERNAL_FIELDS_LOAD,     86402 : iP,iLd,i0,i1=   12    1   12    1 ; Wght=  0.4972222222  0.5027777778
 cg2d: Sum(rhs),rhsMax =  -7.79891706770286E-11  4.20166902132089E+00
(PID.TID 0000.0001)      cg2d_init_res =   1.40042547661740E-01
(PID.TID 0000.0001)      cg2d_iters(min,last) =      -1      30
(PID.TID 0000.0001)      cg2d_last_res =   1.65336283089454E-07
 cg3d: Sum(rhs),rhsMax =   2.55266218140418E-09  1.16179321528286E-03
(PID.TID 0000.0001)      cg3d_init_res =   7.95954557824985E-01
(PID.TID 0000.0001)      cg3d_iters (last) =                 33
(PID.TID 0000.0001)      cg3d_last_res =   9.63020187644342E-10
(PID.TID 0000.0001) // =======================================================
(PID.TID 0000.0001) // Begin MONITOR dynamic field statistics
(PID.TID 0000.0001) // =======================================================
(PID.TID 0000.0001) %MON time_tsnumber                =                 86403
(PID.TID 0000.0001) %MON time_secondsf                =   3.1105080000000E+08
(PID.TID 0000.0001) %MON dynstat_eta_max              =   9.2134357204186E-01
(PID.TID 0000.0001) %MON dynstat_eta_min              =  -1.6117508158933E+00
(PID.TID 0000.0001) %MON dynstat_eta_mean             =   1.4441306753814E-14
(PID.TID 0000.0001) %MON dynstat_eta_sd               =   5.9789636033012E-01
(PID.TID 0000.0001) %MON dynstat_eta_del2             =   7.8640618497631E-04
(PID.TID 0000.0001) %MON dynstat_uvel_max             =   1.8530781448559E-01
(PID.TID 0000.0001) %MON dynstat_uvel_min             =  -2.8878181326849E-01
(PID.TID 0000.0001) %MON dynstat_uvel_mean            =  -4.8403677339340E-04
(PID.TID 0000.0001) %MON dynstat_uvel_sd              =   1.2150790500566E-02
(PID.TID 0000.0001) %MON dynstat_uvel_del2            =   5.4408129995778E-05
(PID.TID 0000.0001) %MON dynstat_vvel_max             =   1.8110025954694E-01
(PID.TID 0000.0001) %MON dynstat_vvel_min             =  -2.2552240406952E-01
(PID.TID 0000.0001) %MON dynstat_vvel_mean            =  -3.9783890679559E-04
(PID.TID 0000.0001) %MON dynstat_vvel_sd              =   1.2785964715047E-02
(PID.TID 0000.0001) %MON dynstat_vvel_del2            =   5.3837736256400E-05
(PID.TID 0000.0001) %MON dynstat_wvel_max             =   1.2729844934414E-04
(PID.TID 0000.0001) %MON dynstat_wvel_min             =  -2.3116747707948E-04
(PID.TID 0000.0001) %MON dynstat_wvel_mean            =   1.1023859108183E-22
(PID.TID 0000.0001) %MON dynstat_wvel_sd              =   4.1727489236964E-06
(PID.TID 0000.0001) %MON dynstat_wvel_del2            =   3.1016119596767E-08
(PID.TID 0000.0001) %MON dynstat_theta_max            =   3.0927862462829E+01
(PID.TID 0000.0001) %MON dynstat_theta_min            =  -3.0224600451784E+00
(PID.TID 0000.0001) %MON dynstat_theta_mean           =   3.9089169383936E+00
(PID.TID 0000.0001) %MON dynstat_theta_sd             =   4.5708570028499E+00
(PID.TID 0000.0001) %MON dynstat_theta_del2           =   2.6590222406848E-03
(PID.TID 0000.0001) %MON dynstat_salt_max             =   4.1386326395357E+01
(PID.TID 0000.0001) %MON dynstat_salt_min             =   1.8383445995234E+01
(PID.TID 0000.0001) %MON dynstat_salt_mean            =   3.4772067562350E+01
(PID.TID 0000.0001) %MON dynstat_salt_sd              =   5.3152102102616E-01
(PID.TID 0000.0001) %MON dynstat_salt_del2            =   8.0706074561305E-04
(PID.TID 0000.0001) %MON forcing_qnet_max             =   4.5344039638774E+02
(PID.TID 0000.0001) %MON forcing_qnet_min             =  -2.1494471301868E+02
(PID.TID 0000.0001) %MON forcing_qnet_mean            =  -1.2146841422365E+01
(PID.TID 0000.0001) %MON forcing_qnet_sd              =   1.1563643749311E+02
(PID.TID 0000.0001) %MON forcing_qnet_del2            =   4.1647806634485E-01
(PID.TID 0000.0001) %MON forcing_qsw_max              =   0.0000000000000E+00
(PID.TID 0000.0001) %MON forcing_qsw_min              =   0.0000000000000E+00
(PID.TID 0000.0001) %MON forcing_qsw_mean             =   0.0000000000000E+00
(PID.TID 0000.0001) %MON forcing_qsw_sd               =   0.0000000000000E+00
(PID.TID 0000.0001) %MON forcing_qsw_del2             =   0.0000000000000E+00
(PID.TID 0000.0001) %MON forcing_empmr_max            =   7.6494447208479E-05
(PID.TID 0000.0001) %MON forcing_empmr_min            =  -1.5362614137596E-04
(PID.TID 0000.0001) %MON forcing_empmr_mean           =  -2.7256318706594E-21
(PID.TID 0000.0001) %MON forcing_empmr_sd             =   2.4051723601802E-05
(PID.TID 0000.0001) %MON forcing_empmr_del2           =   1.2276157049243E-07
(PID.TID 0000.0001) %MON forcing_fu_max               =   2.4760213160807E-01
(PID.TID 0000.0001) %MON forcing_fu_min               =  -2.0319405946673E-01
(PID.TID 0000.0001) %MON forcing_fu_mean              =  -4.5442574202183E-03
(PID.TID 0000.0001) %MON forcing_fu_sd                =   6.3937696331280E-02
(PID.TID 0000.0001) %MON forcing_fu_del2              =   2.0510063016854E-04
(PID.TID 0000.0001) %MON forcing_fv_max               =   2.5303458390026E-01
(PID.TID 0000.0001) %MON forcing_fv_min               =  -3.2698558268115E-01
(PID.TID 0000.0001) %MON forcing_fv_mean              =  -1.3684828647685E-02
(PID.TID 0000.0001) %MON forcing_fv_sd                =   7.5156402549460E-02
(PID.TID 0000.0001) %MON forcing_fv_del2              =   2.3374612035140E-04
(PID.TID 0000.0001) %MON advcfl_uvel_max              =   3.4126666689429E-03
(PID.TID 0000.0001) %MON advcfl_vvel_max              =   3.2891271565528E-03
(PID.TID 0000.0001) %MON advcfl_wvel_max              =   3.1403883678722E-03
(PID.TID 0000.0001) %MON advcfl_W_hf_max              =   3.4675121561922E-03
(PID.TID 0000.0001) %MON pe_b_mean                    =   4.7622949776827E-04
(PID.TID 0000.0001) %MON ke_max                       =   4.0649568044444E-02
(PID.TID 0000.0001) %MON ke_mean                      =   1.4385172744842E-04
(PID.TID 0000.0001) %MON ke_vol                       =   1.3398024453628E+18
(PID.TID 0000.0001) %MON vort_r_min                   =  -1.3290533932789E-06
(PID.TID 0000.0001) %MON vort_r_max                   =   1.3709873028625E-06
(PID.TID 0000.0001) %MON vort_a_mean                  =  -2.0549865324846E-05
(PID.TID 0000.0001) %MON vort_a_sd                    =   7.5259521896550E-05
(PID.TID 0000.0001) %MON vort_p_mean                  =  -2.4783522345032E-05
(PID.TID 0000.0001) %MON vort_p_sd                    =   1.2810654960652E-04
(PID.TID 0000.0001) %MON surfExpan_theta_mean         =  -1.0435844486723E-06
(PID.TID 0000.0001) %MON surfExpan_salt_mean          =  -5.5171976730779E-08
(PID.TID 0000.0001) // =======================================================
(PID.TID 0000.0001) // End MONITOR dynamic field statistics
(PID.TID 0000.0001) // =======================================================
 EXTERNAL_FIELDS_LOAD,     86403 : iP,iLd,i0,i1=   12    1   12    1 ; Wght=  0.4958333333  0.5041666667
 cg2d: Sum(rhs),rhsMax =  -7.59428075980395E-11  4.20409275418615E+00
(PID.TID 0000.0001)      cg2d_init_res =   1.24644936308987E-01
(PID.TID 0000.0001)      cg2d_iters(min,last) =      -1      29
(PID.TID 0000.0001)      cg2d_last_res =   1.74579664724914E-07
 cg3d: Sum(rhs),rhsMax =   6.89381531149128E-10  1.16585373136348E-03
(PID.TID 0000.0001)      cg3d_init_res =   7.24331122244162E-01
(PID.TID 0000.0001)      cg3d_iters (last) =                 35
(PID.TID 0000.0001)      cg3d_last_res =   7.39336306809317E-10
(PID.TID 0000.0001) // =======================================================
(PID.TID 0000.0001) // Begin MONITOR dynamic field statistics
(PID.TID 0000.0001) // =======================================================
(PID.TID 0000.0001) %MON time_tsnumber                =                 86404
(PID.TID 0000.0001) %MON time_secondsf                =   3.1105440000000E+08
(PID.TID 0000.0001) %MON dynstat_eta_max              =   9.2140115948940E-01
(PID.TID 0000.0001) %MON dynstat_eta_min              =  -1.6098650455163E+00
(PID.TID 0000.0001) %MON dynstat_eta_mean             =   1.4139014890271E-14
(PID.TID 0000.0001) %MON dynstat_eta_sd               =   5.9750068746320E-01
(PID.TID 0000.0001) %MON dynstat_eta_del2             =   7.8823075915060E-04
(PID.TID 0000.0001) %MON dynstat_uvel_max             =   1.8615211266630E-01
(PID.TID 0000.0001) %MON dynstat_uvel_min             =  -2.8948602564280E-01
(PID.TID 0000.0001) %MON dynstat_uvel_mean            =  -4.8056906433772E-04
(PID.TID 0000.0001) %MON dynstat_uvel_sd              =   1.2217907312941E-02
(PID.TID 0000.0001) %MON dynstat_uvel_del2            =   5.5259228491942E-05
(PID.TID 0000.0001) %MON dynstat_vvel_max             =   1.8172421260060E-01
(PID.TID 0000.0001) %MON dynstat_vvel_min             =  -2.2616611483184E-01
(PID.TID 0000.0001) %MON dynstat_vvel_mean            =  -3.9874865063491E-04
(PID.TID 0000.0001) %MON dynstat_vvel_sd              =   1.2858701377919E-02
(PID.TID 0000.0001) %MON dynstat_vvel_del2            =   5.4695714057172E-05
(PID.TID 0000.0001) %MON dynstat_wvel_max             =   1.3499364910485E-04
(PID.TID 0000.0001) %MON dynstat_wvel_min             =  -2.3685511938680E-04
(PID.TID 0000.0001) %MON dynstat_wvel_mean            =  -1.7406093328709E-22
(PID.TID 0000.0001) %MON dynstat_wvel_sd              =   4.3166077047370E-06
(PID.TID 0000.0001) %MON dynstat_wvel_del2            =   3.2683708092087E-08
(PID.TID 0000.0001) %MON dynstat_theta_max            =   3.0928532539554E+01
(PID.TID 0000.0001) %MON dynstat_theta_min            =  -3.0243589536142E+00
(PID.TID 0000.0001) %MON dynstat_theta_mean           =   3.9089201881897E+00
(PID.TID 0000.0001) %MON dynstat_theta_sd             =   4.5708593980510E+00
(PID.TID 0000.0001) %MON dynstat_theta_del2           =   2.6591443542712E-03
(PID.TID 0000.0001) %MON dynstat_salt_max             =   4.1386355802720E+01
(PID.TID 0000.0001) %MON dynstat_salt_min             =   1.8383457813310E+01
(PID.TID 0000.0001) %MON dynstat_salt_mean            =   3.4772067618456E+01
(PID.TID 0000.0001) %MON dynstat_salt_sd              =   5.3152103190767E-01
(PID.TID 0000.0001) %MON dynstat_salt_del2            =   8.0711398831479E-04
(PID.TID 0000.0001) %MON forcing_qnet_max             =   4.5343646051408E+02
(PID.TID 0000.0001) %MON forcing_qnet_min             =  -2.1490419826924E+02
(PID.TID 0000.0001) %MON forcing_qnet_mean            =  -1.2147350937725E+01
(PID.TID 0000.0001) %MON forcing_qnet_sd              =   1.1562778828962E+02
(PID.TID 0000.0001) %MON forcing_qnet_del2            =   4.1651667336750E-01
(PID.TID 0000.0001) %MON forcing_qsw_max              =   0.0000000000000E+00
(PID.TID 0000.0001) %MON forcing_qsw_min              =   0.0000000000000E+00
(PID.TID 0000.0001) %MON forcing_qsw_mean             =   0.0000000000000E+00
(PID.TID 0000.0001) %MON forcing_qsw_sd               =   0.0000000000000E+00
(PID.TID 0000.0001) %MON forcing_qsw_del2             =   0.0000000000000E+00
(PID.TID 0000.0001) %MON forcing_empmr_max            =   7.6494447208479E-05
(PID.TID 0000.0001) %MON forcing_empmr_min            =  -1.5362614137596E-04
(PID.TID 0000.0001) %MON forcing_empmr_mean           =  -2.7256318706594E-21
(PID.TID 0000.0001) %MON forcing_empmr_sd             =   2.4051723601802E-05
(PID.TID 0000.0001) %MON forcing_empmr_del2           =   1.2276157049243E-07
(PID.TID 0000.0001) %MON forcing_fu_max               =   2.4760012955515E-01
(PID.TID 0000.0001) %MON forcing_fu_min               =  -2.0332513432749E-01
(PID.TID 0000.0001) %MON forcing_fu_mean              =  -4.5424457978961E-03
(PID.TID 0000.0001) %MON forcing_fu_sd                =   6.3937881175813E-02
(PID.TID 0000.0001) %MON forcing_fu_del2              =   2.0510292772416E-04
(PID.TID 0000.0001) %MON forcing_fv_max               =   2.5314638563245E-01
(PID.TID 0000.0001) %MON forcing_fv_min               =  -3.2701841201173E-01
(PID.TID 0000.0001) %MON forcing_fv_mean              =  -1.3684992212099E-02
(PID.TID 0000.0001) %MON forcing_fv_sd                =   7.5157874692883E-02
(PID.TID 0000.0001) %MON forcing_fv_del2              =   2.3375039300706E-04
(PID.TID 0000.0001) %MON advcfl_uvel_max              =   3.4209886684154E-03
(PID.TID 0000.0001) %MON advcfl_vvel_max              =   3.3004593376238E-03
(PID.TID 0000.0001) %MON advcfl_wvel_max              =   3.2176544520471E-03
(PID.TID 0000.0001) %MON advcfl_W_hf_max              =   3.5528267908020E-03
(PID.TID 0000.0001) %MON pe_b_mean                    =   4.7559939277451E-04
(PID.TID 0000.0001) %MON ke_max                       =   4.0777535223956E-02
(PID.TID 0000.0001) %MON ke_mean                      =   1.4546734297217E-04
(PID.TID 0000.0001) %MON ke_vol                       =   1.3398024453628E+18
(PID.TID 0000.0001) %MON vort_r_min                   =  -1.3650269094085E-06
(PID.TID 0000.0001) %MON vort_r_max                   =   1.4087850499428E-06
(PID.TID 0000.0001) %MON vort_a_mean                  =  -2.0549865324846E-05
(PID.TID 0000.0001) %MON vort_a_sd                    =   7.5259525295313E-05
(PID.TID 0000.0001) %MON vort_p_mean                  =  -2.4783522345032E-05
(PID.TID 0000.0001) %MON vort_p_sd                    =   1.2810655268988E-04
(PID.TID 0000.0001) %MON surfExpan_theta_mean         =  -9.0548241023222E-07
(PID.TID 0000.0001) %MON surfExpan_salt_mean          =  -3.7187953661830E-08
(PID.TID 0000.0001) // =======================================================
(PID.TID 0000.0001) // End MONITOR dynamic field statistics
(PID.TID 0000.0001) // =======================================================
 EXTERNAL_FIELDS_LOAD,     86404 : iP,iLd,i0,i1=   12    1   12    1 ; Wght=  0.4944444444  0.5055555556
 cg2d: Sum(rhs),rhsMax =  -7.75344233261421E-11  4.20822743515689E+00
(PID.TID 0000.0001)      cg2d_init_res =   1.17170517187526E-01
(PID.TID 0000.0001)      cg2d_iters(min,last) =      -1      29
(PID.TID 0000.0001)      cg2d_last_res =   1.71563715573327E-07
 cg3d: Sum(rhs),rhsMax =   2.95016273876272E-09  1.17470104648677E-03
(PID.TID 0000.0001)      cg3d_init_res =   6.81727750021638E-01
(PID.TID 0000.0001)      cg3d_iters (last) =                 35
(PID.TID 0000.0001)      cg3d_last_res =   6.71762823789202E-10
(PID.TID 0000.0001) // =======================================================
(PID.TID 0000.0001) // Begin MONITOR dynamic field statistics
(PID.TID 0000.0001) // =======================================================
(PID.TID 0000.0001) %MON time_tsnumber                =                 86405
(PID.TID 0000.0001) %MON time_secondsf                =   3.1105800000000E+08
(PID.TID 0000.0001) %MON dynstat_eta_max              =   9.2165554473707E-01
(PID.TID 0000.0001) %MON dynstat_eta_min              =  -1.6090385404533E+00
(PID.TID 0000.0001) %MON dynstat_eta_mean             =   1.4221458125783E-14
(PID.TID 0000.0001) %MON dynstat_eta_sd               =   5.9726529409504E-01
(PID.TID 0000.0001) %MON dynstat_eta_del2             =   7.9011196892872E-04
(PID.TID 0000.0001) %MON dynstat_uvel_max             =   1.8879701794632E-01
(PID.TID 0000.0001) %MON dynstat_uvel_min             =  -2.9016044160569E-01
(PID.TID 0000.0001) %MON dynstat_uvel_mean            =  -4.7795818162200E-04
(PID.TID 0000.0001) %MON dynstat_uvel_sd              =   1.2286596347388E-02
(PID.TID 0000.0001) %MON dynstat_uvel_del2            =   5.6100010218182E-05
(PID.TID 0000.0001) %MON dynstat_vvel_max             =   1.8152753849359E-01
(PID.TID 0000.0001) %MON dynstat_vvel_min             =  -2.2679932696077E-01
(PID.TID 0000.0001) %MON dynstat_vvel_mean            =  -3.9845401800822E-04
(PID.TID 0000.0001) %MON dynstat_vvel_sd              =   1.2926510396785E-02
(PID.TID 0000.0001) %MON dynstat_vvel_del2            =   5.5534342136014E-05
(PID.TID 0000.0001) %MON dynstat_wvel_max             =   1.4269561610126E-04
(PID.TID 0000.0001) %MON dynstat_wvel_min             =  -2.4193547863741E-04
(PID.TID 0000.0001) %MON dynstat_wvel_mean            =  -1.7986296439666E-22
(PID.TID 0000.0001) %MON dynstat_wvel_sd              =   4.4851611268060E-06
(PID.TID 0000.0001) %MON dynstat_wvel_del2            =   3.4517904173008E-08
(PID.TID 0000.0001) %MON dynstat_theta_max            =   3.0929226447139E+01
(PID.TID 0000.0001) %MON dynstat_theta_min            =  -3.0263222538824E+00
(PID.TID 0000.0001) %MON dynstat_theta_mean           =   3.9089230757824E+00
(PID.TID 0000.0001) %MON dynstat_theta_sd             =   4.5708614538989E+00
(PID.TID 0000.0001) %MON dynstat_theta_del2           =   2.6592193706718E-03
(PID.TID 0000.0001) %MON dynstat_salt_max             =   4.1386389577437E+01
(PID.TID 0000.0001) %MON dynstat_salt_min             =   1.8383469819444E+01
(PID.TID 0000.0001) %MON dynstat_salt_mean            =   3.4772067641334E+01
(PID.TID 0000.0001) %MON dynstat_salt_sd              =   5.3152109562497E-01
(PID.TID 0000.0001) %MON dynstat_salt_del2            =   8.0714273181214E-04
(PID.TID 0000.0001) %MON forcing_qnet_max             =   4.5343252464042E+02
(PID.TID 0000.0001) %MON forcing_qnet_min             =  -2.1486368351980E+02
(PID.TID 0000.0001) %MON forcing_qnet_mean            =  -1.2147860453085E+01
(PID.TID 0000.0001) %MON forcing_qnet_sd              =   1.1561915039435E+02
(PID.TID 0000.0001) %MON forcing_qnet_del2            =   4.1655549263902E-01
(PID.TID 0000.0001) %MON forcing_qsw_max              =   0.0000000000000E+00
(PID.TID 0000.0001) %MON forcing_qsw_min              =   0.0000000000000E+00
(PID.TID 0000.0001) %MON forcing_qsw_mean             =   0.0000000000000E+00
(PID.TID 0000.0001) %MON forcing_qsw_sd               =   0.0000000000000E+00
(PID.TID 0000.0001) %MON forcing_qsw_del2             =   0.0000000000000E+00
(PID.TID 0000.0001) %MON forcing_empmr_max            =   7.6494447208479E-05
(PID.TID 0000.0001) %MON forcing_empmr_min            =  -1.5362614137596E-04
(PID.TID 0000.0001) %MON forcing_empmr_mean           =  -2.7256318706594E-21
(PID.TID 0000.0001) %MON forcing_empmr_sd             =   2.4051723601802E-05
(PID.TID 0000.0001) %MON forcing_empmr_del2           =   1.2276157049243E-07
(PID.TID 0000.0001) %MON forcing_fu_max               =   2.4759812750222E-01
(PID.TID 0000.0001) %MON forcing_fu_min               =  -2.0345620918826E-01
(PID.TID 0000.0001) %MON forcing_fu_mean              =  -4.5406341755738E-03
(PID.TID 0000.0001) %MON forcing_fu_sd                =   6.3938089416438E-02
(PID.TID 0000.0001) %MON forcing_fu_del2              =   2.0510564579161E-04
(PID.TID 0000.0001) %MON forcing_fv_max               =   2.5325818736464E-01
(PID.TID 0000.0001) %MON forcing_fv_min               =  -3.2705124134231E-01
(PID.TID 0000.0001) %MON forcing_fv_mean              =  -1.3685155776512E-02
(PID.TID 0000.0001) %MON forcing_fv_sd                =   7.5159364824207E-02
(PID.TID 0000.0001) %MON forcing_fv_del2              =   2.3375501876268E-04
(PID.TID 0000.0001) %MON advcfl_uvel_max              =   3.4289585500763E-03
(PID.TID 0000.0001) %MON advcfl_vvel_max              =   3.2968873596047E-03
(PID.TID 0000.0001) %MON advcfl_wvel_max              =   3.2866706531874E-03
(PID.TID 0000.0001) %MON advcfl_W_hf_max              =   3.6290321795611E-03
(PID.TID 0000.0001) %MON pe_b_mean                    =   4.7522472913768E-04
(PID.TID 0000.0001) %MON ke_max                       =   4.0901519902118E-02
(PID.TID 0000.0001) %MON ke_mean                      =   1.4705060376175E-04
(PID.TID 0000.0001) %MON ke_vol                       =   1.3398024453628E+18
(PID.TID 0000.0001) %MON vort_r_min                   =  -1.3960870158793E-06
(PID.TID 0000.0001) %MON vort_r_max                   =   1.4411994673361E-06
(PID.TID 0000.0001) %MON vort_a_mean                  =  -2.0549865324846E-05
(PID.TID 0000.0001) %MON vort_a_sd                    =   7.5259527575462E-05
(PID.TID 0000.0001) %MON vort_p_mean                  =  -2.4783522345032E-05
(PID.TID 0000.0001) %MON vort_p_sd                    =   1.2810655849929E-04
(PID.TID 0000.0001) %MON surfExpan_theta_mean         =  -6.2348002311471E-07
(PID.TID 0000.0001) %MON surfExpan_salt_mean          =  -9.3196442907217E-09
(PID.TID 0000.0001) // =======================================================
(PID.TID 0000.0001) // End MONITOR dynamic field statistics
(PID.TID 0000.0001) // =======================================================
 EXTERNAL_FIELDS_LOAD,     86405 : iP,iLd,i0,i1=   12    1   12    1 ; Wght=  0.4930555556  0.5069444444
 cg2d: Sum(rhs),rhsMax =  -7.85576048656367E-11  4.21331861271348E+00
(PID.TID 0000.0001)      cg2d_init_res =   1.14579798360372E-01
(PID.TID 0000.0001)      cg2d_iters(min,last) =      -1      30
(PID.TID 0000.0001)      cg2d_last_res =   1.32741934207196E-07
 cg3d: Sum(rhs),rhsMax =   8.41785450454573E-10  1.18356231098079E-03
(PID.TID 0000.0001)      cg3d_init_res =   6.62495089336409E-01
(PID.TID 0000.0001)      cg3d_iters (last) =                 33
(PID.TID 0000.0001)      cg3d_last_res =   8.93853339014765E-10
(PID.TID 0000.0001) // =======================================================
(PID.TID 0000.0001) // Begin MONITOR dynamic field statistics
(PID.TID 0000.0001) // =======================================================
(PID.TID 0000.0001) %MON time_tsnumber                =                 86406
(PID.TID 0000.0001) %MON time_secondsf                =   3.1106160000000E+08
(PID.TID 0000.0001) %MON dynstat_eta_max              =   9.2209108307450E-01
(PID.TID 0000.0001) %MON dynstat_eta_min              =  -1.6090924369511E+00
(PID.TID 0000.0001) %MON dynstat_eta_mean             =   1.4180236508027E-14
(PID.TID 0000.0001) %MON dynstat_eta_sd               =   5.9718485496625E-01
(PID.TID 0000.0001) %MON dynstat_eta_del2             =   7.9191116046507E-04
(PID.TID 0000.0001) %MON dynstat_uvel_max             =   1.9180198704257E-01
(PID.TID 0000.0001) %MON dynstat_uvel_min             =  -2.9080996389584E-01
(PID.TID 0000.0001) %MON dynstat_uvel_mean            =  -4.7731187150363E-04
(PID.TID 0000.0001) %MON dynstat_uvel_sd              =   1.2352989147616E-02
(PID.TID 0000.0001) %MON dynstat_uvel_del2            =   5.6932106717129E-05
(PID.TID 0000.0001) %MON dynstat_vvel_max             =   1.8052968224812E-01
(PID.TID 0000.0001) %MON dynstat_vvel_min             =  -2.2742200201407E-01
(PID.TID 0000.0001) %MON dynstat_vvel_mean            =  -3.9660194466405E-04
(PID.TID 0000.0001) %MON dynstat_vvel_sd              =   1.2986041892526E-02
(PID.TID 0000.0001) %MON dynstat_vvel_del2            =   5.6349415282543E-05
(PID.TID 0000.0001) %MON dynstat_wvel_max             =   1.5008520608501E-04
(PID.TID 0000.0001) %MON dynstat_wvel_min             =  -2.4650842593504E-04
(PID.TID 0000.0001) %MON dynstat_wvel_mean            =   1.7986296439666E-22
(PID.TID 0000.0001) %MON dynstat_wvel_sd              =   4.6751873082620E-06
(PID.TID 0000.0001) %MON dynstat_wvel_del2            =   3.6485295009192E-08
(PID.TID 0000.0001) %MON dynstat_theta_max            =   3.0929938652255E+01
(PID.TID 0000.0001) %MON dynstat_theta_min            =  -3.0283336755759E+00
(PID.TID 0000.0001) %MON dynstat_theta_mean           =   3.9089256366776E+00
(PID.TID 0000.0001) %MON dynstat_theta_sd             =   4.5708629998818E+00
(PID.TID 0000.0001) %MON dynstat_theta_del2           =   2.6592930689889E-03
(PID.TID 0000.0001) %MON dynstat_salt_max             =   4.1386427992065E+01
(PID.TID 0000.0001) %MON dynstat_salt_min             =   1.8383481945949E+01
(PID.TID 0000.0001) %MON dynstat_salt_mean            =   3.4772067635359E+01
(PID.TID 0000.0001) %MON dynstat_salt_sd              =   5.3152117802626E-01
(PID.TID 0000.0001) %MON dynstat_salt_del2            =   8.0716861526757E-04
(PID.TID 0000.0001) %MON forcing_qnet_max             =   4.5342858876675E+02
(PID.TID 0000.0001) %MON forcing_qnet_min             =  -2.1482316877035E+02
(PID.TID 0000.0001) %MON forcing_qnet_mean            =  -1.2148369968445E+01
(PID.TID 0000.0001) %MON forcing_qnet_sd              =   1.1561052380983E+02
(PID.TID 0000.0001) %MON forcing_qnet_del2            =   4.1659452410009E-01
(PID.TID 0000.0001) %MON forcing_qsw_max              =   0.0000000000000E+00
(PID.TID 0000.0001) %MON forcing_qsw_min              =   0.0000000000000E+00
(PID.TID 0000.0001) %MON forcing_qsw_mean             =   0.0000000000000E+00
(PID.TID 0000.0001) %MON forcing_qsw_sd               =   0.0000000000000E+00
(PID.TID 0000.0001) %MON forcing_qsw_del2             =   0.0000000000000E+00
(PID.TID 0000.0001) %MON forcing_empmr_max            =   7.6494447208479E-05
(PID.TID 0000.0001) %MON forcing_empmr_min            =  -1.5362614137596E-04
(PID.TID 0000.0001) %MON forcing_empmr_mean           =  -2.7256318706594E-21
(PID.TID 0000.0001) %MON forcing_empmr_sd             =   2.4051723601802E-05
(PID.TID 0000.0001) %MON forcing_empmr_del2           =   1.2276157049243E-07
(PID.TID 0000.0001) %MON forcing_fu_max               =   2.4759612544930E-01
(PID.TID 0000.0001) %MON forcing_fu_min               =  -2.0358728404902E-01
(PID.TID 0000.0001) %MON forcing_fu_mean              =  -4.5388225532516E-03
(PID.TID 0000.0001) %MON forcing_fu_sd                =   6.3938321052928E-02
(PID.TID 0000.0001) %MON forcing_fu_del2              =   2.0510878435417E-04
(PID.TID 0000.0001) %MON forcing_fv_max               =   2.5336998909684E-01
(PID.TID 0000.0001) %MON forcing_fv_min               =  -3.2708407067289E-01
(PID.TID 0000.0001) %MON forcing_fv_mean              =  -1.3685319340926E-02
(PID.TID 0000.0001) %MON forcing_fv_sd                =   7.5160872942361E-02
(PID.TID 0000.0001) %MON forcing_fv_del2              =   2.3375999759731E-04
(PID.TID 0000.0001) %MON advcfl_uvel_max              =   3.4366342518292E-03
(PID.TID 0000.0001) %MON advcfl_vvel_max              =   3.3953694796479E-03
(PID.TID 0000.0001) %MON advcfl_wvel_max              =   3.3487937108156E-03
(PID.TID 0000.0001) %MON advcfl_W_hf_max              =   3.6976263890256E-03
(PID.TID 0000.0001) %MON pe_b_mean                    =   4.7509673211725E-04
(PID.TID 0000.0001) %MON ke_max                       =   4.1022843573781E-02
(PID.TID 0000.0001) %MON ke_mean                      =   1.4851693898948E-04
(PID.TID 0000.0001) %MON ke_vol                       =   1.3398024453628E+18
(PID.TID 0000.0001) %MON vort_r_min                   =  -1.4213556362697E-06
(PID.TID 0000.0001) %MON vort_r_max                   =   1.4661927839393E-06
(PID.TID 0000.0001) %MON vort_a_mean                  =  -2.0549865324846E-05
(PID.TID 0000.0001) %MON vort_a_sd                    =   7.5259528503327E-05
(PID.TID 0000.0001) %MON vort_p_mean                  =  -2.4783522345032E-05
(PID.TID 0000.0001) %MON vort_p_sd                    =   1.2810656339932E-04
(PID.TID 0000.0001) %MON surfExpan_theta_mean         =  -3.0942447574681E-07
(PID.TID 0000.0001) %MON surfExpan_salt_mean          =   1.9579511246067E-08
(PID.TID 0000.0001) // =======================================================
(PID.TID 0000.0001) // End MONITOR dynamic field statistics
(PID.TID 0000.0001) // =======================================================
 EXTERNAL_FIELDS_LOAD,     86406 : iP,iLd,i0,i1=   12    1   12    1 ; Wght=  0.4916666667  0.5083333333
 cg2d: Sum(rhs),rhsMax =  -7.61701812734827E-11  4.21850035574844E+00
(PID.TID 0000.0001)      cg2d_init_res =   1.13012942531921E-01
(PID.TID 0000.0001)      cg2d_iters(min,last) =      -1      30
(PID.TID 0000.0001)      cg2d_last_res =   1.44355019939942E-07
 cg3d: Sum(rhs),rhsMax =   7.82626402798399E-10  1.19243443871160E-03
(PID.TID 0000.0001)      cg3d_init_res =   6.38832193408843E-01
(PID.TID 0000.0001)      cg3d_iters (last) =                 33
(PID.TID 0000.0001)      cg3d_last_res =   7.47293763687784E-10
(PID.TID 0000.0001) // =======================================================
(PID.TID 0000.0001) // Begin MONITOR dynamic field statistics
(PID.TID 0000.0001) // =======================================================
(PID.TID 0000.0001) %MON time_tsnumber                =                 86407
(PID.TID 0000.0001) %MON time_secondsf                =   3.1106520000000E+08
(PID.TID 0000.0001) %MON dynstat_eta_max              =   9.2262364817022E-01
(PID.TID 0000.0001) %MON dynstat_eta_min              =  -1.6096525386909E+00
(PID.TID 0000.0001) %MON dynstat_eta_mean             =   1.4331382439798E-14
(PID.TID 0000.0001) %MON dynstat_eta_sd               =   5.9721576104005E-01
(PID.TID 0000.0001) %MON dynstat_eta_del2             =   7.9354445528047E-04
(PID.TID 0000.0001) %MON dynstat_uvel_max             =   1.9450436408021E-01
(PID.TID 0000.0001) %MON dynstat_uvel_min             =  -2.9143807958287E-01
(PID.TID 0000.0001) %MON dynstat_uvel_mean            =  -4.7893254772238E-04
(PID.TID 0000.0001) %MON dynstat_uvel_sd              =   1.2414220061111E-02
(PID.TID 0000.0001) %MON dynstat_uvel_del2            =   5.7756786125611E-05
(PID.TID 0000.0001) %MON dynstat_vvel_max             =   1.8257144753558E-01
(PID.TID 0000.0001) %MON dynstat_vvel_min             =  -2.2803426985541E-01
(PID.TID 0000.0001) %MON dynstat_vvel_mean            =  -3.9350327737758E-04
(PID.TID 0000.0001) %MON dynstat_vvel_sd              =   1.3035719173581E-02
(PID.TID 0000.0001) %MON dynstat_vvel_del2            =   5.7142168338609E-05
(PID.TID 0000.0001) %MON dynstat_wvel_max             =   1.5688262141458E-04
(PID.TID 0000.0001) %MON dynstat_wvel_min             =  -2.5072756871828E-04
(PID.TID 0000.0001) %MON dynstat_wvel_mean            =  -1.9726905772537E-22
(PID.TID 0000.0001) %MON dynstat_wvel_sd              =   4.8819638712228E-06
(PID.TID 0000.0001) %MON dynstat_wvel_del2            =   3.8548639579425E-08
(PID.TID 0000.0001) %MON dynstat_theta_max            =   3.0930659494708E+01
(PID.TID 0000.0001) %MON dynstat_theta_min            =  -3.0303825953392E+00
(PID.TID 0000.0001) %MON dynstat_theta_mean           =   3.9089279635273E+00
(PID.TID 0000.0001) %MON dynstat_theta_sd             =   4.5708640156355E+00
(PID.TID 0000.0001) %MON dynstat_theta_del2           =   2.6593744933997E-03
(PID.TID 0000.0001) %MON dynstat_salt_max             =   4.1386471133651E+01
(PID.TID 0000.0001) %MON dynstat_salt_min             =   1.8383494140494E+01
(PID.TID 0000.0001) %MON dynstat_salt_mean            =   3.4772067610775E+01
(PID.TID 0000.0001) %MON dynstat_salt_sd              =   5.3152127890600E-01
(PID.TID 0000.0001) %MON dynstat_salt_del2            =   8.0719560642484E-04
(PID.TID 0000.0001) %MON forcing_qnet_max             =   4.5342465289309E+02
(PID.TID 0000.0001) %MON forcing_qnet_min             =  -2.1478265402091E+02
(PID.TID 0000.0001) %MON forcing_qnet_mean            =  -1.2148879483805E+01
(PID.TID 0000.0001) %MON forcing_qnet_sd              =   1.1560190853859E+02
(PID.TID 0000.0001) %MON forcing_qnet_del2            =   4.1663376769105E-01
(PID.TID 0000.0001) %MON forcing_qsw_max              =   0.0000000000000E+00
(PID.TID 0000.0001) %MON forcing_qsw_min              =   0.0000000000000E+00
(PID.TID 0000.0001) %MON forcing_qsw_mean             =   0.0000000000000E+00
(PID.TID 0000.0001) %MON forcing_qsw_sd               =   0.0000000000000E+00
(PID.TID 0000.0001) %MON forcing_qsw_del2             =   0.0000000000000E+00
(PID.TID 0000.0001) %MON forcing_empmr_max            =   7.6494447208479E-05
(PID.TID 0000.0001) %MON forcing_empmr_min            =  -1.5362614137596E-04
(PID.TID 0000.0001) %MON forcing_empmr_mean           =  -2.7256318706594E-21
(PID.TID 0000.0001) %MON forcing_empmr_sd             =   2.4051723601802E-05
(PID.TID 0000.0001) %MON forcing_empmr_del2           =   1.2276157049243E-07
(PID.TID 0000.0001) %MON forcing_fu_max               =   2.4759412339637E-01
(PID.TID 0000.0001) %MON forcing_fu_min               =  -2.0371835890979E-01
(PID.TID 0000.0001) %MON forcing_fu_mean              =  -4.5370109309294E-03
(PID.TID 0000.0001) %MON forcing_fu_sd                =   6.3938576085028E-02
(PID.TID 0000.0001) %MON forcing_fu_del2              =   2.0511234339254E-04
(PID.TID 0000.0001) %MON forcing_fv_max               =   2.5348179082903E-01
(PID.TID 0000.0001) %MON forcing_fv_min               =  -3.2711690000347E-01
(PID.TID 0000.0001) %MON forcing_fv_mean              =  -1.3685482905339E-02
(PID.TID 0000.0001) %MON forcing_fv_sd                =   7.5162399046264E-02
(PID.TID 0000.0001) %MON forcing_fv_del2              =   2.3376532948838E-04
(PID.TID 0000.0001) %MON advcfl_uvel_max              =   3.4440569819697E-03
(PID.TID 0000.0001) %MON advcfl_vvel_max              =   3.4813838048845E-03
(PID.TID 0000.0001) %MON advcfl_wvel_max              =   3.4061103674936E-03
(PID.TID 0000.0001) %MON advcfl_W_hf_max              =   3.7609135307742E-03
(PID.TID 0000.0001) %MON pe_b_mean                    =   4.7514590869799E-04
(PID.TID 0000.0001) %MON ke_max                       =   4.1142480441260E-02
(PID.TID 0000.0001) %MON ke_mean                      =   1.4981303996450E-04
(PID.TID 0000.0001) %MON ke_vol                       =   1.3398024453628E+18
(PID.TID 0000.0001) %MON vort_r_min                   =  -1.4403953082556E-06
(PID.TID 0000.0001) %MON vort_r_max                   =   1.4824936587134E-06
(PID.TID 0000.0001) %MON vort_a_mean                  =  -2.0549865324846E-05
(PID.TID 0000.0001) %MON vort_a_sd                    =   7.5259528266226E-05
(PID.TID 0000.0001) %MON vort_p_mean                  =  -2.4783522345032E-05
(PID.TID 0000.0001) %MON vort_p_sd                    =   1.2810656607241E-04
(PID.TID 0000.0001) %MON surfExpan_theta_mean         =  -4.1755575874373E-08
(PID.TID 0000.0001) %MON surfExpan_salt_mean          =   4.2405544564426E-08
(PID.TID 0000.0001) // =======================================================
(PID.TID 0000.0001) // End MONITOR dynamic field statistics
(PID.TID 0000.0001) // =======================================================
 EXTERNAL_FIELDS_LOAD,     86407 : iP,iLd,i0,i1=   12    1   12    1 ; Wght=  0.4902777778  0.5097222222
 cg2d: Sum(rhs),rhsMax =  -7.58291207603179E-11  4.22333009915168E+00
(PID.TID 0000.0001)      cg2d_init_res =   1.10840565706536E-01
(PID.TID 0000.0001)      cg2d_iters(min,last) =      -1      30
(PID.TID 0000.0001)      cg2d_last_res =   1.50821462102756E-07
 cg3d: Sum(rhs),rhsMax =   1.63163929576041E-09  1.20131292706863E-03
(PID.TID 0000.0001)      cg3d_init_res =   6.10829581816232E-01
(PID.TID 0000.0001)      cg3d_iters (last) =                 33
(PID.TID 0000.0001)      cg3d_last_res =   6.62249540412035E-10
(PID.TID 0000.0001) // =======================================================
(PID.TID 0000.0001) // Begin MONITOR dynamic field statistics
(PID.TID 0000.0001) // =======================================================
(PID.TID 0000.0001) %MON time_tsnumber                =                 86408
(PID.TID 0000.0001) %MON time_secondsf                =   3.1106880000000E+08
(PID.TID 0000.0001) %MON dynstat_eta_max              =   9.2315502857620E-01
(PID.TID 0000.0001) %MON dynstat_eta_min              =  -1.6103117982388E+00
(PID.TID 0000.0001) %MON dynstat_eta_mean             =   1.4386344596806E-14
(PID.TID 0000.0001) %MON dynstat_eta_sd               =   5.9730103343049E-01
(PID.TID 0000.0001) %MON dynstat_eta_del2             =   7.9500295174341E-04
(PID.TID 0000.0001) %MON dynstat_uvel_max             =   1.9664269791561E-01
(PID.TID 0000.0001) %MON dynstat_uvel_min             =  -2.9204600604868E-01
(PID.TID 0000.0001) %MON dynstat_uvel_mean            =  -4.8242572031625E-04
(PID.TID 0000.0001) %MON dynstat_uvel_sd              =   1.2468325011853E-02
(PID.TID 0000.0001) %MON dynstat_uvel_del2            =   5.8575094649723E-05
(PID.TID 0000.0001) %MON dynstat_vvel_max             =   1.8615749078883E-01
(PID.TID 0000.0001) %MON dynstat_vvel_min             =  -2.2863649202628E-01
(PID.TID 0000.0001) %MON dynstat_vvel_mean            =  -3.8985006611479E-04
(PID.TID 0000.0001) %MON dynstat_vvel_sd              =   1.3075225538449E-02
(PID.TID 0000.0001) %MON dynstat_vvel_del2            =   5.7916500286752E-05
(PID.TID 0000.0001) %MON dynstat_wvel_max             =   1.6288936910965E-04
(PID.TID 0000.0001) %MON dynstat_wvel_min             =  -2.5475133782959E-04
(PID.TID 0000.0001) %MON dynstat_wvel_mean            =   2.3208124438279E-23
(PID.TID 0000.0001) %MON dynstat_wvel_sd              =   5.0999612556377E-06
(PID.TID 0000.0001) %MON dynstat_wvel_del2            =   4.0671149910223E-08
(PID.TID 0000.0001) %MON dynstat_theta_max            =   3.0931382089475E+01
(PID.TID 0000.0001) %MON dynstat_theta_min            =  -3.0324588187565E+00
(PID.TID 0000.0001) %MON dynstat_theta_mean           =   3.9089301659014E+00
(PID.TID 0000.0001) %MON dynstat_theta_sd             =   4.5708645856729E+00
(PID.TID 0000.0001) %MON dynstat_theta_del2           =   2.6594655588408E-03
(PID.TID 0000.0001) %MON dynstat_salt_max             =   4.1386518974874E+01
(PID.TID 0000.0001) %MON dynstat_salt_min             =   1.8383506366821E+01
(PID.TID 0000.0001) %MON dynstat_salt_mean            =   3.4772067579773E+01
(PID.TID 0000.0001) %MON dynstat_salt_sd              =   5.3152139482338E-01
(PID.TID 0000.0001) %MON dynstat_salt_del2            =   8.0722401485093E-04
(PID.TID 0000.0001) %MON forcing_qnet_max             =   4.5342071701943E+02
(PID.TID 0000.0001) %MON forcing_qnet_min             =  -2.1474213927147E+02
(PID.TID 0000.0001) %MON forcing_qnet_mean            =  -1.2149388999165E+01
(PID.TID 0000.0001) %MON forcing_qnet_sd              =   1.1559330458315E+02
(PID.TID 0000.0001) %MON forcing_qnet_del2            =   4.1667322335199E-01
(PID.TID 0000.0001) %MON forcing_qsw_max              =   0.0000000000000E+00
(PID.TID 0000.0001) %MON forcing_qsw_min              =   0.0000000000000E+00
(PID.TID 0000.0001) %MON forcing_qsw_mean             =   0.0000000000000E+00
(PID.TID 0000.0001) %MON forcing_qsw_sd               =   0.0000000000000E+00
(PID.TID 0000.0001) %MON forcing_qsw_del2             =   0.0000000000000E+00
(PID.TID 0000.0001) %MON forcing_empmr_max            =   7.6494447208479E-05
(PID.TID 0000.0001) %MON forcing_empmr_min            =  -1.5362614137596E-04
(PID.TID 0000.0001) %MON forcing_empmr_mean           =  -2.7256318706594E-21
(PID.TID 0000.0001) %MON forcing_empmr_sd             =   2.4051723601802E-05
(PID.TID 0000.0001) %MON forcing_empmr_del2           =   1.2276157049243E-07
(PID.TID 0000.0001) %MON forcing_fu_max               =   2.4759212134345E-01
(PID.TID 0000.0001) %MON forcing_fu_min               =  -2.0384943377055E-01
(PID.TID 0000.0001) %MON forcing_fu_mean              =  -4.5351993086071E-03
(PID.TID 0000.0001) %MON forcing_fu_sd                =   6.3938854512458E-02
(PID.TID 0000.0001) %MON forcing_fu_del2              =   2.0511632288484E-04
(PID.TID 0000.0001) %MON forcing_fv_max               =   2.5359359256122E-01
(PID.TID 0000.0001) %MON forcing_fv_min               =  -3.2714972933405E-01
(PID.TID 0000.0001) %MON forcing_fv_mean              =  -1.3685646469753E-02
(PID.TID 0000.0001) %MON forcing_fv_sd                =   7.5163943134818E-02
(PID.TID 0000.0001) %MON forcing_fv_del2              =   2.3377101441174E-04
(PID.TID 0000.0001) %MON advcfl_uvel_max              =   3.4512411268560E-03
(PID.TID 0000.0001) %MON advcfl_vvel_max              =   3.5498145733853E-03
(PID.TID 0000.0001) %MON advcfl_wvel_max              =   3.4607728912699E-03
(PID.TID 0000.0001) %MON advcfl_W_hf_max              =   3.8212700674438E-03
(PID.TID 0000.0001) %MON pe_b_mean                    =   4.7528160411212E-04
(PID.TID 0000.0001) %MON ke_max                       =   4.1260844709644E-02
(PID.TID 0000.0001) %MON ke_mean                      =   1.5091041863091E-04
(PID.TID 0000.0001) %MON ke_vol                       =   1.3398024453628E+18
(PID.TID 0000.0001) %MON vort_r_min                   =  -1.4531519370321E-06
(PID.TID 0000.0001) %MON vort_r_max                   =   1.4897849828222E-06
(PID.TID 0000.0001) %MON vort_a_mean                  =  -2.0549865324846E-05
(PID.TID 0000.0001) %MON vort_a_sd                    =   7.5259527268150E-05
(PID.TID 0000.0001) %MON vort_p_mean                  =  -2.4783522345032E-05
(PID.TID 0000.0001) %MON vort_p_sd                    =   1.2810656656680E-04
(PID.TID 0000.0001) %MON surfExpan_theta_mean         =   1.3889513940044E-07
(PID.TID 0000.0001) %MON surfExpan_salt_mean          =   5.5211299334223E-08
(PID.TID 0000.0001) // =======================================================
(PID.TID 0000.0001) // End MONITOR dynamic field statistics
(PID.TID 0000.0001) // =======================================================
 EXTERNAL_FIELDS_LOAD,     86408 : iP,iLd,i0,i1=   12    1   12    1 ; Wght=  0.4888888889  0.5111111111
 cg2d: Sum(rhs),rhsMax =  -7.70796759752557E-11  4.22768037398762E+00
(PID.TID 0000.0001)      cg2d_init_res =   1.08480488885837E-01
(PID.TID 0000.0001)      cg2d_iters(min,last) =      -1      30
(PID.TID 0000.0001)      cg2d_last_res =   1.23959958813418E-07
 cg3d: Sum(rhs),rhsMax =   2.54985202085265E-09  1.21019302552415E-03
(PID.TID 0000.0001)      cg3d_init_res =   5.87668320047114E-01
(PID.TID 0000.0001)      cg3d_iters (last) =                 33
(PID.TID 0000.0001)      cg3d_last_res =   6.07192408519947E-10
(PID.TID 0000.0001) // =======================================================
(PID.TID 0000.0001) // Begin MONITOR dynamic field statistics
(PID.TID 0000.0001) // =======================================================
(PID.TID 0000.0001) %MON time_tsnumber                =                 86409
(PID.TID 0000.0001) %MON time_secondsf                =   3.1107240000000E+08
(PID.TID 0000.0001) %MON dynstat_eta_max              =   9.2360390771531E-01
(PID.TID 0000.0001) %MON dynstat_eta_min              =  -1.6107692287962E+00
(PID.TID 0000.0001) %MON dynstat_eta_mean             =   1.4331382439798E-14
(PID.TID 0000.0001) %MON dynstat_eta_sd               =   5.9739056975132E-01
(PID.TID 0000.0001) %MON dynstat_eta_del2             =   7.9632196892042E-04
(PID.TID 0000.0001) %MON dynstat_uvel_max             =   1.9800480905713E-01
(PID.TID 0000.0001) %MON dynstat_uvel_min             =  -2.9263340413000E-01
(PID.TID 0000.0001) %MON dynstat_uvel_mean            =  -4.8703102734570E-04
(PID.TID 0000.0001) %MON dynstat_uvel_sd              =   1.2514305062352E-02
(PID.TID 0000.0001) %MON dynstat_uvel_del2            =   5.9388378939371E-05
(PID.TID 0000.0001) %MON dynstat_vvel_max             =   1.8893766738638E-01
(PID.TID 0000.0001) %MON dynstat_vvel_min             =  -2.2922946936175E-01
(PID.TID 0000.0001) %MON dynstat_vvel_mean            =  -3.8634537211371E-04
(PID.TID 0000.0001) %MON dynstat_vvel_sd              =   1.3105388503683E-02
(PID.TID 0000.0001) %MON dynstat_vvel_del2            =   5.8676786054872E-05
(PID.TID 0000.0001) %MON dynstat_wvel_max             =   1.6802239884212E-04
(PID.TID 0000.0001) %MON dynstat_wvel_min             =  -2.5870462045595E-04
(PID.TID 0000.0001) %MON dynstat_wvel_mean            =  -1.6245687106795E-22
(PID.TID 0000.0001) %MON dynstat_wvel_sd              =   5.3234415847763E-06
(PID.TID 0000.0001) %MON dynstat_wvel_del2            =   4.2820390922586E-08
(PID.TID 0000.0001) %MON dynstat_theta_max            =   3.0932104454214E+01
(PID.TID 0000.0001) %MON dynstat_theta_min            =  -3.0345521537125E+00
(PID.TID 0000.0001) %MON dynstat_theta_mean           =   3.9089323378708E+00
(PID.TID 0000.0001) %MON dynstat_theta_sd             =   4.5708648593773E+00
(PID.TID 0000.0001) %MON dynstat_theta_del2           =   2.6596560490261E-03
(PID.TID 0000.0001) %MON dynstat_salt_max             =   4.1386571453081E+01
(PID.TID 0000.0001) %MON dynstat_salt_min             =   1.8383518610712E+01
(PID.TID 0000.0001) %MON dynstat_salt_mean            =   3.4772067552631E+01
(PID.TID 0000.0001) %MON dynstat_salt_sd              =   5.3152151689132E-01
(PID.TID 0000.0001) %MON dynstat_salt_del2            =   8.0728538317747E-04
(PID.TID 0000.0001) %MON forcing_qnet_max             =   4.5341678114577E+02
(PID.TID 0000.0001) %MON forcing_qnet_min             =  -2.1470162452203E+02
(PID.TID 0000.0001) %MON forcing_qnet_mean            =  -1.2149898514525E+01
(PID.TID 0000.0001) %MON forcing_qnet_sd              =   1.1558471194605E+02
(PID.TID 0000.0001) %MON forcing_qnet_del2            =   4.1671289102265E-01
(PID.TID 0000.0001) %MON forcing_qsw_max              =   0.0000000000000E+00
(PID.TID 0000.0001) %MON forcing_qsw_min              =   0.0000000000000E+00
(PID.TID 0000.0001) %MON forcing_qsw_mean             =   0.0000000000000E+00
(PID.TID 0000.0001) %MON forcing_qsw_sd               =   0.0000000000000E+00
(PID.TID 0000.0001) %MON forcing_qsw_del2             =   0.0000000000000E+00
(PID.TID 0000.0001) %MON forcing_empmr_max            =   7.6494447208479E-05
(PID.TID 0000.0001) %MON forcing_empmr_min            =  -1.5362614137596E-04
(PID.TID 0000.0001) %MON forcing_empmr_mean           =  -2.7256318706594E-21
(PID.TID 0000.0001) %MON forcing_empmr_sd             =   2.4051723601802E-05
(PID.TID 0000.0001) %MON forcing_empmr_del2           =   1.2276157049243E-07
(PID.TID 0000.0001) %MON forcing_fu_max               =   2.4759011929052E-01
(PID.TID 0000.0001) %MON forcing_fu_min               =  -2.0398050863132E-01
(PID.TID 0000.0001) %MON forcing_fu_mean              =  -4.5333876862849E-03
(PID.TID 0000.0001) %MON forcing_fu_sd                =   6.3939156334912E-02
(PID.TID 0000.0001) %MON forcing_fu_del2              =   2.0512072280658E-04
(PID.TID 0000.0001) %MON forcing_fv_max               =   2.5370539429342E-01
(PID.TID 0000.0001) %MON forcing_fv_min               =  -3.2718255866463E-01
(PID.TID 0000.0001) %MON forcing_fv_mean              =  -1.3685810034167E-02
(PID.TID 0000.0001) %MON forcing_fv_sd                =   7.5165505206917E-02
(PID.TID 0000.0001) %MON forcing_fv_del2              =   2.3377705234163E-04
(PID.TID 0000.0001) %MON advcfl_uvel_max              =   3.4581826784406E-03
(PID.TID 0000.0001) %MON advcfl_vvel_max              =   3.5985001121048E-03
(PID.TID 0000.0001) %MON advcfl_wvel_max              =   3.5144778627978E-03
(PID.TID 0000.0001) %MON advcfl_W_hf_max              =   3.8805693068393E-03
(PID.TID 0000.0001) %MON pe_b_mean                    =   4.7542410564261E-04
(PID.TID 0000.0001) %MON ke_max                       =   4.1377960967716E-02
(PID.TID 0000.0001) %MON ke_mean                      =   1.5180539921722E-04
(PID.TID 0000.0001) %MON ke_vol                       =   1.3398024453628E+18
(PID.TID 0000.0001) %MON vort_r_min                   =  -1.4599024665846E-06
(PID.TID 0000.0001) %MON vort_r_max                   =   1.4885634658302E-06
(PID.TID 0000.0001) %MON vort_a_mean                  =  -2.0549865324846E-05
(PID.TID 0000.0001) %MON vort_a_sd                    =   7.5259525953786E-05
(PID.TID 0000.0001) %MON vort_p_mean                  =  -2.4783522345032E-05
(PID.TID 0000.0001) %MON vort_p_sd                    =   1.2810656525324E-04
(PID.TID 0000.0001) %MON surfExpan_theta_mean         =   2.2684959744473E-07
(PID.TID 0000.0001) %MON surfExpan_salt_mean          =   5.7690722572133E-08
(PID.TID 0000.0001) // =======================================================
(PID.TID 0000.0001) // End MONITOR dynamic field statistics
(PID.TID 0000.0001) // =======================================================
 EXTERNAL_FIELDS_LOAD,     86409 : iP,iLd,i0,i1=   12    1   12    1 ; Wght=  0.4875000000  0.5125000000
 cg2d: Sum(rhs),rhsMax =  -7.73070496506989E-11  4.23153848858638E+00
(PID.TID 0000.0001)      cg2d_init_res =   1.06478617418689E-01
(PID.TID 0000.0001)      cg2d_iters(min,last) =      -1      29
(PID.TID 0000.0001)      cg2d_last_res =   1.67878601877922E-07
 cg3d: Sum(rhs),rhsMax =   2.74977592247799E-09  1.21907067563101E-03
(PID.TID 0000.0001)      cg3d_init_res =   5.74395400508861E-01
(PID.TID 0000.0001)      cg3d_iters (last) =                 31
(PID.TID 0000.0001)      cg3d_last_res =   9.90346364388436E-10
(PID.TID 0000.0001) // =======================================================
(PID.TID 0000.0001) // Begin MONITOR dynamic field statistics
(PID.TID 0000.0001) // =======================================================
(PID.TID 0000.0001) %MON time_tsnumber                =                 86410
(PID.TID 0000.0001) %MON time_secondsf                =   3.1107600000000E+08
(PID.TID 0000.0001) %MON dynstat_eta_max              =   9.2391688315866E-01
(PID.TID 0000.0001) %MON dynstat_eta_min              =  -1.6109055514839E+00
(PID.TID 0000.0001) %MON dynstat_eta_mean             =   1.4152755429523E-14
(PID.TID 0000.0001) %MON dynstat_eta_sd               =   5.9745239743151E-01
(PID.TID 0000.0001) %MON dynstat_eta_del2             =   7.9753197911290E-04
(PID.TID 0000.0001) %MON dynstat_uvel_max             =   1.9845165988462E-01
(PID.TID 0000.0001) %MON dynstat_uvel_min             =  -2.9319961954174E-01
(PID.TID 0000.0001) %MON dynstat_uvel_mean            =  -4.9195651354704E-04
(PID.TID 0000.0001) %MON dynstat_uvel_sd              =   1.2552036641391E-02
(PID.TID 0000.0001) %MON dynstat_uvel_del2            =   6.0197896277317E-05
(PID.TID 0000.0001) %MON dynstat_vvel_max             =   1.9072920255806E-01
(PID.TID 0000.0001) %MON dynstat_vvel_min             =  -2.2997298237997E-01
(PID.TID 0000.0001) %MON dynstat_vvel_mean            =  -3.8345571287559E-04
(PID.TID 0000.0001) %MON dynstat_vvel_sd              =   1.3128029511680E-02
(PID.TID 0000.0001) %MON dynstat_vvel_del2            =   5.9426910715803E-05
(PID.TID 0000.0001) %MON dynstat_wvel_max             =   1.7231979179740E-04
(PID.TID 0000.0001) %MON dynstat_wvel_min             =  -2.6265766430486E-04
(PID.TID 0000.0001) %MON dynstat_wvel_mean            =  -2.2627921327322E-22
(PID.TID 0000.0001) %MON dynstat_wvel_sd              =   5.5469432814202E-06
(PID.TID 0000.0001) %MON dynstat_wvel_del2            =   4.4969861066923E-08
(PID.TID 0000.0001) %MON dynstat_theta_max            =   3.0932828240621E+01
(PID.TID 0000.0001) %MON dynstat_theta_min            =  -3.0366537033232E+00
(PID.TID 0000.0001) %MON dynstat_theta_mean           =   3.9089345414081E+00
(PID.TID 0000.0001) %MON dynstat_theta_sd             =   4.5708650086430E+00
(PID.TID 0000.0001) %MON dynstat_theta_del2           =   2.6597477910014E-03
(PID.TID 0000.0001) %MON dynstat_salt_max             =   4.1386628515573E+01
(PID.TID 0000.0001) %MON dynstat_salt_min             =   1.8383530876564E+01
(PID.TID 0000.0001) %MON dynstat_salt_mean            =   3.4772067535393E+01
(PID.TID 0000.0001) %MON dynstat_salt_sd              =   5.3152163805893E-01
(PID.TID 0000.0001) %MON dynstat_salt_del2            =   8.0731747018429E-04
(PID.TID 0000.0001) %MON forcing_qnet_max             =   4.5341284527210E+02
(PID.TID 0000.0001) %MON forcing_qnet_min             =  -2.1466110977259E+02
(PID.TID 0000.0001) %MON forcing_qnet_mean            =  -1.2150408029885E+01
(PID.TID 0000.0001) %MON forcing_qnet_sd              =   1.1557613062980E+02
(PID.TID 0000.0001) %MON forcing_qnet_del2            =   4.1675277064250E-01
(PID.TID 0000.0001) %MON forcing_qsw_max              =   0.0000000000000E+00
(PID.TID 0000.0001) %MON forcing_qsw_min              =   0.0000000000000E+00
(PID.TID 0000.0001) %MON forcing_qsw_mean             =   0.0000000000000E+00
(PID.TID 0000.0001) %MON forcing_qsw_sd               =   0.0000000000000E+00
(PID.TID 0000.0001) %MON forcing_qsw_del2             =   0.0000000000000E+00
(PID.TID 0000.0001) %MON forcing_empmr_max            =   7.6494447208479E-05
(PID.TID 0000.0001) %MON forcing_empmr_min            =  -1.5362614137596E-04
(PID.TID 0000.0001) %MON forcing_empmr_mean           =  -2.7256318706594E-21
(PID.TID 0000.0001) %MON forcing_empmr_sd             =   2.4051723601802E-05
(PID.TID 0000.0001) %MON forcing_empmr_del2           =   1.2276157049243E-07
(PID.TID 0000.0001) %MON forcing_fu_max               =   2.4758811723760E-01
(PID.TID 0000.0001) %MON forcing_fu_min               =  -2.0411158349208E-01
(PID.TID 0000.0001) %MON forcing_fu_mean              =  -4.5315760639627E-03
(PID.TID 0000.0001) %MON forcing_fu_sd                =   6.3939481552059E-02
(PID.TID 0000.0001) %MON forcing_fu_del2              =   2.0512554313071E-04
(PID.TID 0000.0001) %MON forcing_fv_max               =   2.5381719602561E-01
(PID.TID 0000.0001) %MON forcing_fv_min               =  -3.2721538799521E-01
(PID.TID 0000.0001) %MON forcing_fv_mean              =  -1.3685973598580E-02
(PID.TID 0000.0001) %MON forcing_fv_sd                =   7.5167085261439E-02
(PID.TID 0000.0001) %MON forcing_fv_del2              =   2.3378344325071E-04
(PID.TID 0000.0001) %MON advcfl_uvel_max              =   3.4648739047378E-03
(PID.TID 0000.0001) %MON advcfl_vvel_max              =   3.6263444891065E-03
(PID.TID 0000.0001) %MON advcfl_wvel_max              =   3.5681795905566E-03
(PID.TID 0000.0001) %MON advcfl_W_hf_max              =   3.9398649645729E-03
(PID.TID 0000.0001) %MON pe_b_mean                    =   4.7552251995361E-04
(PID.TID 0000.0001) %MON ke_max                       =   4.1493766240181E-02
(PID.TID 0000.0001) %MON ke_mean                      =   1.5251674396199E-04
(PID.TID 0000.0001) %MON ke_vol                       =   1.3398024453628E+18
(PID.TID 0000.0001) %MON vort_r_min                   =  -1.4612060695336E-06
(PID.TID 0000.0001) %MON vort_r_max                   =   1.4799167537315E-06
(PID.TID 0000.0001) %MON vort_a_mean                  =  -2.0549865324846E-05
(PID.TID 0000.0001) %MON vort_a_sd                    =   7.5259524685524E-05
(PID.TID 0000.0001) %MON vort_p_mean                  =  -2.4783522345032E-05
(PID.TID 0000.0001) %MON vort_p_sd                    =   1.2810656234787E-04
(PID.TID 0000.0001) %MON surfExpan_theta_mean         =   2.4043570465045E-07
(PID.TID 0000.0001) %MON surfExpan_salt_mean          =   5.2407127646404E-08
(PID.TID 0000.0001) // =======================================================
(PID.TID 0000.0001) // End MONITOR dynamic field statistics
(PID.TID 0000.0001) // =======================================================
(PID.TID 0000.0001) %CHECKPOINT     86410 ckptA
(PID.TID 0000.0001)   Seconds in section "ALL                    [THE_MODEL_MAIN]":
(PID.TID 0000.0001)           User time:   41.829640953801572
(PID.TID 0000.0001)         System time:  7.99880030099302530E-002
(PID.TID 0000.0001)     Wall clock time:   42.028752088546753
(PID.TID 0000.0001)          No. starts:           1
(PID.TID 0000.0001)           No. stops:           1
(PID.TID 0000.0001)   Seconds in section "INITIALISE_FIXED       [THE_MODEL_MAIN]":
(PID.TID 0000.0001)           User time:  0.34794700052589178
(PID.TID 0000.0001)         System time:  2.19969993922859430E-002
(PID.TID 0000.0001)     Wall clock time:  0.38885712623596191
(PID.TID 0000.0001)          No. starts:           1
(PID.TID 0000.0001)           No. stops:           1
(PID.TID 0000.0001)   Seconds in section "THE_MAIN_LOOP          [THE_MODEL_MAIN]":
(PID.TID 0000.0001)           User time:   41.481693953275681
(PID.TID 0000.0001)         System time:  5.79910036176443100E-002
(PID.TID 0000.0001)     Wall clock time:   41.639853954315186
(PID.TID 0000.0001)          No. starts:           1
(PID.TID 0000.0001)           No. stops:           1
(PID.TID 0000.0001)   Seconds in section "INITIALISE_VARIA    [THE_MAIN_LOOP]":
(PID.TID 0000.0001)           User time:  0.64590200781822205
(PID.TID 0000.0001)         System time:  3.79940029233694077E-002
(PID.TID 0000.0001)     Wall clock time:  0.69421195983886719
(PID.TID 0000.0001)          No. starts:           1
(PID.TID 0000.0001)           No. stops:           1
(PID.TID 0000.0001)   Seconds in section "MAIN LOOP           [THE_MAIN_LOOP]":
(PID.TID 0000.0001)           User time:   40.835791945457458
(PID.TID 0000.0001)         System time:  1.99970006942749023E-002
(PID.TID 0000.0001)     Wall clock time:   40.945611953735352
(PID.TID 0000.0001)          No. starts:           1
(PID.TID 0000.0001)           No. stops:           1
(PID.TID 0000.0001)   Seconds in section "MAIN_DO_LOOP        [THE_MAIN_LOOP]":
(PID.TID 0000.0001)           User time:   40.835791945457458
(PID.TID 0000.0001)         System time:  1.99970006942749023E-002
(PID.TID 0000.0001)     Wall clock time:   40.945514202117920
(PID.TID 0000.0001)          No. starts:          10
(PID.TID 0000.0001)           No. stops:          10
(PID.TID 0000.0001)   Seconds in section "FORWARD_STEP        [MAIN_DO_LOOP]":
(PID.TID 0000.0001)           User time:   40.835791945457458
(PID.TID 0000.0001)         System time:  1.99970006942749023E-002
(PID.TID 0000.0001)     Wall clock time:   40.945335626602173
(PID.TID 0000.0001)          No. starts:          10
(PID.TID 0000.0001)           No. stops:          10
(PID.TID 0000.0001)   Seconds in section "LOAD_FIELDS_DRIVER  [FORWARD_STEP]":
(PID.TID 0000.0001)           User time:  3.49981784820556641E-002
(PID.TID 0000.0001)         System time:   0.0000000000000000
(PID.TID 0000.0001)     Wall clock time:  3.59902381896972656E-002
(PID.TID 0000.0001)          No. starts:          10
(PID.TID 0000.0001)           No. stops:          10
(PID.TID 0000.0001)   Seconds in section "EXTERNAL_FLDS_LOAD [LOAD_FLDS_DRIVER]":
(PID.TID 0000.0001)           User time:  3.49981784820556641E-002
(PID.TID 0000.0001)         System time:   0.0000000000000000
(PID.TID 0000.0001)     Wall clock time:  3.58073711395263672E-002
(PID.TID 0000.0001)          No. starts:          10
(PID.TID 0000.0001)           No. stops:          10
(PID.TID 0000.0001)   Seconds in section "DO_ATMOSPHERIC_PHYS [FORWARD_STEP]":
(PID.TID 0000.0001)           User time:   0.0000000000000000
(PID.TID 0000.0001)         System time:   0.0000000000000000
(PID.TID 0000.0001)     Wall clock time:  9.44137573242187500E-005
(PID.TID 0000.0001)          No. starts:          10
(PID.TID 0000.0001)           No. stops:          10
(PID.TID 0000.0001)   Seconds in section "DO_OCEANIC_PHYS     [FORWARD_STEP]":
(PID.TID 0000.0001)           User time:   2.5826059579849243
(PID.TID 0000.0001)         System time:   0.0000000000000000
(PID.TID 0000.0001)     Wall clock time:   2.5919981002807617
(PID.TID 0000.0001)          No. starts:          10
(PID.TID 0000.0001)           No. stops:          10
(PID.TID 0000.0001)   Seconds in section "DYNAMICS            [FORWARD_STEP]":
(PID.TID 0000.0001)           User time:   9.5885379314422607
(PID.TID 0000.0001)         System time:  9.99994575977325439E-004
(PID.TID 0000.0001)     Wall clock time:   9.6099514961242676
(PID.TID 0000.0001)          No. starts:          10
(PID.TID 0000.0001)           No. stops:          10
(PID.TID 0000.0001)   Seconds in section "CALC_GW          [DYNAMICS]":
(PID.TID 0000.0001)           User time:   2.6985871791839600
(PID.TID 0000.0001)         System time:   0.0000000000000000
(PID.TID 0000.0001)     Wall clock time:   2.6943004131317139
(PID.TID 0000.0001)          No. starts:         120
(PID.TID 0000.0001)           No. stops:         120
(PID.TID 0000.0001)   Seconds in section "UPDATE_SURF_DR      [FORWARD_STEP]":
(PID.TID 0000.0001)           User time:  9.69865322113037109E-002
(PID.TID 0000.0001)         System time:   0.0000000000000000
(PID.TID 0000.0001)     Wall clock time:  9.49251651763916016E-002
(PID.TID 0000.0001)          No. starts:          10
(PID.TID 0000.0001)           No. stops:          10
(PID.TID 0000.0001)   Seconds in section "SOLVE_FOR_PRESSURE  [FORWARD_STEP]":
(PID.TID 0000.0001)           User time:   20.063958644866943
(PID.TID 0000.0001)         System time:  4.00000065565109253E-003
(PID.TID 0000.0001)     Wall clock time:   20.114309310913086
(PID.TID 0000.0001)          No. starts:          10
(PID.TID 0000.0001)           No. stops:          10
(PID.TID 0000.0001)   Seconds in section "CG3D   [SOLVE_FOR_PRESSURE]":
(PID.TID 0000.0001)           User time:   18.839134216308594
(PID.TID 0000.0001)         System time:  4.00000065565109253E-003
(PID.TID 0000.0001)     Wall clock time:   18.884773254394531
(PID.TID 0000.0001)          No. starts:          10
(PID.TID 0000.0001)           No. stops:          10
(PID.TID 0000.0001)   Seconds in section "MOM_CORRECTION_STEP [FORWARD_STEP]":
(PID.TID 0000.0001)           User time:  0.28794431686401367
(PID.TID 0000.0001)         System time:   0.0000000000000000
(PID.TID 0000.0001)     Wall clock time:  0.28911900520324707
(PID.TID 0000.0001)          No. starts:          10
(PID.TID 0000.0001)           No. stops:          10
(PID.TID 0000.0001)   Seconds in section "INTEGR_CONTINUITY   [FORWARD_STEP]":
(PID.TID 0000.0001)           User time:  0.32895469665527344
(PID.TID 0000.0001)         System time:   0.0000000000000000
(PID.TID 0000.0001)     Wall clock time:  0.33007073402404785
(PID.TID 0000.0001)          No. starts:          10
(PID.TID 0000.0001)           No. stops:          10
(PID.TID 0000.0001)   Seconds in section "BLOCKING_EXCHANGES  [FORWARD_STEP]":
(PID.TID 0000.0001)           User time:  0.39493751525878906
(PID.TID 0000.0001)         System time:   0.0000000000000000
(PID.TID 0000.0001)     Wall clock time:  0.39708065986633301
(PID.TID 0000.0001)          No. starts:          20
(PID.TID 0000.0001)           No. stops:          20
(PID.TID 0000.0001)   Seconds in section "THERMODYNAMICS      [FORWARD_STEP]":
(PID.TID 0000.0001)           User time:   4.7352752685546875
(PID.TID 0000.0001)         System time:  1.99900567531585693E-003
(PID.TID 0000.0001)     Wall clock time:   4.7450649738311768
(PID.TID 0000.0001)          No. starts:          10
(PID.TID 0000.0001)           No. stops:          10
(PID.TID 0000.0001)   Seconds in section "TRC_CORRECTION_STEP [FORWARD_STEP]":
(PID.TID 0000.0001)           User time:   0.0000000000000000
(PID.TID 0000.0001)         System time:   0.0000000000000000
(PID.TID 0000.0001)     Wall clock time:  1.05142593383789063E-004
(PID.TID 0000.0001)          No. starts:          10
(PID.TID 0000.0001)           No. stops:          10
(PID.TID 0000.0001)   Seconds in section "DO_STATEVARS_TAVE   [FORWARD_STEP]":
(PID.TID 0000.0001)           User time:  0.95086383819580078
(PID.TID 0000.0001)         System time:   0.0000000000000000
(PID.TID 0000.0001)     Wall clock time:  0.95286226272583008
(PID.TID 0000.0001)          No. starts:          10
(PID.TID 0000.0001)           No. stops:          10
(PID.TID 0000.0001)   Seconds in section "MONITOR             [FORWARD_STEP]":
(PID.TID 0000.0001)           User time:   1.6387476921081543
(PID.TID 0000.0001)         System time:   0.0000000000000000
(PID.TID 0000.0001)     Wall clock time:   1.6390230655670166
(PID.TID 0000.0001)          No. starts:          10
(PID.TID 0000.0001)           No. stops:          10
(PID.TID 0000.0001)   Seconds in section "DO_THE_MODEL_IO     [FORWARD_STEP]":
(PID.TID 0000.0001)           User time:  4.99954223632812500E-002
(PID.TID 0000.0001)         System time:  3.99899482727050781E-003
(PID.TID 0000.0001)     Wall clock time:  5.41431903839111328E-002
(PID.TID 0000.0001)          No. starts:          10
(PID.TID 0000.0001)           No. stops:          10
(PID.TID 0000.0001)   Seconds in section "DO_WRITE_PICKUP     [FORWARD_STEP]":
(PID.TID 0000.0001)           User time:  7.89871215820312500E-002
(PID.TID 0000.0001)         System time:  8.99900496006011963E-003
(PID.TID 0000.0001)     Wall clock time:  8.89399051666259766E-002
(PID.TID 0000.0001)          No. starts:          10
(PID.TID 0000.0001)           No. stops:          10
(PID.TID 0000.0001) // ======================================================
(PID.TID 0000.0001) // Tile <-> Tile communication statistics
(PID.TID 0000.0001) // ======================================================
(PID.TID 0000.0001) // o Tile number: 000001
(PID.TID 0000.0001) //         No. X exchanges =              0
(PID.TID 0000.0001) //            Max. X spins =              0
(PID.TID 0000.0001) //            Min. X spins =     1000000000
(PID.TID 0000.0001) //          Total. X spins =              0
(PID.TID 0000.0001) //            Avg. X spins =       0.00E+00
(PID.TID 0000.0001) //         No. Y exchanges =              0
(PID.TID 0000.0001) //            Max. Y spins =              0
(PID.TID 0000.0001) //            Min. Y spins =     1000000000
(PID.TID 0000.0001) //          Total. Y spins =              0
(PID.TID 0000.0001) //            Avg. Y spins =       0.00E+00
(PID.TID 0000.0001) // o Tile number: 000002
(PID.TID 0000.0001) //         No. X exchanges =              0
(PID.TID 0000.0001) //            Max. X spins =              0
(PID.TID 0000.0001) //            Min. X spins =     1000000000
(PID.TID 0000.0001) //          Total. X spins =              0
(PID.TID 0000.0001) //            Avg. X spins =       0.00E+00
(PID.TID 0000.0001) //         No. Y exchanges =              0
(PID.TID 0000.0001) //            Max. Y spins =              0
(PID.TID 0000.0001) //            Min. Y spins =     1000000000
(PID.TID 0000.0001) //          Total. Y spins =              0
(PID.TID 0000.0001) //            Avg. Y spins =       0.00E+00
(PID.TID 0000.0001) // o Tile number: 000003
(PID.TID 0000.0001) //         No. X exchanges =              0
(PID.TID 0000.0001) //            Max. X spins =              0
(PID.TID 0000.0001) //            Min. X spins =     1000000000
(PID.TID 0000.0001) //          Total. X spins =              0
(PID.TID 0000.0001) //            Avg. X spins =       0.00E+00
(PID.TID 0000.0001) //         No. Y exchanges =              0
(PID.TID 0000.0001) //            Max. Y spins =              0
(PID.TID 0000.0001) //            Min. Y spins =     1000000000
(PID.TID 0000.0001) //          Total. Y spins =              0
(PID.TID 0000.0001) //            Avg. Y spins =       0.00E+00
(PID.TID 0000.0001) // o Tile number: 000004
(PID.TID 0000.0001) //         No. X exchanges =              0
(PID.TID 0000.0001) //            Max. X spins =              0
(PID.TID 0000.0001) //            Min. X spins =     1000000000
(PID.TID 0000.0001) //          Total. X spins =              0
(PID.TID 0000.0001) //            Avg. X spins =       0.00E+00
(PID.TID 0000.0001) //         No. Y exchanges =              0
(PID.TID 0000.0001) //            Max. Y spins =              0
(PID.TID 0000.0001) //            Min. Y spins =     1000000000
(PID.TID 0000.0001) //          Total. Y spins =              0
(PID.TID 0000.0001) //            Avg. Y spins =       0.00E+00
(PID.TID 0000.0001) // o Tile number: 000005
(PID.TID 0000.0001) //         No. X exchanges =              0
(PID.TID 0000.0001) //            Max. X spins =              0
(PID.TID 0000.0001) //            Min. X spins =     1000000000
(PID.TID 0000.0001) //          Total. X spins =              0
(PID.TID 0000.0001) //            Avg. X spins =       0.00E+00
(PID.TID 0000.0001) //         No. Y exchanges =              0
(PID.TID 0000.0001) //            Max. Y spins =              0
(PID.TID 0000.0001) //            Min. Y spins =     1000000000
(PID.TID 0000.0001) //          Total. Y spins =              0
(PID.TID 0000.0001) //            Avg. Y spins =       0.00E+00
(PID.TID 0000.0001) // o Tile number: 000006
(PID.TID 0000.0001) //         No. X exchanges =              0
(PID.TID 0000.0001) //            Max. X spins =              0
(PID.TID 0000.0001) //            Min. X spins =     1000000000
(PID.TID 0000.0001) //          Total. X spins =              0
(PID.TID 0000.0001) //            Avg. X spins =       0.00E+00
(PID.TID 0000.0001) //         No. Y exchanges =              0
(PID.TID 0000.0001) //            Max. Y spins =              0
(PID.TID 0000.0001) //            Min. Y spins =     1000000000
(PID.TID 0000.0001) //          Total. Y spins =              0
(PID.TID 0000.0001) //            Avg. Y spins =       0.00E+00
(PID.TID 0000.0001) // o Tile number: 000007
(PID.TID 0000.0001) //         No. X exchanges =              0
(PID.TID 0000.0001) //            Max. X spins =              0
(PID.TID 0000.0001) //            Min. X spins =     1000000000
(PID.TID 0000.0001) //          Total. X spins =              0
(PID.TID 0000.0001) //            Avg. X spins =       0.00E+00
(PID.TID 0000.0001) //         No. Y exchanges =              0
(PID.TID 0000.0001) //            Max. Y spins =              0
(PID.TID 0000.0001) //            Min. Y spins =     1000000000
(PID.TID 0000.0001) //          Total. Y spins =              0
(PID.TID 0000.0001) //            Avg. Y spins =       0.00E+00
(PID.TID 0000.0001) // o Tile number: 000008
(PID.TID 0000.0001) //         No. X exchanges =              0
(PID.TID 0000.0001) //            Max. X spins =              0
(PID.TID 0000.0001) //            Min. X spins =     1000000000
(PID.TID 0000.0001) //          Total. X spins =              0
(PID.TID 0000.0001) //            Avg. X spins =       0.00E+00
(PID.TID 0000.0001) //         No. Y exchanges =              0
(PID.TID 0000.0001) //            Max. Y spins =              0
(PID.TID 0000.0001) //            Min. Y spins =     1000000000
(PID.TID 0000.0001) //          Total. Y spins =              0
(PID.TID 0000.0001) //            Avg. Y spins =       0.00E+00
(PID.TID 0000.0001) // o Tile number: 000009
(PID.TID 0000.0001) //         No. X exchanges =              0
(PID.TID 0000.0001) //            Max. X spins =              0
(PID.TID 0000.0001) //            Min. X spins =     1000000000
(PID.TID 0000.0001) //          Total. X spins =              0
(PID.TID 0000.0001) //            Avg. X spins =       0.00E+00
(PID.TID 0000.0001) //         No. Y exchanges =              0
(PID.TID 0000.0001) //            Max. Y spins =              0
(PID.TID 0000.0001) //            Min. Y spins =     1000000000
(PID.TID 0000.0001) //          Total. Y spins =              0
(PID.TID 0000.0001) //            Avg. Y spins =       0.00E+00
(PID.TID 0000.0001) // o Tile number: 000010
(PID.TID 0000.0001) //         No. X exchanges =              0
(PID.TID 0000.0001) //            Max. X spins =              0
(PID.TID 0000.0001) //            Min. X spins =     1000000000
(PID.TID 0000.0001) //          Total. X spins =              0
(PID.TID 0000.0001) //            Avg. X spins =       0.00E+00
(PID.TID 0000.0001) //         No. Y exchanges =              0
(PID.TID 0000.0001) //            Max. Y spins =              0
(PID.TID 0000.0001) //            Min. Y spins =     1000000000
(PID.TID 0000.0001) //          Total. Y spins =              0
(PID.TID 0000.0001) //            Avg. Y spins =       0.00E+00
(PID.TID 0000.0001) // o Tile number: 000011
(PID.TID 0000.0001) //         No. X exchanges =              0
(PID.TID 0000.0001) //            Max. X spins =              0
(PID.TID 0000.0001) //            Min. X spins =     1000000000
(PID.TID 0000.0001) //          Total. X spins =              0
(PID.TID 0000.0001) //            Avg. X spins =       0.00E+00
(PID.TID 0000.0001) //         No. Y exchanges =              0
(PID.TID 0000.0001) //            Max. Y spins =              0
(PID.TID 0000.0001) //            Min. Y spins =     1000000000
(PID.TID 0000.0001) //          Total. Y spins =              0
(PID.TID 0000.0001) //            Avg. Y spins =       0.00E+00
(PID.TID 0000.0001) // o Tile number: 000012
(PID.TID 0000.0001) //         No. X exchanges =              0
(PID.TID 0000.0001) //            Max. X spins =              0
(PID.TID 0000.0001) //            Min. X spins =     1000000000
(PID.TID 0000.0001) //          Total. X spins =              0
(PID.TID 0000.0001) //            Avg. X spins =       0.00E+00
(PID.TID 0000.0001) //         No. Y exchanges =              0
(PID.TID 0000.0001) //            Max. Y spins =              0
(PID.TID 0000.0001) //            Min. Y spins =     1000000000
(PID.TID 0000.0001) //          Total. Y spins =              0
(PID.TID 0000.0001) //            Avg. Y spins =       0.00E+00
(PID.TID 0000.0001) // o Thread number: 000001
(PID.TID 0000.0001) //            No. barriers =          10282
(PID.TID 0000.0001) //      Max. barrier spins =              1
(PID.TID 0000.0001) //      Min. barrier spins =              1
(PID.TID 0000.0001) //     Total barrier spins =          10282
(PID.TID 0000.0001) //      Avg. barrier spins =       1.00E+00
PROGRAM MAIN: Execution ended Normally
