(PID.TID 0000.0001) 
(PID.TID 0000.0001) // ======================================================
(PID.TID 0000.0001) //                      MITgcm UV
(PID.TID 0000.0001) //                      =========
(PID.TID 0000.0001) // ======================================================
(PID.TID 0000.0001) // execution environment starting up...
(PID.TID 0000.0001) 
(PID.TID 0000.0001) // MITgcmUV version:  checkpoint67t
(PID.TID 0000.0001) // Build user:        jm_c
(PID.TID 0000.0001) // Build host:        villon
(PID.TID 0000.0001) // Build date:        Fri Dec 11 10:32:46 EST 2020
(PID.TID 0000.0001) 
(PID.TID 0000.0001) // =======================================================
(PID.TID 0000.0001) // Execution Environment parameter file "eedata"
(PID.TID 0000.0001) // =======================================================
(PID.TID 0000.0001) ># Example "eedata" file
(PID.TID 0000.0001) ># Lines beginning "#" are comments
(PID.TID 0000.0001) ># nTx - No. threads per process in X
(PID.TID 0000.0001) ># nTy - No. threads per process in Y
(PID.TID 0000.0001) > &EEPARMS
(PID.TID 0000.0001) > useCubedSphereExchange=.TRUE.,
(PID.TID 0000.0001) > nTx=1,
(PID.TID 0000.0001) > nTy=1,
(PID.TID 0000.0001) > /
(PID.TID 0000.0001) ># Note: Some systems use & as the
(PID.TID 0000.0001) ># namelist terminator. Other systems
(PID.TID 0000.0001) ># use a / character (as shown here).
(PID.TID 0000.0001) 
(PID.TID 0000.0001) // =======================================================
(PID.TID 0000.0001) // Computational Grid Specification ( see files "SIZE.h" )
(PID.TID 0000.0001) //                                  ( and "eedata"       )
(PID.TID 0000.0001) // =======================================================
(PID.TID 0000.0001)      nPx =    1 ; /* No. processes in X */
(PID.TID 0000.0001)      nPy =    1 ; /* No. processes in Y */
(PID.TID 0000.0001)      nSx =   12 ; /* No. tiles in X per process */
(PID.TID 0000.0001)      nSy =    1 ; /* No. tiles in Y per process */
(PID.TID 0000.0001)      sNx =   32 ; /* Tile size in X */
(PID.TID 0000.0001)      sNy =   16 ; /* Tile size in Y */
(PID.TID 0000.0001)      OLx =    4 ; /* Tile overlap distance in X */
(PID.TID 0000.0001)      OLy =    4 ; /* Tile overlap distance in Y */
(PID.TID 0000.0001)      nTx =    1 ; /* No. threads in X per process */
(PID.TID 0000.0001)      nTy =    1 ; /* No. threads in Y per process */
(PID.TID 0000.0001)       Nr =   15 ; /* No. levels in the vertical   */
(PID.TID 0000.0001)       Nx =  384 ; /* Total domain size in X ( = nPx*nSx*sNx ) */
(PID.TID 0000.0001)       Ny =   16 ; /* Total domain size in Y ( = nPy*nSy*sNy ) */
(PID.TID 0000.0001)   nTiles =   12 ; /* Total no. tiles per process ( = nSx*nSy ) */
(PID.TID 0000.0001)   nProcs =    1 ; /* Total no. processes ( = nPx*nPy ) */
(PID.TID 0000.0001) nThreads =    1 ; /* Total no. threads per process ( = nTx*nTy ) */
(PID.TID 0000.0001) usingMPI =    F ; /* Flag used to control whether MPI is in use */
(PID.TID 0000.0001)                   /*  note: To execute a program with MPI calls */
(PID.TID 0000.0001)                   /*  it must be launched appropriately e.g     */
(PID.TID 0000.0001)                   /*  "mpirun -np 64 ......"                    */
(PID.TID 0000.0001) useCoupler=   F ; /* Flag used to control communications with   */
(PID.TID 0000.0001)                   /*  other model components, through a coupler */
(PID.TID 0000.0001) useNest2W_parent =    F ;/* Control 2-W Nesting comm */
(PID.TID 0000.0001) useNest2W_child  =    F ;/* Control 2-W Nesting comm */
(PID.TID 0000.0001) debugMode =    F ; /* print debug msg. (sequence of S/R calls)  */
(PID.TID 0000.0001) printMapIncludesZeros=    F ; /* print zeros in Std.Output maps */
(PID.TID 0000.0001) maxLengthPrt1D=   65 /* maxLength of 1D array printed to StdOut */
(PID.TID 0000.0001) 
(PID.TID 0000.0001) // ======================================================
(PID.TID 0000.0001) // Mapping of tiles to threads
(PID.TID 0000.0001) // ======================================================
(PID.TID 0000.0001) // -o- Thread   1, tiles (   1:  12,   1:   1)
(PID.TID 0000.0001) 
(PID.TID 0000.0001) W2_READPARMS: file data.exch2 not found
(PID.TID 0000.0001) => use W2_EXCH2 default: regular 6-facets Cube
(PID.TID 0000.0001) W2_useE2ioLayOut=    T ;/* T: use Exch2 glob IO map; F: use model default */
(PID.TID 0000.0001) W2_mapIO        =  -1 ; /* select option for Exch2 global-IO map */
(PID.TID 0000.0001) W2_printMsg     =  -1 ; /* select option for printing information */
(PID.TID 0000.0001) ===== Start setting W2 TOPOLOGY:
(PID.TID 0000.0001)  write to log-file: w2_tile_topology.0000.log
(PID.TID 0000.0001) =====       setting W2 TOPOLOGY: Done
(PID.TID 0000.0001) 
(PID.TID 0000.0001)  INI_PARMS: opening model parameter file "data"
(PID.TID 0000.0001)  OPEN_COPY_DATA_FILE: opening file data
(PID.TID 0000.0001) // =======================================================
(PID.TID 0000.0001) // Parameter file "data"
(PID.TID 0000.0001) // =======================================================
(PID.TID 0000.0001) ># ====================
(PID.TID 0000.0001) ># | Model parameters |
(PID.TID 0000.0001) ># ====================
(PID.TID 0000.0001) >#
(PID.TID 0000.0001) ># Continuous equation parameters
(PID.TID 0000.0001) > &PARM01
(PID.TID 0000.0001) > tRef=15*20.,
(PID.TID 0000.0001) > sRef=15*35.,
(PID.TID 0000.0001) > viscAh =3.E5,
(PID.TID 0000.0001) >#- biharmonic Viscosity: 3.e15 is close to the stability limit with deltaTmom=20mn
(PID.TID 0000.0001) >#viscA4 =3.E15,
(PID.TID 0000.0001) > viscAr =1.E-3,
(PID.TID 0000.0001) > diffKhT=0.,
(PID.TID 0000.0001) > diffK4T=0.,
(PID.TID 0000.0001) >#- diffKrT unused when compiled with ALLOW_3D_DIFFKR
(PID.TID 0000.0001) >#diffKrT=3.E-5,
(PID.TID 0000.0001) > diffKhS=0.,
(PID.TID 0000.0001) > diffK4S=0.,
(PID.TID 0000.0001) > diffKrS=3.E-5,
(PID.TID 0000.0001) > ivdc_kappa=10.,
(PID.TID 0000.0001) > implicitDiffusion=.TRUE.,
(PID.TID 0000.0001) > gravity=9.81,
(PID.TID 0000.0001) > rhoConst=1035.,
(PID.TID 0000.0001) > rhoConstFresh=1000.,
(PID.TID 0000.0001) > eosType='JMD95Z',
(PID.TID 0000.0001) > staggerTimeStep=.TRUE.,
(PID.TID 0000.0001) > vectorInvariantMomentum=.TRUE.,
(PID.TID 0000.0001) > implicitFreeSurface=.TRUE.,
(PID.TID 0000.0001) > tempAdvScheme=30,
(PID.TID 0000.0001) > saltAdvScheme=30,
(PID.TID 0000.0001) > exactConserv=.TRUE.,
(PID.TID 0000.0001) > select_rStar=1,
(PID.TID 0000.0001) > nonlinFreeSurf=2,
(PID.TID 0000.0001) > hFacInf=0.2,
(PID.TID 0000.0001) > hFacSup=2.0,
(PID.TID 0000.0001) > useRealFreshWaterFlux=.TRUE.,
(PID.TID 0000.0001) >### allowFreezing=.TRUE.,
(PID.TID 0000.0001) > hFacMin=.1,
(PID.TID 0000.0001) > hFacMinDr=20.,
(PID.TID 0000.0001) > readBinaryPrec=64,
(PID.TID 0000.0001) > /
(PID.TID 0000.0001) >
(PID.TID 0000.0001) ># Elliptic solver parameters
(PID.TID 0000.0001) > &PARM02
(PID.TID 0000.0001) > cg2dMaxIters=200,
(PID.TID 0000.0001) >#cg2dTargetResidual=1.E-9,
(PID.TID 0000.0001) > cg2dTargetResWunit=1.E-14,
(PID.TID 0000.0001) > /
(PID.TID 0000.0001) >
(PID.TID 0000.0001) ># Time stepping parameters
(PID.TID 0000.0001) > &PARM03
(PID.TID 0000.0001) > nIter0=72000,
(PID.TID 0000.0001) > nTimeSteps= 5,
(PID.TID 0000.0001) > deltaTMom   =1200.,
(PID.TID 0000.0001) > deltaTtracer=86400.,
(PID.TID 0000.0001) > deltaTFreeSurf=86400.,
(PID.TID 0000.0001) > deltaTClock =86400.,
(PID.TID 0000.0001) > abEps = 0.1,
(PID.TID 0000.0001) > alph_AB=0.6,
(PID.TID 0000.0001) > beta_AB=0.0,
(PID.TID 0000.0001) > forcing_In_AB=.FALSE.,
(PID.TID 0000.0001) > pChkptFreq  =311040000.,
(PID.TID 0000.0001) > chkptFreq   = 31104000.,
(PID.TID 0000.0001) >#taveFreq    =311040000.,
(PID.TID 0000.0001) >#dumpFreq    = 31104000.,
(PID.TID 0000.0001) >#adjDumpFreq = 31104000.,
(PID.TID 0000.0001) >#monitorFreq = 31104000.,
(PID.TID 0000.0001) >#- forcing is set by EXF
(PID.TID 0000.0001) ># periodicExternalForcing=.TRUE.,
(PID.TID 0000.0001) ># externForcingPeriod=2592000.,
(PID.TID 0000.0001) ># externForcingCycle=31104000.,
(PID.TID 0000.0001) ># 2 months restoring timescale for temperature
(PID.TID 0000.0001) ># tauThetaClimRelax = 5184000.,
(PID.TID 0000.0001) ># 2yrs restoring timescale for salinity
(PID.TID 0000.0001) ># tauSaltClimRelax = 62208000.,
(PID.TID 0000.0001) > monitorFreq   =1.,
(PID.TID 0000.0001) > adjMonitorFreq=1.,
(PID.TID 0000.0001) > dumpFreq    = 432000.,
(PID.TID 0000.0001) > adjDumpFreq = 432000.,
(PID.TID 0000.0001) > pickupStrictlyMatch=.FALSE.,
(PID.TID 0000.0001) > /
(PID.TID 0000.0001) >
(PID.TID 0000.0001) ># Gridding parameters
(PID.TID 0000.0001) > &PARM04
(PID.TID 0000.0001) > usingCurvilinearGrid=.TRUE.,
(PID.TID 0000.0001) > horizGridFile='grid_cs32',
(PID.TID 0000.0001) > delR= 50., 70., 100., 140., 190.,
(PID.TID 0000.0001) >       240., 290., 340., 390., 440.,
(PID.TID 0000.0001) >       490., 540., 590., 640., 690.,
(PID.TID 0000.0001) > /
(PID.TID 0000.0001) >
(PID.TID 0000.0001) ># Input datasets
(PID.TID 0000.0001) > &PARM05
(PID.TID 0000.0001) > bathyFile      ='bathy_Hmin50.bin',
(PID.TID 0000.0001) > hydrogThetaFile='lev_T_cs_15k.bin',
(PID.TID 0000.0001) > hydrogSaltFile ='lev_S_cs_15k.bin',
(PID.TID 0000.0001) >#- forcing is set by EXF
(PID.TID 0000.0001) ># zonalWindFile  ='trenberth_taux.bin',
(PID.TID 0000.0001) ># meridWindFile  ='trenberth_tauy.bin',
(PID.TID 0000.0001) ># thetaClimFile  ='lev_surfT_cs_12m.bin',
(PID.TID 0000.0001) ># saltClimFile   ='lev_surfS_cs_12m.bin',
(PID.TID 0000.0001) ># surfQnetFile   ='shiQnet_cs32.bin',
(PID.TID 0000.0001) ># EmPmRFile      ='shiEmPR_cs32.bin',
(PID.TID 0000.0001) > /
(PID.TID 0000.0001) 
(PID.TID 0000.0001)  INI_PARMS ; starts to read PARM01
(PID.TID 0000.0001)  INI_PARMS ; read PARM01 : OK
(PID.TID 0000.0001)  INI_PARMS ; starts to read PARM02
(PID.TID 0000.0001)  INI_PARMS ; read PARM02 : OK
(PID.TID 0000.0001)  INI_PARMS ; starts to read PARM03
(PID.TID 0000.0001)  INI_PARMS ; read PARM03 : OK
(PID.TID 0000.0001)  INI_PARMS ; starts to read PARM04
(PID.TID 0000.0001)  INI_PARMS ; read PARM04 : OK
(PID.TID 0000.0001)  INI_PARMS ; starts to read PARM05
(PID.TID 0000.0001)  INI_PARMS ; read PARM05 : OK
(PID.TID 0000.0001)  INI_PARMS: finished reading file "data"
(PID.TID 0000.0001)  PACKAGES_BOOT: opening data.pkg
(PID.TID 0000.0001)  OPEN_COPY_DATA_FILE: opening file data.pkg
(PID.TID 0000.0001) // =======================================================
(PID.TID 0000.0001) // Parameter file "data.pkg"
(PID.TID 0000.0001) // =======================================================
(PID.TID 0000.0001) ># Packages
(PID.TID 0000.0001) > &PACKAGES
(PID.TID 0000.0001) > useGMRedi = .TRUE.,
(PID.TID 0000.0001) > useEXF    = .TRUE.,
(PID.TID 0000.0001) > useCAL    = .TRUE.,
(PID.TID 0000.0001) > useTHSICE = .FALSE.,
(PID.TID 0000.0001) > useSEAICE = .TRUE.,
(PID.TID 0000.0001) >#useDiagnostics=.TRUE.,
(PID.TID 0000.0001) >#useMNC=.TRUE.,
(PID.TID 0000.0001) > useGrdchk=.TRUE.,
(PID.TID 0000.0001) > /
(PID.TID 0000.0001) 
(PID.TID 0000.0001)  PACKAGES_BOOT: finished reading data.pkg
(PID.TID 0000.0001)  PACKAGES_BOOT: On/Off package Summary
 --------  pkgs with a standard "usePKG" On/Off switch in "data.pkg":  --------
 pkg/gmredi               compiled   and   used ( useGMRedi                = T )
 pkg/cal                  compiled   and   used ( useCAL                   = T )
 pkg/exf                  compiled   and   used ( useEXF                   = T )
 pkg/autodiff             compiled   and   used ( useAUTODIFF              = T )
 pkg/grdchk               compiled   and   used ( useGrdchk                = T )
 pkg/ctrl                 compiled   and   used ( useCTRL                  = T )
 pkg/seaice               compiled   and   used ( useSEAICE                = T )
 pkg/thsice               compiled but not used ( useThSIce                = F )
 pkg/diagnostics          compiled but not used ( useDiagnostics           = F )
 -------- pkgs without standard "usePKG" On/Off switch in "data.pkg":  --------
 pkg/generic_advdiff      compiled   and   used ( useGAD                   = T )
 pkg/mom_common           compiled   and   used ( momStepping              = T )
 pkg/mom_vecinv           compiled   and   used ( +vectorInvariantMomentum = T )
 pkg/monitor              compiled   and   used ( monitorFreq > 0.         = T )
 pkg/debug                compiled but not used ( debugMode                = F )
 pkg/exch2                compiled   and   used
 pkg/rw                   compiled   and   used
 pkg/mdsio                compiled   and   used
 pkg/autodiff             compiled   and   used
 pkg/cost                 compiled   and   used
(PID.TID 0000.0001)  PACKAGES_BOOT: End of package Summary
(PID.TID 0000.0001) 
(PID.TID 0000.0001) CAL_READPARMS: opening data.cal
(PID.TID 0000.0001)  OPEN_COPY_DATA_FILE: opening file data.cal
(PID.TID 0000.0001) // =======================================================
(PID.TID 0000.0001) // Parameter file "data.cal"
(PID.TID 0000.0001) // =======================================================
(PID.TID 0000.0001) >#
(PID.TID 0000.0001) ># *******************
(PID.TID 0000.0001) ># Calendar Parameters
(PID.TID 0000.0001) ># *******************
(PID.TID 0000.0001) > &CAL_NML
(PID.TID 0000.0001) > TheCalendar='model',
(PID.TID 0000.0001) > startDate_1=00010101,
(PID.TID 0000.0001) > startDate_2=000000,
(PID.TID 0000.0001) > /
(PID.TID 0000.0001) 
(PID.TID 0000.0001) CAL_READPARMS: finished reading data.cal
(PID.TID 0000.0001) EXF_READPARMS: opening data.exf
(PID.TID 0000.0001)  OPEN_COPY_DATA_FILE: opening file data.exf
(PID.TID 0000.0001) // =======================================================
(PID.TID 0000.0001) // Parameter file "data.exf"
(PID.TID 0000.0001) // =======================================================
(PID.TID 0000.0001) ># *********************
(PID.TID 0000.0001) ># External Forcing Data
(PID.TID 0000.0001) ># *********************
(PID.TID 0000.0001) > &EXF_NML_01
(PID.TID 0000.0001) >#exf_debugLev      = 3,
(PID.TID 0000.0001) >#useExfCheckRange  = .TRUE.,
(PID.TID 0000.0001) >#useStabilityFct_overIce=.TRUE.,
(PID.TID 0000.0001) >#snow_emissivity   = 0.98,
(PID.TID 0000.0001) >#ice_emissivity    = 0.98,
(PID.TID 0000.0001) > ocean_emissivity  = 1.,
(PID.TID 0000.0001) > atmrho            = 1.22,
(PID.TID 0000.0001) > humid_fac         = .608,
(PID.TID 0000.0001) > ht                = 10.,
(PID.TID 0000.0001) > exf_albedo        = 0.066,
(PID.TID 0000.0001) >#readStressOnAgrid = .TRUE.,
(PID.TID 0000.0001) > readStressOnCgrid = .TRUE.,
(PID.TID 0000.0001) > exf_monFreq       = 0.,
(PID.TID 0000.0001) > repeatPeriod      = 31104000.,
(PID.TID 0000.0001) > exf_iprec         = 64,
(PID.TID 0000.0001) > /
(PID.TID 0000.0001) >
(PID.TID 0000.0001) ># *********************
(PID.TID 0000.0001) > &EXF_NML_02
(PID.TID 0000.0001) >#
(PID.TID 0000.0001) > atempstartdate1   = 00010116,
(PID.TID 0000.0001) >#atempstartdate2   = 180000,
(PID.TID 0000.0001) > atempperiod       = 2592000.0,
(PID.TID 0000.0001) >#
(PID.TID 0000.0001) > aqhstartdate1     = 00010116,
(PID.TID 0000.0001) >#aqhstartdate2     = 180000,
(PID.TID 0000.0001) > aqhperiod         = 2592000.0,
(PID.TID 0000.0001) >#
(PID.TID 0000.0001) > precipstartdate1  = 00010116,
(PID.TID 0000.0001) >#precipstartdate2  = 180000,
(PID.TID 0000.0001) > precipperiod      = 2592000.0,
(PID.TID 0000.0001) >#
(PID.TID 0000.0001) > snowprecipstartdate1= 00010116,
(PID.TID 0000.0001) >#snowprecipstartdate2= 180000,
(PID.TID 0000.0001) > snowprecipperiod    = 2592000.,
(PID.TID 0000.0001) >#
(PID.TID 0000.0001) > runoffstartdate1  = 00010116,
(PID.TID 0000.0001) >#runoffstartdate2  = 180000,
(PID.TID 0000.0001) > runoffperiod      = 2592000.0,
(PID.TID 0000.0001) >#
(PID.TID 0000.0001) > uwindstartdate1   = 00010116,
(PID.TID 0000.0001) >#uwindstartdate2   = 180000,
(PID.TID 0000.0001) > uwindperiod       = 2592000.0,
(PID.TID 0000.0001) >#
(PID.TID 0000.0001) > vwindstartdate1   = 00010116,
(PID.TID 0000.0001) >#vwindstartdate2   = 180000,
(PID.TID 0000.0001) > vwindperiod       = 2592000.0,
(PID.TID 0000.0001) >#
(PID.TID 0000.0001) > ustressstartdate1 = 00010116,
(PID.TID 0000.0001) >#ustressstartdate2 = 180000,
(PID.TID 0000.0001) > ustressperiod     = 2592000.0,
(PID.TID 0000.0001) >#
(PID.TID 0000.0001) > vstressstartdate1 = 00010116,
(PID.TID 0000.0001) >#vstressstartdate2 = 180000,
(PID.TID 0000.0001) > vstressperiod     = 2592000.0,
(PID.TID 0000.0001) >#
(PID.TID 0000.0001) > wspeedstartdate1  = 00010116,
(PID.TID 0000.0001) >#wspeedstartdate2  = 180000,
(PID.TID 0000.0001) > wspeedperiod      = 2592000.0,
(PID.TID 0000.0001) >#
(PID.TID 0000.0001) > swdownstartdate1  = 00010116,
(PID.TID 0000.0001) >#swdownstartdate2  = 180000,
(PID.TID 0000.0001) > swdownperiod      = 2592000.0,
(PID.TID 0000.0001) >#
(PID.TID 0000.0001) > lwdownstartdate1  = 00010116,
(PID.TID 0000.0001) >#lwdownstartdate2  = 180000,
(PID.TID 0000.0001) > lwdownperiod      = 2592000.0,
(PID.TID 0000.0001) >#
(PID.TID 0000.0001) > climsssstartdate1  = 00010116,
(PID.TID 0000.0001) >#climsssstartdate2  = 180000,
(PID.TID 0000.0001) > climsssperiod      = 2592000.0,
(PID.TID 0000.0001) >#
(PID.TID 0000.0001) > climsststartdate1  = 00010116,
(PID.TID 0000.0001) >#climsststartdate2  = 180000,
(PID.TID 0000.0001) > climsstperiod      = 2592000.0,
(PID.TID 0000.0001) >#
(PID.TID 0000.0001) > atempfile         = 'core_t_Air_cs32.bin',
(PID.TID 0000.0001) > aqhfile           = 'core_q_air_cs32.bin',
(PID.TID 0000.0001) > ustressfile       = 'trenberth_taux.bin',
(PID.TID 0000.0001) > vstressfile       = 'trenberth_tauy.bin',
(PID.TID 0000.0001) >#uwindfile         = 'core_u_wind_cs32.bin',
(PID.TID 0000.0001) >#vwindfile         = 'core_v_wind_cs32.bin',
(PID.TID 0000.0001) > wspeedfile        = 'core_wndSpd_cs32.bin',
(PID.TID 0000.0001) > precipfile        = 'core_prec_1_cs32.bin',
(PID.TID 0000.0001) >#snowprecipfile    = 'core_snwP_1_cs32.bin',
(PID.TID 0000.0001) > lwdownfile        = 'core_dwnLw_cs32.bin',
(PID.TID 0000.0001) > swdownfile        = 'core_dwnSw_cs32.bin',
(PID.TID 0000.0001) > runoffFile        = 'core_rnof_1_cs32.bin'
(PID.TID 0000.0001) > climsstfile       = 'lev_surfT_cs_12m.bin',
(PID.TID 0000.0001) > climsssfile       = 'lev_surfS_cs_12m.bin',
(PID.TID 0000.0001) >#
(PID.TID 0000.0001) > /
(PID.TID 0000.0001) >
(PID.TID 0000.0001) ># *********************
(PID.TID 0000.0001) > &EXF_NML_03
(PID.TID 0000.0001) > /
(PID.TID 0000.0001) >
(PID.TID 0000.0001) ># *********************
(PID.TID 0000.0001) > &EXF_NML_04
(PID.TID 0000.0001) > /
(PID.TID 0000.0001) 
(PID.TID 0000.0001) EXF_READPARMS: reading EXF_NML_01
(PID.TID 0000.0001) EXF_READPARMS: reading EXF_NML_02
(PID.TID 0000.0001) EXF_READPARMS: reading EXF_NML_03
(PID.TID 0000.0001) EXF_READPARMS: finished reading data.exf
(PID.TID 0000.0001)  GM_READPARMS: opening data.gmredi
(PID.TID 0000.0001)  OPEN_COPY_DATA_FILE: opening file data.gmredi
(PID.TID 0000.0001) // =======================================================
(PID.TID 0000.0001) // Parameter file "data.gmredi"
(PID.TID 0000.0001) // =======================================================
(PID.TID 0000.0001) ># GM+Redi package parameters:
(PID.TID 0000.0001) >#     GM_Small_Number  :: epsilon used in computing the slope
(PID.TID 0000.0001) >#     GM_slopeSqCutoff :: slope^2 cut-off value
(PID.TID 0000.0001) >
(PID.TID 0000.0001) >#-from MOM :
(PID.TID 0000.0001) ># GM_background_K: 	G & Mc.W  diffusion coefficient
(PID.TID 0000.0001) ># GM_maxSlope    :	max slope of isopycnals
(PID.TID 0000.0001) ># GM_Scrit       :	transition for scaling diffusion coefficient
(PID.TID 0000.0001) ># GM_Sd          :	half width scaling for diffusion coefficient
(PID.TID 0000.0001) ># GM_taper_scheme:	slope clipping or one of the tapering schemes
(PID.TID 0000.0001) ># GM_Kmin_horiz  :	horizontal diffusion minimum value
(PID.TID 0000.0001) >
(PID.TID 0000.0001) >#-Option parameters (needs to "define" options in GMREDI_OPTIONS.h")
(PID.TID 0000.0001) ># GM_isopycK     :	isopycnal diffusion coefficient (default=GM_background_K)
(PID.TID 0000.0001) ># GM_AdvForm     :	turn on GM Advective form       (default=Skew flux form)
(PID.TID 0000.0001) >
(PID.TID 0000.0001) > &GM_PARM01
(PID.TID 0000.0001) >  GM_Small_Number  = 1.D-20,
(PID.TID 0000.0001) >  GM_slopeSqCutoff = 1.D+08,
(PID.TID 0000.0001) >  GM_AdvForm         = .FALSE.,
(PID.TID 0000.0001) >  GM_background_K    = 1.D+3,
(PID.TID 0000.0001) >  GM_taper_scheme    = 'dm95',
(PID.TID 0000.0001) >  GM_maxSlope        = 1.D-2,
(PID.TID 0000.0001) >  GM_Kmin_horiz      = 50.,
(PID.TID 0000.0001) >  GM_Scrit           = 4.D-3,
(PID.TID 0000.0001) >  GM_Sd              = 1.D-3,
(PID.TID 0000.0001) >#  GM_Visbeck_alpha   = 1.5D-2,
(PID.TID 0000.0001) >  GM_Visbeck_alpha   = 0.,
(PID.TID 0000.0001) >  GM_Visbeck_length  = 2.D+5,
(PID.TID 0000.0001) >  GM_Visbeck_depth   = 1.D+3,
(PID.TID 0000.0001) >  GM_Visbeck_maxval_K= 2.5D+3,
(PID.TID 0000.0001) > /
(PID.TID 0000.0001) >
(PID.TID 0000.0001) >
(PID.TID 0000.0001) 
(PID.TID 0000.0001)  GM_READPARMS: finished reading data.gmredi
(PID.TID 0000.0001) 
(PID.TID 0000.0001)  SEAICE_READPARMS: opening data.seaice
(PID.TID 0000.0001)  OPEN_COPY_DATA_FILE: opening file data.seaice
(PID.TID 0000.0001) // =======================================================
(PID.TID 0000.0001) // Parameter file "data.seaice"
(PID.TID 0000.0001) // =======================================================
(PID.TID 0000.0001) ># SEAICE parameters
(PID.TID 0000.0001) > &SEAICE_PARM01
(PID.TID 0000.0001) > LSR_ERROR             = 1.E-12,
(PID.TID 0000.0001) >#SEAICE_deltaTevp = 60.,
(PID.TID 0000.0001) > SEAICEuseDynamics = .TRUE.,
(PID.TID 0000.0001) > SEAICEuseFREEDRIFT = .FALSE.,
(PID.TID 0000.0001) ># for backward compatibility only
(PID.TID 0000.0001) > SEAICE_clipVelocities = .TRUE.,
(PID.TID 0000.0001) >#- to reproduce old results with former #undef SEAICE_SOLVE4TEMP_LEGACY code
(PID.TID 0000.0001) > SEAICE_wetAlbTemp = 0.,
(PID.TID 0000.0001) > SEAICE_snowThick  = 0.,
(PID.TID 0000.0001) >#
(PID.TID 0000.0001) > SEAICE_salt0          = 4.,
(PID.TID 0000.0001) > SEAICEadvScheme       = 30,
(PID.TID 0000.0001) > SEAICE_areaLossFormula=2,
(PID.TID 0000.0001) > SEAICE_mcPheePiston   = 0.0005787037037037037,
(PID.TID 0000.0001) >#SEAICE_monFreq        = 2592000.,
(PID.TID 0000.0001) >#SEAICEwriteState      = .TRUE.,
(PID.TID 0000.0001) ># old defaults
(PID.TID 0000.0001) > SEAICEscaleSurfStress = .FALSE.,
(PID.TID 0000.0001) > SEAICEaddSnowMass     = .FALSE.,
(PID.TID 0000.0001) > SEAICE_useMultDimSnow = .FALSE.,
(PID.TID 0000.0001) > SEAICEetaZmethod = 0,
(PID.TID 0000.0001) > SEAICE_Olx       = 0,
(PID.TID 0000.0001) > SEAICE_Oly       = 0,
(PID.TID 0000.0001) > SEAICE_drag = 0.002,
(PID.TID 0000.0001) > SEAICE_waterDrag = 0.005314009661835749,
(PID.TID 0000.0001) > /
(PID.TID 0000.0001) >
(PID.TID 0000.0001) > &SEAICE_PARM02
(PID.TID 0000.0001) > mult_ice   = 1.,
(PID.TID 0000.0001) ># choose which seaice cost term you want
(PID.TID 0000.0001) > cost_ice_flag = 1,
(PID.TID 0000.0001) ># the following timings are obsolete;
(PID.TID 0000.0001) ># replaced by lastinterval
(PID.TID 0000.0001) > costIceStart1        = 20000101,
(PID.TID 0000.0001) > costIceStart2        = 00000,
(PID.TID 0000.0001) > costIceEnd1        = 20000201,
(PID.TID 0000.0001) > costIceEnd2        = 00000,
(PID.TID 0000.0001) > /
(PID.TID 0000.0001) >
(PID.TID 0000.0001) > &SEAICE_PARM03
(PID.TID 0000.0001) > /
(PID.TID 0000.0001) 
(PID.TID 0000.0001)  SEAICE_READPARMS: finished reading data.seaice
(PID.TID 0000.0001) AUTODIFF_READPARMS: opening data.autodiff
(PID.TID 0000.0001)  OPEN_COPY_DATA_FILE: opening file data.autodiff
(PID.TID 0000.0001) // =======================================================
(PID.TID 0000.0001) // Parameter file "data.autodiff"
(PID.TID 0000.0001) // =======================================================
(PID.TID 0000.0001) ># =========================
(PID.TID 0000.0001) ># pkg AUTODIFF parameters :
(PID.TID 0000.0001) ># =========================
(PID.TID 0000.0001) >#  inAdExact :: get an exact adjoint (no approximation) (def=.True.)
(PID.TID 0000.0001) >#  SEAICEuseFREEDRIFTswitchInAd :: switch on/off Free-Drift in AD mode (def=F)
(PID.TID 0000.0001) >#
(PID.TID 0000.0001) > &AUTODIFF_PARM01
(PID.TID 0000.0001) ># inAdExact = .FALSE.,
(PID.TID 0000.0001) >  SEAICEuseFREEDRIFTswitchInAd = .TRUE.,
(PID.TID 0000.0001) > /
(PID.TID 0000.0001) 
(PID.TID 0000.0001) AUTODIFF_READPARMS: finished reading data.autodiff
(PID.TID 0000.0001) // ===================================
(PID.TID 0000.0001) // AUTODIFF parameters :
(PID.TID 0000.0001) // ===================================
(PID.TID 0000.0001) inAdExact = /* get an exact adjoint (no approximation) */
(PID.TID 0000.0001)                   T
(PID.TID 0000.0001)     ;
(PID.TID 0000.0001) useKPPinAdMode = /* use KPP in adjoint mode */
(PID.TID 0000.0001)                   F
(PID.TID 0000.0001)     ;
(PID.TID 0000.0001) useGMRediInAdMode = /* use GMRedi in adjoint mode */
(PID.TID 0000.0001)                   T
(PID.TID 0000.0001)     ;
(PID.TID 0000.0001) useSEAICEinAdMode = /* use SEAICE in adjoint mode */
(PID.TID 0000.0001)                   T
(PID.TID 0000.0001)     ;
(PID.TID 0000.0001) useGGL90inAdMode = /* use GGL90 in adjoint mode */
(PID.TID 0000.0001)                   F
(PID.TID 0000.0001)     ;
(PID.TID 0000.0001) useSALT_PLUMEinAdMode = /* use SALT_PLUME in adjoint mode */
(PID.TID 0000.0001)                   F
(PID.TID 0000.0001)     ;
(PID.TID 0000.0001) SEAICEuseDYNAMICSswitchInAd = /* switch On/Off SEAICE Dyn in AD mode */
(PID.TID 0000.0001)                   F
(PID.TID 0000.0001)     ;
(PID.TID 0000.0001) SEAICEuseFREEDRIFTswitchInAd= /* switch On/Off Free-Drift in AD mode */
(PID.TID 0000.0001)                   T
(PID.TID 0000.0001)     ;
(PID.TID 0000.0001) SEAICEapproxLevInAd = /* -1:SEAICE_FAKE, >0:other adjoint approximation */
(PID.TID 0000.0001)                       0
(PID.TID 0000.0001)     ;
(PID.TID 0000.0001) dumpAdVarExch = /* control adexch before dumpinp */
(PID.TID 0000.0001)                       2
(PID.TID 0000.0001)     ;
(PID.TID 0000.0001) mon_AdVarExch = /* control adexch before monitor */
(PID.TID 0000.0001)                       2
(PID.TID 0000.0001)     ;
(PID.TID 0000.0001) viscFacInAd = /* viscosity factor for adjoint */
(PID.TID 0000.0001)                 1.000000000000000E+00
(PID.TID 0000.0001)     ;
(PID.TID 0000.0001) SIregFacInAd = /* sea ice factor for adjoint model */
(PID.TID 0000.0001)                 1.234567000000000E+05
(PID.TID 0000.0001)     ;
(PID.TID 0000.0001) SIregFacInFw = /* sea ice factor for forward model */
(PID.TID 0000.0001)                 1.234567000000000E+05
(PID.TID 0000.0001)     ;
(PID.TID 0000.0001) 
(PID.TID 0000.0001) OPTIM_READPARMS: opening data.optim
(PID.TID 0000.0001)  OPEN_COPY_DATA_FILE: opening file data.optim
(PID.TID 0000.0001) // =======================================================
(PID.TID 0000.0001) // Parameter file "data.optim"
(PID.TID 0000.0001) // =======================================================
(PID.TID 0000.0001) > &OPTIM
(PID.TID 0000.0001) > optimcycle=0,
(PID.TID 0000.0001) > /
(PID.TID 0000.0001) 
(PID.TID 0000.0001) OPTIM_READPARMS: finished reading data.optim
(PID.TID 0000.0001) CTRL_READPARMS: opening data.ctrl
(PID.TID 0000.0001)  OPEN_COPY_DATA_FILE: opening file data.ctrl
(PID.TID 0000.0001) // =======================================================
(PID.TID 0000.0001) // Parameter file "data.ctrl"
(PID.TID 0000.0001) // =======================================================
(PID.TID 0000.0001) >#
(PID.TID 0000.0001) >#
(PID.TID 0000.0001) ># *********************
(PID.TID 0000.0001) ># ECCO controlvariables
(PID.TID 0000.0001) ># *********************
(PID.TID 0000.0001) > &CTRL_NML
(PID.TID 0000.0001) > xx_theta_file      ='xx_theta',
(PID.TID 0000.0001) > xx_salt_file       ='xx_salt',
(PID.TID 0000.0001) >#
(PID.TID 0000.0001) > xx_hfluxstartdate1 = 19790101,
(PID.TID 0000.0001) > xx_hfluxstartdate2 = 000000,
(PID.TID 0000.0001) > xx_hfluxperiod     = 864000.0,
(PID.TID 0000.0001) > xx_hflux_file      = 'xx_hfl',
(PID.TID 0000.0001) >#
(PID.TID 0000.0001) > xx_sfluxstartdate1 = 19790101,
(PID.TID 0000.0001) > xx_sfluxstartdate2 = 000000,
(PID.TID 0000.0001) > xx_sfluxperiod     = 864000.0,
(PID.TID 0000.0001) > xx_sflux_file      = 'xx_sfl',
(PID.TID 0000.0001) >#
(PID.TID 0000.0001) > xx_tauustartdate1 = 19790101,
(PID.TID 0000.0001) > xx_tauustartdate2 = 000000,
(PID.TID 0000.0001) > xx_tauuperiod     = 864000.0,
(PID.TID 0000.0001) > xx_tauu_file      = 'xx_tauu',
(PID.TID 0000.0001) >#
(PID.TID 0000.0001) > xx_tauvstartdate1 = 19790101,
(PID.TID 0000.0001) > xx_tauvstartdate2 = 000000,
(PID.TID 0000.0001) > xx_tauvperiod     = 864000.0,
(PID.TID 0000.0001) > xx_tauv_file      = 'xx_tauv',
(PID.TID 0000.0001) >#
(PID.TID 0000.0001) > xx_atempstartdate1 = 19790101,
(PID.TID 0000.0001) > xx_atempstartdate2 = 000000,
(PID.TID 0000.0001) > xx_atempperiod     = 864000.0,
(PID.TID 0000.0001) > xx_atemp_file      = 'xx_atemp',
(PID.TID 0000.0001) >#
(PID.TID 0000.0001) > xx_aqhstartdate1 = 19790101,
(PID.TID 0000.0001) > xx_aqhstartdate2 = 000000,
(PID.TID 0000.0001) > xx_aqhperiod     = 864000.0,
(PID.TID 0000.0001) > xx_aqh_file      = 'xx_aqh',
(PID.TID 0000.0001) >#
(PID.TID 0000.0001) > xx_precipstartdate1 = 19790101,
(PID.TID 0000.0001) > xx_precipstartdate2 = 000000,
(PID.TID 0000.0001) > xx_precipperiod     = 864000.0,
(PID.TID 0000.0001) > xx_precip_file      = 'xx_precip',
(PID.TID 0000.0001) >#
(PID.TID 0000.0001) > xx_swdownstartdate1 = 19790101,
(PID.TID 0000.0001) > xx_swdownstartdate2 = 000000,
(PID.TID 0000.0001) > xx_swdownperiod     = 864000.0,
(PID.TID 0000.0001) > xx_swdown_file      = 'xx_swdown',
(PID.TID 0000.0001) >#
(PID.TID 0000.0001) > xx_uwindstartdate1 = 19790101,
(PID.TID 0000.0001) > xx_uwindstartdate2 = 000000,
(PID.TID 0000.0001) > xx_uwindperiod     = 864000.0,
(PID.TID 0000.0001) > xx_uwind_file      = 'xx_uwind',
(PID.TID 0000.0001) >#
(PID.TID 0000.0001) > xx_vwindstartdate1 = 19790101,
(PID.TID 0000.0001) > xx_vwindstartdate2 = 000000,
(PID.TID 0000.0001) > xx_vwindperiod     = 864000.0,
(PID.TID 0000.0001) > xx_vwind_file      = 'xx_vwind',
(PID.TID 0000.0001) >#
(PID.TID 0000.0001) > xx_sststartdate1 = 19790101,
(PID.TID 0000.0001) > xx_sststartdate2 = 000000,
(PID.TID 0000.0001) > xx_sstperiod     = 864000.0,
(PID.TID 0000.0001) > xx_sst_file      = 'xx_sst',
(PID.TID 0000.0001) >#
(PID.TID 0000.0001) > xx_sssstartdate1 = 19790101,
(PID.TID 0000.0001) > xx_sssstartdate2 = 000000,
(PID.TID 0000.0001) > xx_sssperiod     = 864000.0,
(PID.TID 0000.0001) > xx_sss_file      = 'xx_sss',
(PID.TID 0000.0001) > /
(PID.TID 0000.0001) >#
(PID.TID 0000.0001) ># *********************
(PID.TID 0000.0001) ># names for ctrl_pack/unpack
(PID.TID 0000.0001) ># *********************
(PID.TID 0000.0001) > &CTRL_PACKNAMES
(PID.TID 0000.0001) > /
(PID.TID 0000.0001) 
(PID.TID 0000.0001) CTRL_READPARMS: finished reading data.ctrl
(PID.TID 0000.0001) COST_READPARMS: opening data.cost
(PID.TID 0000.0001)  OPEN_COPY_DATA_FILE: opening file data.cost
(PID.TID 0000.0001) // =======================================================
(PID.TID 0000.0001) // Parameter file "data.cost"
(PID.TID 0000.0001) // =======================================================
(PID.TID 0000.0001) >#
(PID.TID 0000.0001) >#
(PID.TID 0000.0001) ># ******************
(PID.TID 0000.0001) ># cost function
(PID.TID 0000.0001) ># ******************
(PID.TID 0000.0001) > &COST_NML
(PID.TID 0000.0001) >#revert to default 1 month
(PID.TID 0000.0001) ># lastinterval=7776000.,
(PID.TID 0000.0001) > mult_test=1.,
(PID.TID 0000.0001) > /
(PID.TID 0000.0001) 
(PID.TID 0000.0001) COST_READPARMS: finished reading data.cost
(PID.TID 0000.0001) GRDCHK_READPARMS: opening data.grdchk
(PID.TID 0000.0001)  OPEN_COPY_DATA_FILE: opening file data.grdchk
(PID.TID 0000.0001) // =======================================================
(PID.TID 0000.0001) // Parameter file "data.grdchk"
(PID.TID 0000.0001) // =======================================================
(PID.TID 0000.0001) ># *******************
(PID.TID 0000.0001) ># ECCO gradient check
(PID.TID 0000.0001) ># *******************
(PID.TID 0000.0001) > &GRDCHK_NML
(PID.TID 0000.0001) > grdchk_eps       = 1.d-2,
(PID.TID 0000.0001) >#  iglopos         = 6,
(PID.TID 0000.0001) >#  jglopos         = 17,
(PID.TID 0000.0001) >#  kglopos         = 1,
(PID.TID 0000.0001) > nbeg             = 1,
(PID.TID 0000.0001) > nstep            = 1,
(PID.TID 0000.0001) > nend             = 4,
(PID.TID 0000.0001) > grdchkvarindex   = 1,
(PID.TID 0000.0001) > /
(PID.TID 0000.0001) 
(PID.TID 0000.0001) GRDCHK_READPARMS: finished reading data.grdchk
(PID.TID 0000.0001) 
(PID.TID 0000.0001) // =======================================================
(PID.TID 0000.0001) // Gradient check configuration  >>> START <<<
(PID.TID 0000.0001) // =======================================================
(PID.TID 0000.0001) 
(PID.TID 0000.0001)   grdchkvarindex :                          1
(PID.TID 0000.0001)   eps:                              0.100E-01
(PID.TID 0000.0001)   First location:                           1
(PID.TID 0000.0001)   Last location:                            4
(PID.TID 0000.0001)   Increment:                                1
(PID.TID 0000.0001)   grdchkWhichProc:                          0
(PID.TID 0000.0001)   iLocTile =       1  ,    jLocTile =       1
(PID.TID 0000.0001) 
(PID.TID 0000.0001) // =======================================================
(PID.TID 0000.0001) // Gradient check configuration  >>> END <<<
(PID.TID 0000.0001) // =======================================================
(PID.TID 0000.0001) 
(PID.TID 0000.0001) SET_PARMS: done
(PID.TID 0000.0001) Enter INI_VERTICAL_GRID: setInterFDr=    T ; setCenterDr=    F
(PID.TID 0000.0001) tile:   1 ; Read from file grid_cs32.face001.bin
(PID.TID 0000.0001)   => xC yC dxF dyF rA xG yG dxV dyU rAz dxC dyC rAw rAs dxG dyG AngleCS AngleSN
(PID.TID 0000.0001) tile:   2 ; Read from file grid_cs32.face001.bin
(PID.TID 0000.0001)   => xC yC dxF dyF rA xG yG dxV dyU rAz dxC dyC rAw rAs dxG dyG AngleCS AngleSN
(PID.TID 0000.0001) tile:   3 ; Read from file grid_cs32.face002.bin
(PID.TID 0000.0001)   => xC yC dxF dyF rA xG yG dxV dyU rAz dxC dyC rAw rAs dxG dyG AngleCS AngleSN
(PID.TID 0000.0001) tile:   4 ; Read from file grid_cs32.face002.bin
(PID.TID 0000.0001)   => xC yC dxF dyF rA xG yG dxV dyU rAz dxC dyC rAw rAs dxG dyG AngleCS AngleSN
(PID.TID 0000.0001) tile:   5 ; Read from file grid_cs32.face003.bin
(PID.TID 0000.0001)   => xC yC dxF dyF rA xG yG dxV dyU rAz dxC dyC rAw rAs dxG dyG AngleCS AngleSN
(PID.TID 0000.0001) tile:   6 ; Read from file grid_cs32.face003.bin
(PID.TID 0000.0001)   => xC yC dxF dyF rA xG yG dxV dyU rAz dxC dyC rAw rAs dxG dyG AngleCS AngleSN
(PID.TID 0000.0001) tile:   7 ; Read from file grid_cs32.face004.bin
(PID.TID 0000.0001)   => xC yC dxF dyF rA xG yG dxV dyU rAz dxC dyC rAw rAs dxG dyG AngleCS AngleSN
(PID.TID 0000.0001) tile:   8 ; Read from file grid_cs32.face004.bin
(PID.TID 0000.0001)   => xC yC dxF dyF rA xG yG dxV dyU rAz dxC dyC rAw rAs dxG dyG AngleCS AngleSN
(PID.TID 0000.0001) tile:   9 ; Read from file grid_cs32.face005.bin
(PID.TID 0000.0001)   => xC yC dxF dyF rA xG yG dxV dyU rAz dxC dyC rAw rAs dxG dyG AngleCS AngleSN
(PID.TID 0000.0001) tile:  10 ; Read from file grid_cs32.face005.bin
(PID.TID 0000.0001)   => xC yC dxF dyF rA xG yG dxV dyU rAz dxC dyC rAw rAs dxG dyG AngleCS AngleSN
(PID.TID 0000.0001) tile:  11 ; Read from file grid_cs32.face006.bin
(PID.TID 0000.0001)   => xC yC dxF dyF rA xG yG dxV dyU rAz dxC dyC rAw rAs dxG dyG AngleCS AngleSN
(PID.TID 0000.0001) tile:  12 ; Read from file grid_cs32.face006.bin
(PID.TID 0000.0001)   => xC yC dxF dyF rA xG yG dxV dyU rAz dxC dyC rAw rAs dxG dyG AngleCS AngleSN
(PID.TID 0000.0001) %MON XC_max                       =   1.7854351589505E+02
(PID.TID 0000.0001) %MON XC_min                       =  -1.7854351589505E+02
(PID.TID 0000.0001) %MON XC_mean                      =  -1.4199289892029E-14
(PID.TID 0000.0001) %MON XC_sd                        =   1.0355545336287E+02
(PID.TID 0000.0001) %MON XG_max                       =   1.8000000000000E+02
(PID.TID 0000.0001) %MON XG_min                       =  -1.7708797161002E+02
(PID.TID 0000.0001) %MON XG_mean                      =   1.8603515625000E+00
(PID.TID 0000.0001) %MON XG_sd                        =   1.0357130300504E+02
(PID.TID 0000.0001) %MON DXC_max                      =   3.2375185836900E+05
(PID.TID 0000.0001) %MON DXC_min                      =   1.1142031410131E+05
(PID.TID 0000.0001) %MON DXC_mean                     =   2.8605689051214E+05
(PID.TID 0000.0001) %MON DXC_sd                       =   3.4042087138252E+04
(PID.TID 0000.0001) %MON DXF_max                      =   3.2369947500827E+05
(PID.TID 0000.0001) %MON DXF_min                      =   1.2020820513318E+05
(PID.TID 0000.0001) %MON DXF_mean                     =   2.8605437324820E+05
(PID.TID 0000.0001) %MON DXF_sd                       =   3.4050524252539E+04
(PID.TID 0000.0001) %MON DXG_max                      =   3.2375195872773E+05
(PID.TID 0000.0001) %MON DXG_min                      =   1.0098378008791E+05
(PID.TID 0000.0001) %MON DXG_mean                     =   2.8603818508931E+05
(PID.TID 0000.0001) %MON DXG_sd                       =   3.4140406908005E+04
(PID.TID 0000.0001) %MON DXV_max                      =   3.2380418162750E+05
(PID.TID 0000.0001) %MON DXV_min                      =   8.0152299824136E+04
(PID.TID 0000.0001) %MON DXV_mean                     =   2.8603970633619E+05
(PID.TID 0000.0001) %MON DXV_sd                       =   3.4145142117723E+04
(PID.TID 0000.0001) %MON YC_max                       =   8.7940663871962E+01
(PID.TID 0000.0001) %MON YC_min                       =  -8.7940663871962E+01
(PID.TID 0000.0001) %MON YC_mean                      =  -2.3684757858670E-15
(PID.TID 0000.0001) %MON YC_sd                        =   3.8676242969072E+01
(PID.TID 0000.0001) %MON YG_max                       =   9.0000000000000E+01
(PID.TID 0000.0001) %MON YG_min                       =  -9.0000000000000E+01
(PID.TID 0000.0001) %MON YG_mean                      =  -4.1448326252673E-15
(PID.TID 0000.0001) %MON YG_sd                        =   3.8676895860710E+01
(PID.TID 0000.0001) %MON DYC_max                      =   3.2375185836900E+05
(PID.TID 0000.0001) %MON DYC_min                      =   1.1142031410131E+05
(PID.TID 0000.0001) %MON DYC_mean                     =   2.8605689051214E+05
(PID.TID 0000.0001) %MON DYC_sd                       =   3.4042087138252E+04
(PID.TID 0000.0001) %MON DYF_max                      =   3.2369947500827E+05
(PID.TID 0000.0001) %MON DYF_min                      =   1.2020820513318E+05
(PID.TID 0000.0001) %MON DYF_mean                     =   2.8605437324820E+05
(PID.TID 0000.0001) %MON DYF_sd                       =   3.4050524252539E+04
(PID.TID 0000.0001) %MON DYG_max                      =   3.2375195872773E+05
(PID.TID 0000.0001) %MON DYG_min                      =   1.0098378008791E+05
(PID.TID 0000.0001) %MON DYG_mean                     =   2.8603818508931E+05
(PID.TID 0000.0001) %MON DYG_sd                       =   3.4140406908005E+04
(PID.TID 0000.0001) %MON DYU_max                      =   3.2380418162750E+05
(PID.TID 0000.0001) %MON DYU_min                      =   8.0152299824136E+04
(PID.TID 0000.0001) %MON DYU_mean                     =   2.8603970633619E+05
(PID.TID 0000.0001) %MON DYU_sd                       =   3.4145142117723E+04
(PID.TID 0000.0001) %MON RA_max                       =   1.0479260248419E+11
(PID.TID 0000.0001) %MON RA_min                       =   1.4019007022556E+10
(PID.TID 0000.0001) %MON RA_mean                      =   8.2992246709265E+10
(PID.TID 0000.0001) %MON RA_sd                        =   1.7509089299457E+10
(PID.TID 0000.0001) %MON RAW_max                      =   1.0480965274559E+11
(PID.TID 0000.0001) %MON RAW_min                      =   1.2166903467143E+10
(PID.TID 0000.0001) %MON RAW_mean                     =   8.2992246709235E+10
(PID.TID 0000.0001) %MON RAW_sd                       =   1.7481917919656E+10
(PID.TID 0000.0001) %MON RAS_max                      =   1.0480965274559E+11
(PID.TID 0000.0001) %MON RAS_min                      =   1.2166903467143E+10
(PID.TID 0000.0001) %MON RAS_mean                     =   8.2992246709235E+10
(PID.TID 0000.0001) %MON RAS_sd                       =   1.7481917919656E+10
(PID.TID 0000.0001) %MON RAZ_max                      =   1.0484349334619E+11
(PID.TID 0000.0001) %MON RAZ_min                      =   8.8317900612505E+09
(PID.TID 0000.0001) %MON RAZ_mean                     =   8.2992246709235E+10
(PID.TID 0000.0001) %MON RAZ_sd                       =   1.7482297311044E+10
(PID.TID 0000.0001) %MON AngleCS_max                  =   9.9999994756719E-01
(PID.TID 0000.0001) %MON AngleCS_min                  =  -9.9968286884824E-01
(PID.TID 0000.0001) %MON AngleCS_mean                 =   3.3078922539000E-01
(PID.TID 0000.0001) %MON AngleCS_sd                   =   6.2496278958502E-01
(PID.TID 0000.0001) %MON AngleSN_max                  =   9.9968286884824E-01
(PID.TID 0000.0001) %MON AngleSN_min                  =  -9.9999994756719E-01
(PID.TID 0000.0001) %MON AngleSN_mean                 =  -3.3078922539000E-01
(PID.TID 0000.0001) %MON AngleSN_sd                   =   6.2496278958502E-01
(PID.TID 0000.0001) 
(PID.TID 0000.0001) // =======================================================
(PID.TID 0000.0001) // Calendar configuration >>> START <<<
(PID.TID 0000.0001) // =======================================================
(PID.TID 0000.0001) 
(PID.TID 0000.0001) modelstart = /* Start time of the model integration [s] */
(PID.TID 0000.0001)                 6.220800000000000E+09
(PID.TID 0000.0001)     ;
(PID.TID 0000.0001) modelend  = /* End time of the model integration [s] */
(PID.TID 0000.0001)                 6.221232000000000E+09
(PID.TID 0000.0001)     ;
(PID.TID 0000.0001) modelStep = /* Time interval for a model forward step [s] */
(PID.TID 0000.0001)                 8.640000000000000E+04
(PID.TID 0000.0001)     ;
(PID.TID 0000.0001) usingGregorianCalendar= /* Calendar Type: Gregorian Calendar */
(PID.TID 0000.0001)                   F
(PID.TID 0000.0001)     ;
(PID.TID 0000.0001) usingJulianCalendar = /* Calendar Type: Julian Calendar */
(PID.TID 0000.0001)                   F
(PID.TID 0000.0001)     ;
(PID.TID 0000.0001) usingNoLeapYearCal  = /* Calendar Type: without Leap Year */
(PID.TID 0000.0001)                   F
(PID.TID 0000.0001)     ;
(PID.TID 0000.0001) usingModelCalendar  = /* Calendar Type: Model Calendar */
(PID.TID 0000.0001)                   T
(PID.TID 0000.0001)     ;
(PID.TID 0000.0001) modelStartDate YYYYMMDD = /* Model start date YYYY-MM-DD */
(PID.TID 0000.0001)                 2010101
(PID.TID 0000.0001)     ;
(PID.TID 0000.0001)   modelStartDate HHMMSS = /* Model start date HH-MM-SS  */
(PID.TID 0000.0001)                       0
(PID.TID 0000.0001)     ;
(PID.TID 0000.0001) modelEndDate   YYYYMMDD = /* Model end date YYYY-MM-DD */
(PID.TID 0000.0001)                 2010106
(PID.TID 0000.0001)     ;
(PID.TID 0000.0001)   modelEndDate   HHMMSS = /* Model end date HH-MM-SS  */
(PID.TID 0000.0001)                       0
(PID.TID 0000.0001)     ;
(PID.TID 0000.0001) intyears = /* Number of calendar years affected by the integration */
(PID.TID 0000.0001)                       1
(PID.TID 0000.0001)     ;
(PID.TID 0000.0001) intmonths= /* Number of calendar months affected by the integration */
(PID.TID 0000.0001)                       1
(PID.TID 0000.0001)     ;
(PID.TID 0000.0001) intdays = /* Number of calendar days affected by the integration */
(PID.TID 0000.0001)                       5
(PID.TID 0000.0001)     ;
(PID.TID 0000.0001) modelIter0 = /* Base timestep number  */
(PID.TID 0000.0001)                   72000
(PID.TID 0000.0001)     ;
(PID.TID 0000.0001) modelIterEnd = /* Final timestep number  */
(PID.TID 0000.0001)                   72005
(PID.TID 0000.0001)     ;
(PID.TID 0000.0001) modelIntSteps= /* Number of model timesteps  */
(PID.TID 0000.0001)                       5
(PID.TID 0000.0001)     ;
(PID.TID 0000.0001) 
(PID.TID 0000.0001) // =======================================================
(PID.TID 0000.0001) // Calendar configuration  >>> END <<<
(PID.TID 0000.0001) // =======================================================
(PID.TID 0000.0001) 
(PID.TID 0000.0001) GAD_INIT_FIXED: GAD_OlMinSize=  2  0  2
(PID.TID 0000.0001) 
(PID.TID 0000.0001) // ===================================
(PID.TID 0000.0001) // GAD parameters :
(PID.TID 0000.0001) // ===================================
(PID.TID 0000.0001) tempAdvScheme =   /* Temp. Horiz.Advection scheme selector */
(PID.TID 0000.0001)                      30
(PID.TID 0000.0001)     ;
(PID.TID 0000.0001) tempVertAdvScheme =   /* Temp. Vert. Advection scheme selector */
(PID.TID 0000.0001)                      30
(PID.TID 0000.0001)     ;
(PID.TID 0000.0001) tempMultiDimAdvec =   /* use Muti-Dim Advec method for Temp */
(PID.TID 0000.0001)                   T
(PID.TID 0000.0001)     ;
(PID.TID 0000.0001) tempSOM_Advection = /* use 2nd Order Moment Advection for Temp */
(PID.TID 0000.0001)                   F
(PID.TID 0000.0001)     ;
(PID.TID 0000.0001) AdamsBashforthGt = /* apply Adams-Bashforth extrapolation on Gt */
(PID.TID 0000.0001)                   F
(PID.TID 0000.0001)     ;
(PID.TID 0000.0001) AdamsBashforth_T = /* apply Adams-Bashforth extrapolation on Temp */
(PID.TID 0000.0001)                   F
(PID.TID 0000.0001)     ;
(PID.TID 0000.0001) saltAdvScheme =   /* Salt. Horiz.advection scheme selector */
(PID.TID 0000.0001)                      30
(PID.TID 0000.0001)     ;
(PID.TID 0000.0001) saltVertAdvScheme =   /* Salt. Vert. Advection scheme selector */
(PID.TID 0000.0001)                      30
(PID.TID 0000.0001)     ;
(PID.TID 0000.0001) saltMultiDimAdvec =   /* use Muti-Dim Advec method for Salt */
(PID.TID 0000.0001)                   T
(PID.TID 0000.0001)     ;
(PID.TID 0000.0001) saltSOM_Advection = /* use 2nd Order Moment Advection for Salt */
(PID.TID 0000.0001)                   F
(PID.TID 0000.0001)     ;
(PID.TID 0000.0001) AdamsBashforthGs = /* apply Adams-Bashforth extrapolation on Gs */
(PID.TID 0000.0001)                   F
(PID.TID 0000.0001)     ;
(PID.TID 0000.0001) AdamsBashforth_S = /* apply Adams-Bashforth extrapolation on Salt */
(PID.TID 0000.0001)                   F
(PID.TID 0000.0001)     ;
(PID.TID 0000.0001) // ===================================
(PID.TID 0000.0001) 
(PID.TID 0000.0001) // =======================================================
(PID.TID 0000.0001) // External forcing (EXF) configuration >>> START <<<
(PID.TID 0000.0001) // =======================================================
(PID.TID 0000.0001) 
(PID.TID 0000.0001)  EXF general parameters:
(PID.TID 0000.0001) 
(PID.TID 0000.0001) exf_iprec = /* exf file precision */
(PID.TID 0000.0001)                      64
(PID.TID 0000.0001)     ;
(PID.TID 0000.0001) useExfYearlyFields = /* add extension _YEAR to input file names */
(PID.TID 0000.0001)                   F
(PID.TID 0000.0001)     ;
(PID.TID 0000.0001) twoDigitYear = /* use 2-digit year extension */
(PID.TID 0000.0001)                   F
(PID.TID 0000.0001)     ;
(PID.TID 0000.0001) useExfCheckRange = /* check for fields range */
(PID.TID 0000.0001)                   T
(PID.TID 0000.0001)     ;
(PID.TID 0000.0001) diags_opOceWeighted = /* weight flux diags by open-ocean fraction */
(PID.TID 0000.0001)                   T
(PID.TID 0000.0001)     ;
(PID.TID 0000.0001) exf_debugLev = /* select EXF-debug printing level */
(PID.TID 0000.0001)                       1
(PID.TID 0000.0001)     ;
(PID.TID 0000.0001) exf_monFreq  = /* EXF monitor frequency [ s ] */
(PID.TID 0000.0001)                 0.000000000000000E+00
(PID.TID 0000.0001)     ;
(PID.TID 0000.0001) repeatPeriod = /* period for cycling forcing dataset [ s ] */
(PID.TID 0000.0001)                 3.110400000000000E+07
(PID.TID 0000.0001)     ;
(PID.TID 0000.0001) climTempFreeze= /* Minimum climatological temperature [deg.C] */
(PID.TID 0000.0001)                -1.900000000000000E+00
(PID.TID 0000.0001)     ;
(PID.TID 0000.0001) windStressMax = /* Maximum absolute windstress [ Pa ] */
(PID.TID 0000.0001)                 2.000000000000000E+00
(PID.TID 0000.0001)     ;
(PID.TID 0000.0001) stressIsOnCgrid = /* set u,v_stress on Arakawa C-grid */
(PID.TID 0000.0001)                   T
(PID.TID 0000.0001)     ;
(PID.TID 0000.0001) rotateStressOnAgrid = /* rotate u,v_stress on Arakawa A-grid */
(PID.TID 0000.0001)                   F
(PID.TID 0000.0001)     ;
(PID.TID 0000.0001) cen2kel = /* conversion of deg. Centigrade to Kelvin [K] */
(PID.TID 0000.0001)                 2.731500000000000E+02
(PID.TID 0000.0001)     ;
(PID.TID 0000.0001) gravity_mks= /* gravitational acceleration [m/s^2] */
(PID.TID 0000.0001)                 9.810000000000000E+00
(PID.TID 0000.0001)     ;
(PID.TID 0000.0001) atmrho =  /* mean atmospheric density [kg/m^3] */
(PID.TID 0000.0001)                 1.220000000000000E+00
(PID.TID 0000.0001)     ;
(PID.TID 0000.0001) atmcp =  /* mean atmospheric specific heat [J/kg/K] */
(PID.TID 0000.0001)                 1.005000000000000E+03
(PID.TID 0000.0001)     ;
(PID.TID 0000.0001) flamb =  /* latent heat of evaporation [J/kg] */
(PID.TID 0000.0001)                 2.500000000000000E+06
(PID.TID 0000.0001)     ;
(PID.TID 0000.0001) flami =  /* latent heat of pure-ice melting [J/kg] */
(PID.TID 0000.0001)                 3.340000000000000E+05
(PID.TID 0000.0001)     ;
(PID.TID 0000.0001) cvapor_fac = /* const. for Saturation calculation [?] */
(PID.TID 0000.0001)                 6.403800000000000E+05
(PID.TID 0000.0001)     ;
(PID.TID 0000.0001) cvapor_exp = /* const. for Saturation calculation [?] */
(PID.TID 0000.0001)                 5.107400000000000E+03
(PID.TID 0000.0001)     ;
(PID.TID 0000.0001) cvapor_fac_ice= /* const. for Saturation calculation [?] */
(PID.TID 0000.0001)                 1.163780000000000E+07
(PID.TID 0000.0001)     ;
(PID.TID 0000.0001) cvapor_exp_ice= /* const. for Saturation calculation [?] */
(PID.TID 0000.0001)                 5.897800000000000E+03
(PID.TID 0000.0001)     ;
(PID.TID 0000.0001) humid_fac = /* humidity coef. in virtual temp. [(kg/kg)^-1] */
(PID.TID 0000.0001)                 6.080000000000000E-01
(PID.TID 0000.0001)     ;
(PID.TID 0000.0001) gamma_blk = /* adiabatic lapse rate [?] */
(PID.TID 0000.0001)                 1.000000000000000E-02
(PID.TID 0000.0001)     ;
(PID.TID 0000.0001) saltsat = /* reduction of Qsat over salty water [-] */
(PID.TID 0000.0001)                 9.800000000000000E-01
(PID.TID 0000.0001)     ;
(PID.TID 0000.0001) noNegativeEvap = /* prevent negative Evaporation */
(PID.TID 0000.0001)                   F
(PID.TID 0000.0001)     ;
(PID.TID 0000.0001) sstExtrapol = /* extrapolation coeff from lev. 1 & 2 to surf [-] */
(PID.TID 0000.0001)                 0.000000000000000E+00
(PID.TID 0000.0001)     ;
(PID.TID 0000.0001) cDrag_1 = /* coef used in drag calculation [?] */
(PID.TID 0000.0001)                 2.700000000000000E-03
(PID.TID 0000.0001)     ;
(PID.TID 0000.0001) cDrag_2 = /* coef used in drag calculation [?] */
(PID.TID 0000.0001)                 1.420000000000000E-04
(PID.TID 0000.0001)     ;
(PID.TID 0000.0001) cDrag_3 = /* coef used in drag calculation [?] */
(PID.TID 0000.0001)                 7.640000000000000E-05
(PID.TID 0000.0001)     ;
(PID.TID 0000.0001) cStanton_1 = /* coef used in Stanton number calculation [?] */
(PID.TID 0000.0001)                 3.270000000000000E-02
(PID.TID 0000.0001)     ;
(PID.TID 0000.0001) cStanton_2 = /* coef used in Stanton number calculation [?] */
(PID.TID 0000.0001)                 1.800000000000000E-02
(PID.TID 0000.0001)     ;
(PID.TID 0000.0001) cDalton = /* coef used in Dalton number calculation [?] */
(PID.TID 0000.0001)                 3.460000000000000E-02
(PID.TID 0000.0001)     ;
(PID.TID 0000.0001) exf_scal_BulkCdn= /* Drag coefficient scaling factor [-] */
(PID.TID 0000.0001)                 1.000000000000000E+00
(PID.TID 0000.0001)     ;
(PID.TID 0000.0001) zolmin = /* minimum stability parameter [?] */
(PID.TID 0000.0001)                -1.000000000000000E+02
(PID.TID 0000.0001)     ;
(PID.TID 0000.0001) psim_fac = /* coef used in turbulent fluxes calculation [-] */
(PID.TID 0000.0001)                 5.000000000000000E+00
(PID.TID 0000.0001)     ;
(PID.TID 0000.0001) zref =  /* reference height [ m ] */
(PID.TID 0000.0001)                 1.000000000000000E+01
(PID.TID 0000.0001)     ;
(PID.TID 0000.0001) hu =  /* height of mean wind [ m ] */
(PID.TID 0000.0001)                 1.000000000000000E+01
(PID.TID 0000.0001)     ;
(PID.TID 0000.0001) ht =  /* height of mean temperature [ m ] */
(PID.TID 0000.0001)                 1.000000000000000E+01
(PID.TID 0000.0001)     ;
(PID.TID 0000.0001) hq =  /* height of mean spec.humidity [ m ] */
(PID.TID 0000.0001)                 1.000000000000000E+01
(PID.TID 0000.0001)     ;
(PID.TID 0000.0001) uMin = /* minimum wind speed [m/s] */
(PID.TID 0000.0001)                 5.000000000000000E-01
(PID.TID 0000.0001)     ;
(PID.TID 0000.0001) useStabilityFct_overIce= /* transfert Coeffs over sea-ice depend on stability */
(PID.TID 0000.0001)                   F
(PID.TID 0000.0001)     ;
(PID.TID 0000.0001) exf_iceCd = /* drag coefficient over sea-ice (fixed) [-] */
(PID.TID 0000.0001)                 1.630000000000000E-03
(PID.TID 0000.0001)     ;
(PID.TID 0000.0001) exf_iceCe = /* transfert coeff. over sea-ice, for Evap (fixed) [-] */
(PID.TID 0000.0001)                 1.630000000000000E-03
(PID.TID 0000.0001)     ;
(PID.TID 0000.0001) exf_iceCh = /* transfert coeff. over sea-ice, Sens.Heat.(fixed)[-] */
(PID.TID 0000.0001)                 1.630000000000000E-03
(PID.TID 0000.0001)     ;
(PID.TID 0000.0001) exf_albedo =  /* Sea-water albedo [-] */
(PID.TID 0000.0001)                 6.600000000000000E-02
(PID.TID 0000.0001)     ;
(PID.TID 0000.0001) useExfZenAlbedo = /* Sea-water albedo varies with zenith angle */
(PID.TID 0000.0001)                   F
(PID.TID 0000.0001)     ;
(PID.TID 0000.0001) select_ZenAlbedo = /* Sea-water albedo computation method */
(PID.TID 0000.0001)                       0
(PID.TID 0000.0001)     ;
(PID.TID 0000.0001) useExfZenIncoming = /* compute incoming solar radiation */
(PID.TID 0000.0001)                   F
(PID.TID 0000.0001)     ;
(PID.TID 0000.0001) ocean_emissivity = /* longwave ocean-surface emissivity [-] */
(PID.TID 0000.0001)                 1.000000000000000E+00
(PID.TID 0000.0001)     ;
(PID.TID 0000.0001) ice_emissivity = /* longwave seaice emissivity [-] */
(PID.TID 0000.0001)                 9.500000000000000E-01
(PID.TID 0000.0001)     ;
(PID.TID 0000.0001) snow_emissivity = /* longwave snow  emissivity [-] */
(PID.TID 0000.0001)                 9.500000000000000E-01
(PID.TID 0000.0001)     ;
(PID.TID 0000.0001) 
(PID.TID 0000.0001)  EXF main CPP flags:
(PID.TID 0000.0001) 
(PID.TID 0000.0001) // USE_EXF_INTERPOLATION:          NOT defined
(PID.TID 0000.0001) // ALLOW_ATM_TEMP:                     defined
(PID.TID 0000.0001) // ALLOW_ATM_WIND (useAtmWind):    NOT defined
(PID.TID 0000.0001) // ALLOW_DOWNWARD_RADIATION:           defined
(PID.TID 0000.0001) // ALLOW_BULKFORMULAE:                 defined
(PID.TID 0000.0001) 
(PID.TID 0000.0001)    Zonal wind stress forcing starts at             1296000.
(PID.TID 0000.0001)    Zonal wind stress forcing period is             2592000.
(PID.TID 0000.0001)    Zonal wind stress forcing repeat-cycle is      31104000.
(PID.TID 0000.0001)    Zonal wind stress forcing is read from file:
(PID.TID 0000.0001)    >> trenberth_taux.bin <<
(PID.TID 0000.0001) 
(PID.TID 0000.0001)    Meridional wind stress forcing starts at        1296000.
(PID.TID 0000.0001)    Meridional wind stress forcing period is        2592000.
(PID.TID 0000.0001)    Meridional wind stress forcing rep-cycle is    31104000.
(PID.TID 0000.0001)    Meridional wind stress forcing is read from file:
(PID.TID 0000.0001)    >> trenberth_tauy.bin <<
(PID.TID 0000.0001) 
(PID.TID 0000.0001)    Surface wind speed starts at                    1296000.
(PID.TID 0000.0001)    Surface wind speed period is                    2592000.
(PID.TID 0000.0001)    Surface wind speed repeat-cycle is             31104000.
(PID.TID 0000.0001)    Surface wind speed is read from file:
(PID.TID 0000.0001)    >> core_wndSpd_cs32.bin <<
(PID.TID 0000.0001) 
(PID.TID 0000.0001)    Atmospheric temperature starts at               1296000.
(PID.TID 0000.0001)    Atmospheric temperature period is               2592000.
(PID.TID 0000.0001)    Atmospheric temperature repeat-cycle is        31104000.
(PID.TID 0000.0001)    Atmospheric temperature is read from file:
(PID.TID 0000.0001)    >> core_t_Air_cs32.bin <<
(PID.TID 0000.0001) 
(PID.TID 0000.0001)    Atmospheric specific humidity starts at         1296000.
(PID.TID 0000.0001)    Atmospheric specific humidity period is         2592000.
(PID.TID 0000.0001)    Atmospheric specific humidity rep-cycle is     31104000.
(PID.TID 0000.0001)    Atmospheric specific humidity is read from file:
(PID.TID 0000.0001)    >> core_q_air_cs32.bin <<
(PID.TID 0000.0001) 
(PID.TID 0000.0001) // ALLOW_READ_TURBFLUXES:          NOT defined
(PID.TID 0000.0001) // EXF_READ_EVAP:                  NOT defined
(PID.TID 0000.0001) 
(PID.TID 0000.0001)    Precipitation data starts at                    1296000.
(PID.TID 0000.0001)    Precipitation data period is                    2592000.
(PID.TID 0000.0001)    Precipitation data repeat-cycle is             31104000.
(PID.TID 0000.0001)    Precipitation data is read from file:
(PID.TID 0000.0001)    >> core_prec_1_cs32.bin <<
(PID.TID 0000.0001) 
(PID.TID 0000.0001) // ALLOW_RUNOFF:                       defined
(PID.TID 0000.0001)    Runoff data starts at                           1296000.
(PID.TID 0000.0001)    Runoff data period is                           2592000.
(PID.TID 0000.0001)    Runoff data repeat-cycle is                    31104000.
(PID.TID 0000.0001)    Runoff data is read from file:
(PID.TID 0000.0001)    >> core_rnof_1_cs32.bin <<
(PID.TID 0000.0001) 
(PID.TID 0000.0001) // ALLOW_RUNOFTEMP:                NOT defined
(PID.TID 0000.0001) // ALLOW_SALTFLX:                  NOT defined
(PID.TID 0000.0001) 
(PID.TID 0000.0001)    Downward shortwave flux starts at               1296000.
(PID.TID 0000.0001)    Downward shortwave flux period is               2592000.
(PID.TID 0000.0001)    Downward shortwave flux repeat-cycle is        31104000.
(PID.TID 0000.0001)    Downward shortwave flux is read from file:
(PID.TID 0000.0001)    >> core_dwnSw_cs32.bin <<
(PID.TID 0000.0001) 
(PID.TID 0000.0001)    Downward longwave flux starts at                1296000.
(PID.TID 0000.0001)    Downward longwave flux period is                2592000.
(PID.TID 0000.0001)    Downward longwave flux repeat-cycle is         31104000.
(PID.TID 0000.0001)    Downward longwave flux is read from file:
(PID.TID 0000.0001)    >> core_dwnLw_cs32.bin <<
(PID.TID 0000.0001) 
(PID.TID 0000.0001) // =======================================================
(PID.TID 0000.0001) // External forcing (EXF) climatology configuration :
(PID.TID 0000.0001) // =======================================================
(PID.TID 0000.0001) 
(PID.TID 0000.0001) // ALLOW_CLIMSST_RELAXATION:           defined
(PID.TID 0000.0001)    Climatological SST starts at                    1296000.
(PID.TID 0000.0001)    Climatological SST period is                    2592000.
(PID.TID 0000.0001)    Climatological SST repeat-cycle is             31104000.
(PID.TID 0000.0001)    Climatological SST is read from file:
(PID.TID 0000.0001)    >> lev_surfT_cs_12m.bin <<
(PID.TID 0000.0001) 
(PID.TID 0000.0001) // ALLOW_CLIMSSS_RELAXATION:           defined
(PID.TID 0000.0001)    Climatological SSS starts at                    1296000.
(PID.TID 0000.0001)    Climatological SSS period is                    2592000.
(PID.TID 0000.0001)    Climatological SSS repeat-cycle is             31104000.
(PID.TID 0000.0001)    Climatological SSS is read from file:
(PID.TID 0000.0001)    >> lev_surfS_cs_12m.bin <<
(PID.TID 0000.0001) 
(PID.TID 0000.0001) // =======================================================
(PID.TID 0000.0001) // External forcing (EXF) configuration  >>> END <<<
(PID.TID 0000.0001) // =======================================================
(PID.TID 0000.0001) 
(PID.TID 0000.0001) // =======================================================
(PID.TID 0000.0001) // Seaice configuration (SEAICE_PARM01) >>> START <<<
(PID.TID 0000.0001) // =======================================================
(PID.TID 0000.0001) 
(PID.TID 0000.0001)    Seaice time stepping configuration   > START <
(PID.TID 0000.0001)    ----------------------------------------------
(PID.TID 0000.0001) SEAICE_deltaTtherm= /* thermodynamic timestep */
(PID.TID 0000.0001)                 8.640000000000000E+04
(PID.TID 0000.0001)     ;
(PID.TID 0000.0001) SEAICE_deltaTdyn  = /* dynamic timestep */
(PID.TID 0000.0001)                 8.640000000000000E+04
(PID.TID 0000.0001)     ;
(PID.TID 0000.0001) SEAICE_deltaTevp  = /* EVP timestep */
(PID.TID 0000.0001)                 1.234567000000000E+05
(PID.TID 0000.0001)     ;
(PID.TID 0000.0001) SEAICEuseBDF2  = /* use backw. differencing for mom. eq. */
(PID.TID 0000.0001)                   F
(PID.TID 0000.0001)     ;
(PID.TID 0000.0001) SEAICEupdateOceanStress= /* update Ocean surf. stress */
(PID.TID 0000.0001)                   T
(PID.TID 0000.0001)     ;
(PID.TID 0000.0001) SEAICErestoreUnderIce  = /* restore T and S under ice */
(PID.TID 0000.0001)                   F
(PID.TID 0000.0001)     ;
(PID.TID 0000.0001) 
(PID.TID 0000.0001)    Seaice dynamics configuration   > START <
(PID.TID 0000.0001)    ------------------------------------------
(PID.TID 0000.0001) SEAICEuseDYNAMICS = /* use dynamics */
(PID.TID 0000.0001)                   T
(PID.TID 0000.0001)     ;
(PID.TID 0000.0001) model grid type   = /* type of sea ice model grid */
(PID.TID 0000.0001)               'C-GRID'
(PID.TID 0000.0001)     ;
(PID.TID 0000.0001) SEAICEuseStrImpCpl = /* use strongly implicit coupling */
(PID.TID 0000.0001)                   F
(PID.TID 0000.0001)     ;
(PID.TID 0000.0001) SEAICEusePicardAsPrecon = /* Picard as preconditioner */
(PID.TID 0000.0001)                   F
(PID.TID 0000.0001)     ;
(PID.TID 0000.0001) SEAICEuseLSR      = /* use default Picard-LSR solver */
(PID.TID 0000.0001)                   T
(PID.TID 0000.0001)     ;
(PID.TID 0000.0001) SEAICEuseKrylov   = /* use Picard-Krylov solver */
(PID.TID 0000.0001)                   F
(PID.TID 0000.0001)     ;
(PID.TID 0000.0001) SEAICEuseEVP      = /* use EVP solver rather than LSR */
(PID.TID 0000.0001)                   F
(PID.TID 0000.0001)     ;
(PID.TID 0000.0001) SEAICEuseJFNK     = /* use JFNK solver */
(PID.TID 0000.0001)                   F
(PID.TID 0000.0001)     ;
(PID.TID 0000.0001) SEAICEuseFREEDRIFT = /* use free drift solution */
(PID.TID 0000.0001)                   F
(PID.TID 0000.0001)     ;
(PID.TID 0000.0001) OCEAN_drag        = /* air-ocean drag coefficient */
(PID.TID 0000.0001)                 1.000000000000000E-03
(PID.TID 0000.0001)     ;
(PID.TID 0000.0001) SEAICE_drag       = /* air-ice drag coefficient */
(PID.TID 0000.0001)                 2.000000000000000E-03
(PID.TID 0000.0001)     ;
(PID.TID 0000.0001) SEAICE_drag_south      = /* Southern Ocean SEAICE_drag */
(PID.TID 0000.0001)                 2.000000000000000E-03
(PID.TID 0000.0001)     ;
(PID.TID 0000.0001) SEAICE_waterDrag  = /* water-ice drag (no units) */
(PID.TID 0000.0001)                 5.314009661835749E-03
(PID.TID 0000.0001)     ;
(PID.TID 0000.0001) SEAICE_waterDrag_south = /* Southern Ocean waterDrag (no units) */
(PID.TID 0000.0001)                 5.314009661835749E-03
(PID.TID 0000.0001)     ;
(PID.TID 0000.0001) SEAICEdWatMin = /* minimum linear water-ice drag (in m/s) */
(PID.TID 0000.0001)                 2.500000000000000E-01
(PID.TID 0000.0001)     ;
(PID.TID 0000.0001) SEAICEuseTilt     = /* include surface tilt in dyna. */
(PID.TID 0000.0001)                   T
(PID.TID 0000.0001)     ;
(PID.TID 0000.0001) SEAICEuseTEM      = /* use truncated ellipse rheology */
(PID.TID 0000.0001)                   F
(PID.TID 0000.0001)     ;
(PID.TID 0000.0001) SEAICE_strength   = /* sea-ice strength Pstar */
(PID.TID 0000.0001)                 2.750000000000000E+04
(PID.TID 0000.0001)     ;
(PID.TID 0000.0001) SEAICE_cStar      = /* sea-ice strength parameter cStar */
(PID.TID 0000.0001)                 2.000000000000000E+01
(PID.TID 0000.0001)     ;
(PID.TID 0000.0001) SEAICEpressReplFac= /* press. replacement method factor */
(PID.TID 0000.0001)                 1.000000000000000E+00
(PID.TID 0000.0001)     ;
(PID.TID 0000.0001) SEAICE_tensilFac  = /* sea-ice tensile strength factor */
(PID.TID 0000.0001)                 0.000000000000000E+00
(PID.TID 0000.0001)     ;
(PID.TID 0000.0001) SEAICE_tensilDepth= /* crit. depth for tensile strength */
(PID.TID 0000.0001)                 0.000000000000000E+00
(PID.TID 0000.0001)     ;
(PID.TID 0000.0001) SEAICEpresH0   = /* sea-ice strength Heff threshold */
(PID.TID 0000.0001)                 1.000000000000000E+00
(PID.TID 0000.0001)     ;
(PID.TID 0000.0001) SEAICEpresPow0 = /* exponent for Heff<SEAICEpresH0 */
(PID.TID 0000.0001)                       1
(PID.TID 0000.0001)     ;
(PID.TID 0000.0001) SEAICEpresPow1 = /* exponent for Heff>SEAICEpresH0 */
(PID.TID 0000.0001)                       1
(PID.TID 0000.0001)     ;
(PID.TID 0000.0001) SEAICEetaZmethod = /* method computing eta at Z-point */
(PID.TID 0000.0001)                       0
(PID.TID 0000.0001)     ;
(PID.TID 0000.0001) SEAICE_zetaMaxFac = /* factor for upper viscosity bound */
(PID.TID 0000.0001)                 2.500000000000000E+08
(PID.TID 0000.0001)     ;
(PID.TID 0000.0001) SEAICE_zetaMin    = /* lower bound for viscosity */
(PID.TID 0000.0001)                 0.000000000000000E+00
(PID.TID 0000.0001)     ;
(PID.TID 0000.0001) SEAICE_eccen    = /* elliptical yield curve eccent */
(PID.TID 0000.0001)                 2.000000000000000E+00
(PID.TID 0000.0001)     ;
(PID.TID 0000.0001) SEAICEstressFactor    = /* wind stress scaling factor */
(PID.TID 0000.0001)                 1.000000000000000E+00
(PID.TID 0000.0001)     ;
(PID.TID 0000.0001) SEAICE_airTurnAngle    = /* air-ice turning angle */
(PID.TID 0000.0001)                 0.000000000000000E+00
(PID.TID 0000.0001)     ;
(PID.TID 0000.0001) SEAICE_waterTurnAngle  = /* ice-water turning angle */
(PID.TID 0000.0001)                 0.000000000000000E+00
(PID.TID 0000.0001)     ;
(PID.TID 0000.0001) SEAICEuseMetricTerms = /* use metric terms */
(PID.TID 0000.0001)                   T
(PID.TID 0000.0001)     ;
(PID.TID 0000.0001) SEAICE_no_slip    = /* no slip boundary conditions */
(PID.TID 0000.0001)                   F
(PID.TID 0000.0001)     ;
(PID.TID 0000.0001) SEAICE_2ndOrderBC = /* 2nd order no slip boundary conditions */
(PID.TID 0000.0001)                   F
(PID.TID 0000.0001)     ;
(PID.TID 0000.0001) SEAICE_clipVeloctities = /* impose max. vels. */
(PID.TID 0000.0001)                   T
(PID.TID 0000.0001)     ;
(PID.TID 0000.0001) useHB87stressCoupling  = /* altern. ice-ocean stress */
(PID.TID 0000.0001)                   F
(PID.TID 0000.0001)     ;
(PID.TID 0000.0001) SEAICEscaleSurfStress  = /* scale atm. and ocean-surface stress with AREA */
(PID.TID 0000.0001)                   F
(PID.TID 0000.0001)     ;
(PID.TID 0000.0001) SEAICE_maskRHS    = /* mask RHS of solver */
(PID.TID 0000.0001)                   F
(PID.TID 0000.0001)     ;
(PID.TID 0000.0001) SEAICEaddSnowMass = /* add snow mass to seaiceMassC/U/V */
(PID.TID 0000.0001)                   F
(PID.TID 0000.0001)     ;
(PID.TID 0000.0001) LSR_mixIniGuess = /* mix free-drift sol. into LSR initial Guess */
(PID.TID 0000.0001)                       0
(PID.TID 0000.0001)     ;
(PID.TID 0000.0001) SEAICE_LSRrelaxU  = /* LSR solver: relaxation parameter */
(PID.TID 0000.0001)                 9.500000000000000E-01
(PID.TID 0000.0001)     ;
(PID.TID 0000.0001) SEAICE_LSRrelaxV  = /* LSR solver: relaxation parameter */
(PID.TID 0000.0001)                 9.500000000000000E-01
(PID.TID 0000.0001)     ;
(PID.TID 0000.0001) LSR_ERROR         = /* sets accuracy of LSR solver */
(PID.TID 0000.0001)                 1.000000000000000E-12
(PID.TID 0000.0001)     ;
(PID.TID 0000.0001) SOLV_NCHECK       = /* test interval for LSR solver */
(PID.TID 0000.0001)                       2
(PID.TID 0000.0001)     ;
(PID.TID 0000.0001) SEAICEuseMultiTileSolver = /* use full domain tri-diag solver */
(PID.TID 0000.0001)                   F
(PID.TID 0000.0001)     ;
(PID.TID 0000.0001) SEAICE_OLx = /* overlap for LSR/preconditioner */
(PID.TID 0000.0001)                       0
(PID.TID 0000.0001)     ;
(PID.TID 0000.0001) SEAICE_OLy = /* overlap for LSR/preconditioner */
(PID.TID 0000.0001)                       0
(PID.TID 0000.0001)     ;
(PID.TID 0000.0001) SEAICEnonLinIterMax = /* max. number of nonlinear solver steps */
(PID.TID 0000.0001)                       2
(PID.TID 0000.0001)     ;
(PID.TID 0000.0001) SEAICElinearIterMax = /* max. number of linear solver steps */
(PID.TID 0000.0001)                    1500
(PID.TID 0000.0001)     ;
(PID.TID 0000.0001) SEAICEnonLinTol     = /* non-linear solver tolerance */
(PID.TID 0000.0001)                 0.000000000000000E+00
(PID.TID 0000.0001)     ;
(PID.TID 0000.0001) 
(PID.TID 0000.0001)    Seaice advection diffusion config,   > START <
(PID.TID 0000.0001)    -----------------------------------------------
(PID.TID 0000.0001) SEAICEmomAdvection = /* advect sea ice momentum */
(PID.TID 0000.0001)                   F
(PID.TID 0000.0001)     ;
(PID.TID 0000.0001) SEAICEadvHeff = /* advect effective ice thickness */
(PID.TID 0000.0001)                   T
(PID.TID 0000.0001)     ;
(PID.TID 0000.0001) SEAICEadvArea = /* advect fractional ice area */
(PID.TID 0000.0001)                   T
(PID.TID 0000.0001)     ;
(PID.TID 0000.0001) SEAICEadvSnow = /* advect snow layer together with ice */
(PID.TID 0000.0001)                   T
(PID.TID 0000.0001)     ;
(PID.TID 0000.0001) SEAICEadvScheme   = /* advection scheme for ice */
(PID.TID 0000.0001)                      30
(PID.TID 0000.0001)     ;
(PID.TID 0000.0001) SEAICEadvSchArea   = /* advection scheme for area */
(PID.TID 0000.0001)                      30
(PID.TID 0000.0001)     ;
(PID.TID 0000.0001) SEAICEadvSchHeff   = /* advection scheme for thickness */
(PID.TID 0000.0001)                      30
(PID.TID 0000.0001)     ;
(PID.TID 0000.0001) SEAICEadvSchSnow   = /* advection scheme for snow */
(PID.TID 0000.0001)                      30
(PID.TID 0000.0001)     ;
(PID.TID 0000.0001) SEAICEdiffKhArea   = /* diffusivity (m^2/s) for area */
(PID.TID 0000.0001)                 0.000000000000000E+00
(PID.TID 0000.0001)     ;
(PID.TID 0000.0001) SEAICEdiffKhHeff   = /* diffusivity (m^2/s) for heff */
(PID.TID 0000.0001)                 0.000000000000000E+00
(PID.TID 0000.0001)     ;
(PID.TID 0000.0001) SEAICEdiffKhSnow   = /* diffusivity (m^2/s) for snow */
(PID.TID 0000.0001)                 0.000000000000000E+00
(PID.TID 0000.0001)     ;
(PID.TID 0000.0001) DIFF1             = /* parameter used in advect.F [m/s] */
(PID.TID 0000.0001)                 0.000000000000000E+00
(PID.TID 0000.0001)     ;
(PID.TID 0000.0001) 
(PID.TID 0000.0001)    Seaice thermodynamics configuration   > START <
(PID.TID 0000.0001)    -----------------------------------------------
(PID.TID 0000.0001) SEAICE_rhoIce     = /* density of sea ice (kg/m3) */
(PID.TID 0000.0001)                 9.100000000000000E+02
(PID.TID 0000.0001)     ;
(PID.TID 0000.0001) SEAICE_rhoSnow    = /* density of snow (kg/m3) */
(PID.TID 0000.0001)                 3.300000000000000E+02
(PID.TID 0000.0001)     ;
(PID.TID 0000.0001) SEAICE_rhoAir     = /* density of air (kg/m3) */
(PID.TID 0000.0001)                 1.220000000000000E+00
(PID.TID 0000.0001)     ;
(PID.TID 0000.0001) usePW79thermodynamics  = /* default 0-layer TD */
(PID.TID 0000.0001)                   T
(PID.TID 0000.0001)     ;
(PID.TID 0000.0001) SEAICE_lhEvap     = /* latent heat of evaporation */
(PID.TID 0000.0001)                 2.500000000000000E+06
(PID.TID 0000.0001)     ;
(PID.TID 0000.0001) SEAICE_lhFusion   = /* latent heat of fusion */
(PID.TID 0000.0001)                 3.340000000000000E+05
(PID.TID 0000.0001)     ;
(PID.TID 0000.0001) SEAICE_mcPheePiston = /* turbulent flux "piston velocity" a la McPhee (m/s) */
(PID.TID 0000.0001)                 5.787037037037037E-04
(PID.TID 0000.0001)     ;
(PID.TID 0000.0001) SEAICE_mcPheeTaper = /* tapering of turbulent flux (0.< <1.) for AREA=1. */
(PID.TID 0000.0001)                 0.000000000000000E+00
(PID.TID 0000.0001)     ;
(PID.TID 0000.0001) SEAICE_mcPheeStepFunc = /* replace linear tapering with step funct. */
(PID.TID 0000.0001)                   F
(PID.TID 0000.0001)     ;
(PID.TID 0000.0001) SEAICE_frazilFrac = /* frazil (T<tempFrz) to seaice conversion rate (0.< <1.) */
(PID.TID 0000.0001)                 1.000000000000000E+00
(PID.TID 0000.0001)     ;
(PID.TID 0000.0001) SEAICE_tempFrz0   = /* freezing temp. of sea water (intercept) */
(PID.TID 0000.0001)                 9.010000000000000E-02
(PID.TID 0000.0001)     ;
(PID.TID 0000.0001) SEAICE_dTempFrz_dS= /* freezing temp. of sea water (slope) */
(PID.TID 0000.0001)                -5.750000000000000E-02
(PID.TID 0000.0001)     ;
(PID.TID 0000.0001) SEAICE_growMeltByConv  = /* grow,melt by vert. conv. */
(PID.TID 0000.0001)                   F
(PID.TID 0000.0001)     ;
(PID.TID 0000.0001) SEAICE_doOpenWaterGrowth = /* grow by open water */
(PID.TID 0000.0001)                   T
(PID.TID 0000.0001)     ;
(PID.TID 0000.0001) SEAICE_doOpenWaterMelt = /* melt by open water */
(PID.TID 0000.0001)                   F
(PID.TID 0000.0001)     ;
(PID.TID 0000.0001) SEAICE_areaGainFormula = /* ice cover gain formula (1,2)*/
(PID.TID 0000.0001)                       1
(PID.TID 0000.0001)     1=from growth by ATM
(PID.TID 0000.0001)     2=from predicted growth by ATM
(PID.TID 0000.0001)     ;
(PID.TID 0000.0001) SEAICE_areaLossFormula = /* ice cover loss formula (1,2)*/
(PID.TID 0000.0001)                       2
(PID.TID 0000.0001)     1=from all but only melt conributions by ATM and OCN
(PID.TID 0000.0001)     2=from net melt-grow>0 by ATM and OCN
(PID.TID 0000.0001)     3=from predicted melt by ATM
(PID.TID 0000.0001)     ;
(PID.TID 0000.0001) HO                = /* nominal thickness of new ice */
(PID.TID 0000.0001)                 5.000000000000000E-01
(PID.TID 0000.0001)     ;
(PID.TID 0000.0001) HO_south               = /* Southern Ocean HO */
(PID.TID 0000.0001)                 5.000000000000000E-01
(PID.TID 0000.0001)     ;
(PID.TID 0000.0001) SEAICE_area_max        = /* set to les than 1. to mimic open leads */
(PID.TID 0000.0001)                 1.000000000000000E+00
(PID.TID 0000.0001)     ;
(PID.TID 0000.0001) SEAICE_salt0   = /* constant sea ice salinity */
(PID.TID 0000.0001)                 4.000000000000000E+00
(PID.TID 0000.0001)     ;
(PID.TID 0000.0001) SEAICE_salinityTracer = /* test SITR varia. salinity */
(PID.TID 0000.0001)                   F
(PID.TID 0000.0001)     ;
(PID.TID 0000.0001) SEAICEuseFlooding = /* turn submerged snow into ice */
(PID.TID 0000.0001)                   T
(PID.TID 0000.0001)     ;
(PID.TID 0000.0001) 
(PID.TID 0000.0001)    Seaice air-sea fluxes configuration,   > START <
(PID.TID 0000.0001)    -----------------------------------------------
(PID.TID 0000.0001) SEAICEheatConsFix  = /* accound for ocn<->seaice advect. heat flux */
(PID.TID 0000.0001)                   F
(PID.TID 0000.0001)     ;
(PID.TID 0000.0001) SEAICE_multDim    = /* number of ice categories (1 or 7) */
(PID.TID 0000.0001)                       1
(PID.TID 0000.0001)     ;
(PID.TID 0000.0001) SEAICE_PDF        = /* sea-ice distribution (-) */
(PID.TID 0000.0001)                 1.000000000000000E+00,      /* K =  1 */
(PID.TID 0000.0001)     6 @  0.000000000000000E+00              /* K =  2:  7 */
(PID.TID 0000.0001)     ;
(PID.TID 0000.0001) IMAX_TICE         = /* iterations for ice surface temp */
(PID.TID 0000.0001)                      10
(PID.TID 0000.0001)     ;
(PID.TID 0000.0001) postSolvTempIter= /* flux calculation after surf. temp iter */
(PID.TID 0000.0001)                       2
(PID.TID 0000.0001)     ;
(PID.TID 0000.0001) SEAICE_dryIceAlb  = /* winter albedo */
(PID.TID 0000.0001)                 7.500000000000000E-01
(PID.TID 0000.0001)     ;
(PID.TID 0000.0001) SEAICE_wetIceAlb  = /* summer albedo */
(PID.TID 0000.0001)                 6.600000000000000E-01
(PID.TID 0000.0001)     ;
(PID.TID 0000.0001) SEAICE_drySnowAlb = /* dry snow albedo */
(PID.TID 0000.0001)                 8.400000000000000E-01
(PID.TID 0000.0001)     ;
(PID.TID 0000.0001) SEAICE_wetSnowAlb = /* wet snow albedo */
(PID.TID 0000.0001)                 7.000000000000000E-01
(PID.TID 0000.0001)     ;
(PID.TID 0000.0001) SEAICE_dryIceAlb_south = /* Southern Ocean dryIceAlb */
(PID.TID 0000.0001)                 7.500000000000000E-01
(PID.TID 0000.0001)     ;
(PID.TID 0000.0001) SEAICE_wetIceAlb_south = /* Southern Ocean wetIceAlb */
(PID.TID 0000.0001)                 6.600000000000000E-01
(PID.TID 0000.0001)     ;
(PID.TID 0000.0001) SEAICE_drySnowAlb_south= /* Southern Ocean drySnowAlb */
(PID.TID 0000.0001)                 8.400000000000000E-01
(PID.TID 0000.0001)     ;
(PID.TID 0000.0001) SEAICE_wetSnowAlb_south= /* Southern Ocean wetSnowAlb */
(PID.TID 0000.0001)                 7.000000000000000E-01
(PID.TID 0000.0001)     ;
(PID.TID 0000.0001) SEAICE_wetAlbTemp= /* Temp (o.C) threshold for wet-albedo */
(PID.TID 0000.0001)                 0.000000000000000E+00
(PID.TID 0000.0001)     ;
(PID.TID 0000.0001) SEAICE_snow_emiss = /* snow emissivity */
(PID.TID 0000.0001)                 9.500000000000000E-01
(PID.TID 0000.0001)     ;
(PID.TID 0000.0001) SEAICE_ice_emiss = /* seaice emissivity */
(PID.TID 0000.0001)                 9.500000000000000E-01
(PID.TID 0000.0001)     ;
(PID.TID 0000.0001) SEAICE_cpAir      = /* heat capacity of air */
(PID.TID 0000.0001)                 1.005000000000000E+03
(PID.TID 0000.0001)     ;
(PID.TID 0000.0001) SEAICE_dalton     = /* constant dalton number */
(PID.TID 0000.0001)                 1.750000000000000E-03
(PID.TID 0000.0001)     ;
(PID.TID 0000.0001) SEAICE_iceConduct = /* sea-ice conductivity */
(PID.TID 0000.0001)                 2.165600000000000E+00
(PID.TID 0000.0001)     ;
(PID.TID 0000.0001) SEAICE_snowConduct= /* snow conductivity */
(PID.TID 0000.0001)                 3.100000000000000E-01
(PID.TID 0000.0001)     ;
(PID.TID 0000.0001) SEAICE_snowThick  = /* cutoff snow thickness (for albedo) */
(PID.TID 0000.0001)                 0.000000000000000E+00
(PID.TID 0000.0001)     ;
(PID.TID 0000.0001) SEAICE_shortwave  = /* penetration shortwave radiation */
(PID.TID 0000.0001)                 3.000000000000000E-01
(PID.TID 0000.0001)     ;
(PID.TID 0000.0001) useMaykutSatVapPoly = /* use Maykut Polynomial for Sat.Vap.Pr */
(PID.TID 0000.0001)                   F
(PID.TID 0000.0001)     ;
(PID.TID 0000.0001) MIN_ATEMP         = /* minimum air temperature */
(PID.TID 0000.0001)                -5.000000000000000E+01
(PID.TID 0000.0001)     ;
(PID.TID 0000.0001) MIN_LWDOWN        = /* minimum downward longwave */
(PID.TID 0000.0001)                 6.000000000000000E+01
(PID.TID 0000.0001)     ;
(PID.TID 0000.0001) MIN_TICE          = /* minimum ice temperature */
(PID.TID 0000.0001)                -5.000000000000000E+01
(PID.TID 0000.0001)     ;
(PID.TID 0000.0001) 
(PID.TID 0000.0001)    Seaice initialization and IO config.,   > START <
(PID.TID 0000.0001)    -------------------------------------------------
(PID.TID 0000.0001) SEAICE_initialHEFF= /* initial sea-ice thickness */
(PID.TID 0000.0001)                 0.000000000000000E+00
(PID.TID 0000.0001)     ;
(PID.TID 0000.0001) AreaFile = /* Initial ice concentration File */
(PID.TID 0000.0001)               ''
(PID.TID 0000.0001)     ;
(PID.TID 0000.0001) HeffFile = /* Initial effective ice thickness File */
(PID.TID 0000.0001)               ''
(PID.TID 0000.0001)     ;
(PID.TID 0000.0001) HsnowFile = /* Initial snow thickness File */
(PID.TID 0000.0001)               ''
(PID.TID 0000.0001)     ;
(PID.TID 0000.0001) uIceFile = /* Initial U-ice velocity File */
(PID.TID 0000.0001)               ''
(PID.TID 0000.0001)     ;
(PID.TID 0000.0001) vIceFile = /* Initial V-ice velocity File */
(PID.TID 0000.0001)               ''
(PID.TID 0000.0001)     ;
(PID.TID 0000.0001) SEAICEwriteState  = /* write sea ice state to file */
(PID.TID 0000.0001)                   F
(PID.TID 0000.0001)     ;
(PID.TID 0000.0001) SEAICE_monFreq  = /* monitor frequency */
(PID.TID 0000.0001)                 1.000000000000000E+00
(PID.TID 0000.0001)     ;
(PID.TID 0000.0001) SEAICE_dumpFreq   = /* dump frequency */
(PID.TID 0000.0001)                 4.320000000000000E+05
(PID.TID 0000.0001)     ;
(PID.TID 0000.0001) SEAICE_taveFreq   = /* time-averaging frequency */
(PID.TID 0000.0001)                 0.000000000000000E+00
(PID.TID 0000.0001)     ;
(PID.TID 0000.0001) SEAICE_mon_stdio  = /* write monitor to std-outp */
(PID.TID 0000.0001)                   T
(PID.TID 0000.0001)     ;
(PID.TID 0000.0001) SEAICE_dump_mdsio = /* write snap-shot   using MDSIO */
(PID.TID 0000.0001)                   T
(PID.TID 0000.0001)     ;
(PID.TID 0000.0001) SEAICE_tave_mdsio = /* write TimeAverage using MDSIO */
(PID.TID 0000.0001)                   T
(PID.TID 0000.0001)     ;
(PID.TID 0000.0001) 
(PID.TID 0000.0001)    Seaice regularization numbers,   > START <
(PID.TID 0000.0001)    -----------------------------------------------
(PID.TID 0000.0001) SEAICE_deltaMin   = /* reduce singularities in Delta */
(PID.TID 0000.0001)                 1.000000000000000E-10
(PID.TID 0000.0001)     ;
(PID.TID 0000.0001) SEAICE_EPS        = /* small number */
(PID.TID 0000.0001)                 1.000000000000000E-10
(PID.TID 0000.0001)     ;
(PID.TID 0000.0001) SEAICE_EPS_SQ     = /* small number squared */
(PID.TID 0000.0001)                 1.000000000000000E-20
(PID.TID 0000.0001)     ;
(PID.TID 0000.0001) SEAICE_area_reg   = /* reduce derivative singularities */
(PID.TID 0000.0001)                 1.000000000000000E-05
(PID.TID 0000.0001)     ;
(PID.TID 0000.0001) SEAICE_hice_reg   = /* reduce derivative singularities */
(PID.TID 0000.0001)                 5.000000000000000E-02
(PID.TID 0000.0001)     ;
(PID.TID 0000.0001) SEAICE_area_floor = /* reduce derivative singularities */
(PID.TID 0000.0001)                 1.000000000000000E-05
(PID.TID 0000.0001)     ;
(PID.TID 0000.0001) 
(PID.TID 0000.0001) // =======================================================
(PID.TID 0000.0001) // Seaice configuration (SEAICE_PARM01) >>> END <<<
(PID.TID 0000.0001) // =======================================================
(PID.TID 0000.0001) 
(PID.TID 0000.0001) ctrl-wet 1:    nvarlength =       239366
(PID.TID 0000.0001) ctrl-wet 2: surface wet C =          389
(PID.TID 0000.0001) ctrl-wet 3: surface wet W =          367
(PID.TID 0000.0001) ctrl-wet 4: surface wet S =          384
(PID.TID 0000.0001) ctrl-wet 4a:surface wet V =            0
(PID.TID 0000.0001) ctrl-wet 5: 3D wet points =         5204
(PID.TID 0000.0001) ctrl-wet 6: no recs for i =     1           1
(PID.TID 0000.0001) ctrl-wet 6: no recs for i =     2           1
(PID.TID 0000.0001) ctrl-wet 6: no recs for i =     3           1
(PID.TID 0000.0001) ctrl-wet 6: no recs for i =     4           1
(PID.TID 0000.0001) ctrl-wet 6: no recs for i =     5           1
(PID.TID 0000.0001) ctrl-wet 6: no recs for i =     6           1
(PID.TID 0000.0001) ctrl-wet 6: no recs for i =     7           0
(PID.TID 0000.0001) ctrl-wet 6: no recs for i =     8           0
(PID.TID 0000.0001) ctrl-wet 6: no recs for i =     9           0
(PID.TID 0000.0001) ctrl-wet 6: no recs for i =    10           0
(PID.TID 0000.0001) ctrl-wet 6: no recs for i =    11           0
(PID.TID 0000.0001) ctrl-wet 6: no recs for i =    12           0
(PID.TID 0000.0001) ctrl-wet 6: no recs for i =    13           0
(PID.TID 0000.0001) ctrl-wet 6: no recs for i =    14           0
(PID.TID 0000.0001) ctrl-wet 6: no recs for i =    15           1
(PID.TID 0000.0001) ctrl-wet 6: no recs for i =    16           0
(PID.TID 0000.0001) ctrl-wet 6: no recs for i =    17           1
(PID.TID 0000.0001) ctrl-wet 6: no recs for i =    18           0
(PID.TID 0000.0001) ctrl-wet 6: no recs for i =    19           0
(PID.TID 0000.0001) ctrl-wet 6: no recs for i =    20           0
(PID.TID 0000.0001) ctrl-wet 6: no recs for i =    21           0
(PID.TID 0000.0001) ctrl-wet 6: no recs for i =    22           0
(PID.TID 0000.0001) ctrl-wet 6: no recs for i =    23           0
(PID.TID 0000.0001) ctrl-wet 6: no recs for i =    24           0
(PID.TID 0000.0001) ctrl-wet 6: no recs for i =    25           0
(PID.TID 0000.0001) ctrl-wet 6: no recs for i =    26           0
(PID.TID 0000.0001) ctrl-wet 6: no recs for i =    27           0
(PID.TID 0000.0001) ctrl-wet 6: no recs for i =    28           0
(PID.TID 0000.0001) ctrl-wet 6: no recs for i =    29           0
(PID.TID 0000.0001) ctrl-wet 6: no recs for i =    30           0
(PID.TID 0000.0001) ctrl-wet 6: no recs for i =    31           0
(PID.TID 0000.0001) ctrl-wet 6: no recs for i =    32           0
(PID.TID 0000.0001) ctrl-wet 6: no recs for i =    33           0
(PID.TID 0000.0001) ctrl-wet 6: no recs for i =    34           0
(PID.TID 0000.0001) ctrl-wet 6: no recs for i =    35           0
(PID.TID 0000.0001) ctrl-wet 6: no recs for i =    36           0
(PID.TID 0000.0001) ctrl-wet 6: no recs for i =    37           0
(PID.TID 0000.0001) ctrl-wet 6: no recs for i =    38           0
(PID.TID 0000.0001) ctrl-wet 6: no recs for i =    39           0
(PID.TID 0000.0001) ctrl-wet 6: no recs for i =    40           0
(PID.TID 0000.0001) ctrl-wet 6: no recs for i =    41           0
(PID.TID 0000.0001) ctrl-wet 6: no recs for i =    42           0
(PID.TID 0000.0001) ctrl-wet 6: no recs for i =    43           0
(PID.TID 0000.0001) ctrl-wet 6: no recs for i =    44           0
(PID.TID 0000.0001) ctrl-wet 6: no recs for i =    45           0
(PID.TID 0000.0001) ctrl-wet 6: no recs for i =    46           0
(PID.TID 0000.0001) ctrl-wet 6: no recs for i =    47           0
(PID.TID 0000.0001) ctrl-wet 6: no recs for i =    48           0
(PID.TID 0000.0001) ctrl-wet 6: no recs for i =    49           0
(PID.TID 0000.0001) ctrl-wet 6: no recs for i =    50           0
(PID.TID 0000.0001) ctrl-wet 6: no recs for i =    51           0
(PID.TID 0000.0001) ctrl-wet 6: no recs for i =    52           0
(PID.TID 0000.0001) ctrl-wet 6: no recs for i =    53           0
(PID.TID 0000.0001) ctrl-wet 6: no recs for i =    54           0
(PID.TID 0000.0001) ctrl-wet 6: no recs for i =    55           0
(PID.TID 0000.0001) ctrl-wet 6: no recs for i =    56           0
(PID.TID 0000.0001) ctrl-wet 6: no recs for i =    57           0
(PID.TID 0000.0001) ctrl-wet 6: no recs for i =    58           0
(PID.TID 0000.0001) ctrl-wet 6: no recs for i =    59           0
(PID.TID 0000.0001) ctrl-wet 6: no recs for i =    60           0
(PID.TID 0000.0001) ctrl-wet 7: flux         11937
(PID.TID 0000.0001) ctrl-wet 8: atmos        10408
(PID.TID 0000.0001) ctrl-wet -------------------------------------------------
(PID.TID 0000.0001) ctrl-wet 13: global nvarlength for Nr =   15      239366
(PID.TID 0000.0001) ctrl-wet -------------------------------------------------
(PID.TID 0000.0001) ctrl-wet 14: global nWet C/S/W/V k=    1        4420        4232        4206           0
(PID.TID 0000.0001) ctrl-wet 14: global nWet C/S/W/V k=    2        4299        4112        4096           0
(PID.TID 0000.0001) ctrl-wet 14: global nWet C/S/W/V k=    3        4222        4038        4023           0
(PID.TID 0000.0001) ctrl-wet 14: global nWet C/S/W/V k=    4        4140        3960        3939           0
(PID.TID 0000.0001) ctrl-wet 14: global nWet C/S/W/V k=    5        4099        3919        3893           0
(PID.TID 0000.0001) ctrl-wet 14: global nWet C/S/W/V k=    6        4038        3856        3839           0
(PID.TID 0000.0001) ctrl-wet 14: global nWet C/S/W/V k=    7        3995        3814        3795           0
(PID.TID 0000.0001) ctrl-wet 14: global nWet C/S/W/V k=    8        3944        3756        3737           0
(PID.TID 0000.0001) ctrl-wet 14: global nWet C/S/W/V k=    9        3887        3699        3673           0
(PID.TID 0000.0001) ctrl-wet 14: global nWet C/S/W/V k=   10        3799        3605        3585           0
(PID.TID 0000.0001) ctrl-wet 14: global nWet C/S/W/V k=   11        3703        3502        3461           0
(PID.TID 0000.0001) ctrl-wet 14: global nWet C/S/W/V k=   12        3554        3338        3303           0
(PID.TID 0000.0001) ctrl-wet 14: global nWet C/S/W/V k=   13        3202        2910        2911           0
(PID.TID 0000.0001) ctrl-wet 14: global nWet C/S/W/V k=   14        2599        2296        2276           0
(PID.TID 0000.0001) ctrl-wet 14: global nWet C/S/W/V k=   15        1621        1368        1334           0
(PID.TID 0000.0001) ctrl-wet -------------------------------------------------
(PID.TID 0000.0001) ctrl-wet -------------------------------------------------
(PID.TID 0000.0001) ctrl-wet -------------------------------------------------
(PID.TID 0000.0001) ctrl_init: no. of control variables:            8
(PID.TID 0000.0001) ctrl_init: control vector length:          239366
(PID.TID 0000.0001) 
(PID.TID 0000.0001) // =======================================================
(PID.TID 0000.0001) // control vector configuration  >>> START <<<
(PID.TID 0000.0001) // =======================================================
(PID.TID 0000.0001) 
(PID.TID 0000.0001)  Total number of ocean points per tile:
(PID.TID 0000.0001)  --------------------------------------
(PID.TID 0000.0001)  snx*sny*nr =     7680
(PID.TID 0000.0001) 
(PID.TID 0000.0001)  Number of ocean points per tile:
(PID.TID 0000.0001)  --------------------------------
(PID.TID 0000.0001)  bi,bj,#(c/s/w): 0001 0001 005204 005084 004791
(PID.TID 0000.0001)  bi,bj,#(c/s/w): 0002 0001 003115 002837 002945
(PID.TID 0000.0001)  bi,bj,#(c/s/w): 0003 0001 005620 005386 005384
(PID.TID 0000.0001)  bi,bj,#(c/s/w): 0004 0001 002470 002283 001983
(PID.TID 0000.0001)  bi,bj,#(c/s/w): 0005 0001 001306 000952 000953
(PID.TID 0000.0001)  bi,bj,#(c/s/w): 0006 0001 003476 003122 003082
(PID.TID 0000.0001)  bi,bj,#(c/s/w): 0007 0001 005619 005222 005403
(PID.TID 0000.0001)  bi,bj,#(c/s/w): 0008 0001 007482 007397 007429
(PID.TID 0000.0001)  bi,bj,#(c/s/w): 0009 0001 005900 005825 005686
(PID.TID 0000.0001)  bi,bj,#(c/s/w): 0010 0001 003678 003307 003317
(PID.TID 0000.0001)  bi,bj,#(c/s/w): 0011 0001 006008 005782 005796
(PID.TID 0000.0001)  bi,bj,#(c/s/w): 0012 0001 005644 005208 005302
(PID.TID 0000.0001) 
(PID.TID 0000.0001)  Initial state temperature contribution:
(PID.TID 0000.0001)  Control variable index:    0101
(PID.TID 0000.0001) 
(PID.TID 0000.0001)  Initial state salinity contribution:
(PID.TID 0000.0001)  Control variable index:    0102
(PID.TID 0000.0001) 
(PID.TID 0000.0001) // =======================================================
(PID.TID 0000.0001) // control vector configuration  >>> END <<<
(PID.TID 0000.0001) // =======================================================
(PID.TID 0000.0001) 
(PID.TID 0000.0001) INI_GLOBAL_DOMAIN: Found  19 CS-corner Pts in the domain
(PID.TID 0000.0001) %MON fCori_max                    =   1.4574827780704E-04
(PID.TID 0000.0001) %MON fCori_min                    =  -1.4574827780704E-04
(PID.TID 0000.0001) %MON fCori_mean                   =   3.3881317890172E-21
(PID.TID 0000.0001) %MON fCori_sd                     =   8.4202189509968E-05
(PID.TID 0000.0001) %MON fCoriG_max                   =   1.4584247033981E-04
(PID.TID 0000.0001) %MON fCoriG_min                   =  -1.4584247033981E-04
(PID.TID 0000.0001) %MON fCoriG_mean                  =  -1.6940658945086E-20
(PID.TID 0000.0001) %MON fCoriG_sd                    =   8.4202189509968E-05
(PID.TID 0000.0001) %MON fCoriCos_max                 =   1.4580166994612E-04
(PID.TID 0000.0001) %MON fCoriCos_min                 =   5.2407700865903E-06
(PID.TID 0000.0001) %MON fCoriCos_mean                =   1.1514045869113E-04
(PID.TID 0000.0001) %MON fCoriCos_sd                  =   3.0375849106513E-05
(PID.TID 0000.0001) INI_CG2D: CG2D normalisation factor =  1.9156564154949553E-04
(PID.TID 0000.0001) INI_CG2D: cg2dTolerance = 5.809016360175296E-07 (Area=3.6388673751E+14)
(PID.TID 0000.0001) 
(PID.TID 0000.0001) // =======================================================
(PID.TID 0000.0001) // Model configuration
(PID.TID 0000.0001) // =======================================================
(PID.TID 0000.0001) //
(PID.TID 0000.0001) // "Physical" paramters ( PARM01 in namelist )
(PID.TID 0000.0001) //
(PID.TID 0000.0001) buoyancyRelation = /* Type of relation to get Buoyancy */
(PID.TID 0000.0001)               'OCEANIC'
(PID.TID 0000.0001)     ;
(PID.TID 0000.0001) fluidIsAir   =  /* fluid major constituent is Air */
(PID.TID 0000.0001)                   F
(PID.TID 0000.0001)     ;
(PID.TID 0000.0001) fluidIsWater =  /* fluid major constituent is Water */
(PID.TID 0000.0001)                   T
(PID.TID 0000.0001)     ;
(PID.TID 0000.0001) usingPCoords =  /* use p (or p*) vertical coordinate */
(PID.TID 0000.0001)                   F
(PID.TID 0000.0001)     ;
(PID.TID 0000.0001) usingZCoords =  /* use z (or z*) vertical coordinate */
(PID.TID 0000.0001)                   T
(PID.TID 0000.0001)     ;
(PID.TID 0000.0001) tRef =   /* Reference temperature profile ( oC or K ) */
(PID.TID 0000.0001)    15 @  2.000000000000000E+01              /* K =  1: 15 */
(PID.TID 0000.0001)     ;
(PID.TID 0000.0001) sRef =   /* Reference salinity profile ( psu ) */
(PID.TID 0000.0001)    15 @  3.500000000000000E+01              /* K =  1: 15 */
(PID.TID 0000.0001)     ;
(PID.TID 0000.0001) useStrainTensionVisc= /* Use StrainTension Form of Viscous Operator */
(PID.TID 0000.0001)                   F
(PID.TID 0000.0001)     ;
(PID.TID 0000.0001) useVariableVisc = /* Use variable horizontal viscosity */
(PID.TID 0000.0001)                   F
(PID.TID 0000.0001)     ;
(PID.TID 0000.0001) useHarmonicVisc = /* Use harmonic horizontal viscosity */
(PID.TID 0000.0001)                   T
(PID.TID 0000.0001)     ;
(PID.TID 0000.0001) useBiharmonicVisc= /* Use biharmonic horiz.  viscosity */
(PID.TID 0000.0001)                   F
(PID.TID 0000.0001)     ;
(PID.TID 0000.0001) useSmag3D = /* Use isotropic 3-D Smagorinsky viscosity */
(PID.TID 0000.0001)                   F
(PID.TID 0000.0001)     ;
(PID.TID 0000.0001) viscAh  =   /* Lateral harmonic viscosity ( m^2/s ) */
(PID.TID 0000.0001)                 3.000000000000000E+05
(PID.TID 0000.0001)     ;
(PID.TID 0000.0001) viscA4  =   /* Lateral biharmonic viscosity ( m^4/s ) */
(PID.TID 0000.0001)                 0.000000000000000E+00
(PID.TID 0000.0001)     ;
(PID.TID 0000.0001) no_slip_sides =  /* Viscous BCs: No-slip sides */
(PID.TID 0000.0001)                   T
(PID.TID 0000.0001)     ;
(PID.TID 0000.0001) sideDragFactor = /* side-drag scaling factor (non-dim) */
(PID.TID 0000.0001)                 2.000000000000000E+00
(PID.TID 0000.0001)     ;
(PID.TID 0000.0001) viscArNr = /* vertical profile of vertical viscosity ( m^2/s )*/
(PID.TID 0000.0001)    15 @  1.000000000000000E-03              /* K =  1: 15 */
(PID.TID 0000.0001)     ;
(PID.TID 0000.0001) no_slip_bottom =  /* Viscous BCs: No-slip bottom */
(PID.TID 0000.0001)                   T
(PID.TID 0000.0001)     ;
(PID.TID 0000.0001) bottomVisc_pCell = /* Partial-cell in bottom Visc. BC */
(PID.TID 0000.0001)                   F
(PID.TID 0000.0001)     ;
(PID.TID 0000.0001) bottomDragLinear = /* linear bottom-drag coefficient ( m/s ) */
(PID.TID 0000.0001)                 0.000000000000000E+00
(PID.TID 0000.0001)     ;
(PID.TID 0000.0001) bottomDragQuadratic = /* quadratic bottom-drag coefficient (-) */
(PID.TID 0000.0001)                 0.000000000000000E+00
(PID.TID 0000.0001)     ;
(PID.TID 0000.0001) selectBotDragQuadr = /* select quadratic bottom drag options */
(PID.TID 0000.0001)                      -1
(PID.TID 0000.0001)     ;
(PID.TID 0000.0001) diffKhT =   /* Laplacian diffusion of heat laterally ( m^2/s ) */
(PID.TID 0000.0001)                 0.000000000000000E+00
(PID.TID 0000.0001)     ;
(PID.TID 0000.0001) diffK4T =   /* Biharmonic diffusion of heat laterally ( m^4/s ) */
(PID.TID 0000.0001)                 0.000000000000000E+00
(PID.TID 0000.0001)     ;
(PID.TID 0000.0001) diffKhS =   /* Laplacian diffusion of salt laterally ( m^2/s ) */
(PID.TID 0000.0001)                 0.000000000000000E+00
(PID.TID 0000.0001)     ;
(PID.TID 0000.0001) diffK4S =   /* Biharmonic diffusion of salt laterally ( m^4/s ) */
(PID.TID 0000.0001)                 0.000000000000000E+00
(PID.TID 0000.0001)     ;
(PID.TID 0000.0001) diffKrNrT = /* vertical profile of vertical diffusion of Temp ( m^2/s )*/
(PID.TID 0000.0001)    15 @  0.000000000000000E+00              /* K =  1: 15 */
(PID.TID 0000.0001)     ;
(PID.TID 0000.0001) diffKrNrS = /* vertical profile of vertical diffusion of Salt ( m^2/s )*/
(PID.TID 0000.0001)    15 @  3.000000000000000E-05              /* K =  1: 15 */
(PID.TID 0000.0001)     ;
(PID.TID 0000.0001) diffKrBL79surf = /* Surface diffusion for Bryan and Lewis 79 ( m^2/s ) */
(PID.TID 0000.0001)                 0.000000000000000E+00
(PID.TID 0000.0001)     ;
(PID.TID 0000.0001) diffKrBL79deep = /* Deep diffusion for Bryan and Lewis 1979 ( m^2/s ) */
(PID.TID 0000.0001)                 0.000000000000000E+00
(PID.TID 0000.0001)     ;
(PID.TID 0000.0001) diffKrBL79scl = /* Depth scale for Bryan and Lewis 1979 ( m ) */
(PID.TID 0000.0001)                 2.000000000000000E+02
(PID.TID 0000.0001)     ;
(PID.TID 0000.0001) diffKrBL79Ho = /* Turning depth for Bryan and Lewis 1979 ( m ) */
(PID.TID 0000.0001)                -2.000000000000000E+03
(PID.TID 0000.0001)     ;
(PID.TID 0000.0001) ivdc_kappa = /* Implicit Vertical Diffusivity for Convection ( m^2/s) */
(PID.TID 0000.0001)                 1.000000000000000E+01
(PID.TID 0000.0001)     ;
(PID.TID 0000.0001) hMixCriteria=  /* Criteria for mixed-layer diagnostic */
(PID.TID 0000.0001)                -8.000000000000000E-01
(PID.TID 0000.0001)     ;
(PID.TID 0000.0001) dRhoSmall =  /* Parameter for mixed-layer diagnostic */
(PID.TID 0000.0001)                 1.000000000000000E-06
(PID.TID 0000.0001)     ;
(PID.TID 0000.0001) hMixSmooth=  /* Smoothing parameter for mixed-layer diagnostic */
(PID.TID 0000.0001)                 0.000000000000000E+00
(PID.TID 0000.0001)     ;
(PID.TID 0000.0001) eosType =  /* Type of Equation of State */
(PID.TID 0000.0001)               'JMD95Z'
(PID.TID 0000.0001)     ;
(PID.TID 0000.0001) eosRefP0 = /* Reference atmospheric pressure for EOS ( Pa ) */
(PID.TID 0000.0001)                 1.013250000000000E+05
(PID.TID 0000.0001)     ;
(PID.TID 0000.0001) selectP_inEOS_Zc = /* select pressure to use in EOS (0,1,2,3) */
(PID.TID 0000.0001)                       0
(PID.TID 0000.0001)     0= -g*rhoConst*z ; 1= pRef (from tRef,sRef); 2= Hyd P ; 3= Hyd+NH P
(PID.TID 0000.0001)     ;
(PID.TID 0000.0001) surf_pRef = /* Surface reference pressure ( Pa ) */
(PID.TID 0000.0001)                 1.013250000000000E+05
(PID.TID 0000.0001)     ;
(PID.TID 0000.0001) HeatCapacity_Cp =  /* Specific heat capacity ( J/kg/K ) */
(PID.TID 0000.0001)                 3.994000000000000E+03
(PID.TID 0000.0001)     ;
(PID.TID 0000.0001) celsius2K = /* 0 degree Celsius converted to Kelvin ( K ) */
(PID.TID 0000.0001)                 2.731500000000000E+02
(PID.TID 0000.0001)     ;
(PID.TID 0000.0001) rhoConst  = /* Reference density (Boussinesq)  ( kg/m^3 ) */
(PID.TID 0000.0001)                 1.035000000000000E+03
(PID.TID 0000.0001)     ;
(PID.TID 0000.0001) rhoFacC = /* normalized Reference density @ cell-Center (-) */
(PID.TID 0000.0001)    15 @  1.000000000000000E+00              /* K =  1: 15 */
(PID.TID 0000.0001)     ;
(PID.TID 0000.0001) rhoFacF = /* normalized Reference density @ W-Interface (-) */
(PID.TID 0000.0001)    16 @  1.000000000000000E+00              /* K =  1: 16 */
(PID.TID 0000.0001)     ;
(PID.TID 0000.0001) rhoConstFresh = /* Fresh-water reference density ( kg/m^3 ) */
(PID.TID 0000.0001)                 1.000000000000000E+03
(PID.TID 0000.0001)     ;
(PID.TID 0000.0001) gravity =   /* Gravitational acceleration ( m/s^2 ) */
(PID.TID 0000.0001)                 9.810000000000000E+00
(PID.TID 0000.0001)     ;
(PID.TID 0000.0001) gBaro =   /* Barotropic gravity ( m/s^2 ) */
(PID.TID 0000.0001)                 9.810000000000000E+00
(PID.TID 0000.0001)     ;
(PID.TID 0000.0001) gravFacC = /* gravity factor (vs surf.) @ cell-Center (-) */
(PID.TID 0000.0001)    15 @  1.000000000000000E+00              /* K =  1: 15 */
(PID.TID 0000.0001)     ;
(PID.TID 0000.0001) gravFacF = /* gravity factor (vs surf.) @ W-Interface (-) */
(PID.TID 0000.0001)    16 @  1.000000000000000E+00              /* K =  1: 16 */
(PID.TID 0000.0001)     ;
(PID.TID 0000.0001) rotationPeriod =   /* Rotation Period ( s ) */
(PID.TID 0000.0001)                 8.616400000000000E+04
(PID.TID 0000.0001)     ;
(PID.TID 0000.0001) omega =   /* Angular velocity ( rad/s ) */
(PID.TID 0000.0001)                 7.292123516990375E-05
(PID.TID 0000.0001)     ;
(PID.TID 0000.0001) f0 =   /* Reference coriolis parameter ( 1/s ) */
(PID.TID 0000.0001)                 1.000000000000000E-04
(PID.TID 0000.0001)     ;
(PID.TID 0000.0001) beta =   /* Beta ( 1/(m.s) ) */
(PID.TID 0000.0001)                 9.999999999999999E-12
(PID.TID 0000.0001)     ;
(PID.TID 0000.0001) fPrime =   /* Second coriolis parameter ( 1/s ) */
(PID.TID 0000.0001)                 0.000000000000000E+00
(PID.TID 0000.0001)     ;
(PID.TID 0000.0001) rigidLid =   /* Rigid lid on/off flag */
(PID.TID 0000.0001)                   F
(PID.TID 0000.0001)     ;
(PID.TID 0000.0001) implicitFreeSurface =   /* Implicit free surface on/off flag */
(PID.TID 0000.0001)                   T
(PID.TID 0000.0001)     ;
(PID.TID 0000.0001) freeSurfFac =   /* Implicit free surface factor */
(PID.TID 0000.0001)                 1.000000000000000E+00
(PID.TID 0000.0001)     ;
(PID.TID 0000.0001) implicSurfPress =  /* Surface Pressure implicit factor (0-1)*/
(PID.TID 0000.0001)                 1.000000000000000E+00
(PID.TID 0000.0001)     ;
(PID.TID 0000.0001) implicDiv2DFlow =  /* Barot. Flow Div. implicit factor (0-1)*/
(PID.TID 0000.0001)                 1.000000000000000E+00
(PID.TID 0000.0001)     ;
(PID.TID 0000.0001) uniformLin_PhiSurf = /* use uniform Bo_surf on/off flag*/
(PID.TID 0000.0001)                   T
(PID.TID 0000.0001)     ;
(PID.TID 0000.0001) uniformFreeSurfLev = /* free-surface level-index is uniform */
(PID.TID 0000.0001)                   T
(PID.TID 0000.0001)     ;
(PID.TID 0000.0001) hFacMin =   /* minimum partial cell factor (hFac) */
(PID.TID 0000.0001)                 1.000000000000000E-01
(PID.TID 0000.0001)     ;
(PID.TID 0000.0001) hFacMinDr = /* minimum partial cell thickness ( m) */
(PID.TID 0000.0001)                 2.000000000000000E+01
(PID.TID 0000.0001)     ;
(PID.TID 0000.0001) exactConserv =  /* Exact Volume Conservation on/off flag*/
(PID.TID 0000.0001)                   T
(PID.TID 0000.0001)     ;
(PID.TID 0000.0001) linFSConserveTr = /* Tracer correction for Lin Free Surface on/off flag*/
(PID.TID 0000.0001)                   F
(PID.TID 0000.0001)     ;
(PID.TID 0000.0001) nonlinFreeSurf = /* Non-linear Free Surf. options (-1,0,1,2,3)*/
(PID.TID 0000.0001)                       2
(PID.TID 0000.0001)      -1,0= Off ; 1,2,3= On, 2=+rescale gU,gV, 3=+update cg2d solv.
(PID.TID 0000.0001)     ;
(PID.TID 0000.0001) hFacInf =   /* lower threshold for hFac (nonlinFreeSurf only)*/
(PID.TID 0000.0001)                 2.000000000000000E-01
(PID.TID 0000.0001)     ;
(PID.TID 0000.0001) hFacSup =   /* upper threshold for hFac (nonlinFreeSurf only)*/
(PID.TID 0000.0001)                 2.000000000000000E+00
(PID.TID 0000.0001)     ;
(PID.TID 0000.0001) select_rStar = /* r* Vertical coord. options (=0 r coord.; >0 uses r*)*/
(PID.TID 0000.0001)                       1
(PID.TID 0000.0001)     ;
(PID.TID 0000.0001) useRealFreshWaterFlux = /* Real Fresh Water Flux on/off flag*/
(PID.TID 0000.0001)                   T
(PID.TID 0000.0001)     ;
(PID.TID 0000.0001) temp_EvPrRn = /* Temp. of Evap/Prec/R (UNSET=use local T)(oC)*/
(PID.TID 0000.0001)                 1.234567000000000E+05
(PID.TID 0000.0001)     ;
(PID.TID 0000.0001) salt_EvPrRn = /* Salin. of Evap/Prec/R (UNSET=use local S)(psu)*/
(PID.TID 0000.0001)                 0.000000000000000E+00
(PID.TID 0000.0001)     ;
(PID.TID 0000.0001) selectAddFluid = /* option for mass source/sink of fluid (=0: off) */
(PID.TID 0000.0001)                       0
(PID.TID 0000.0001)     ;
(PID.TID 0000.0001) temp_addMass = /* Temp. of addMass array (UNSET=use local T)(oC)*/
(PID.TID 0000.0001)                 1.234567000000000E+05
(PID.TID 0000.0001)     ;
(PID.TID 0000.0001) salt_addMass = /* Salin. of addMass array (UNSET=use local S)(psu)*/
(PID.TID 0000.0001)                 0.000000000000000E+00
(PID.TID 0000.0001)     ;
(PID.TID 0000.0001) use3Dsolver = /* use 3-D pressure solver on/off flag */
(PID.TID 0000.0001)                   F
(PID.TID 0000.0001)     ;
(PID.TID 0000.0001) nonHydrostatic =  /* Non-Hydrostatic on/off flag */
(PID.TID 0000.0001)                   F
(PID.TID 0000.0001)     ;
(PID.TID 0000.0001) nh_Am2 = /* Non-Hydrostatic terms scaling factor */
(PID.TID 0000.0001)                 1.000000000000000E+00
(PID.TID 0000.0001)     ;
(PID.TID 0000.0001) implicitNHPress = /* Non-Hyd Pressure implicit factor (0-1)*/
(PID.TID 0000.0001)                 1.000000000000000E+00
(PID.TID 0000.0001)     ;
(PID.TID 0000.0001) selectNHfreeSurf = /* Non-Hyd (free-)Surface option */
(PID.TID 0000.0001)                       0
(PID.TID 0000.0001)     ;
(PID.TID 0000.0001) quasiHydrostatic = /* Quasi-Hydrostatic on/off flag */
(PID.TID 0000.0001)                   F
(PID.TID 0000.0001)     ;
(PID.TID 0000.0001) calc_wVelocity = /* vertical velocity calculation on/off flag */
(PID.TID 0000.0001)                   T
(PID.TID 0000.0001)     ;
(PID.TID 0000.0001) momStepping =  /* Momentum equation on/off flag */
(PID.TID 0000.0001)                   T
(PID.TID 0000.0001)     ;
(PID.TID 0000.0001) vectorInvariantMomentum= /* Vector-Invariant Momentum on/off */
(PID.TID 0000.0001)                   T
(PID.TID 0000.0001)     ;
(PID.TID 0000.0001) momAdvection =  /* Momentum advection on/off flag */
(PID.TID 0000.0001)                   T
(PID.TID 0000.0001)     ;
(PID.TID 0000.0001) momViscosity =  /* Momentum viscosity on/off flag */
(PID.TID 0000.0001)                   T
(PID.TID 0000.0001)     ;
(PID.TID 0000.0001) momImplVertAdv= /* Momentum implicit vert. advection on/off*/
(PID.TID 0000.0001)                   F
(PID.TID 0000.0001)     ;
(PID.TID 0000.0001) implicitViscosity = /* Implicit viscosity on/off flag */
(PID.TID 0000.0001)                   F
(PID.TID 0000.0001)     ;
(PID.TID 0000.0001) selectImplicitDrag= /* Implicit bot Drag options (0,1,2)*/
(PID.TID 0000.0001)                       0
(PID.TID 0000.0001)     0= Expl. ; 1= Impl. on provis. Vel ; 2= Fully Impl (with surf.P)
(PID.TID 0000.0001)     ;
(PID.TID 0000.0001) metricTerms =  /* metric-Terms on/off flag */
(PID.TID 0000.0001)                   F
(PID.TID 0000.0001)     ;
(PID.TID 0000.0001) useNHMTerms = /* Non-Hydrostatic Metric-Terms on/off */
(PID.TID 0000.0001)                   F
(PID.TID 0000.0001)     ;
(PID.TID 0000.0001) selectCoriMap = /* Coriolis Map options (0,1,2,3)*/
(PID.TID 0000.0001)                       2
(PID.TID 0000.0001)     0= f-Plane ; 1= Beta-Plane ; 2= Spherical ; 3= read from file
(PID.TID 0000.0001)     ;
(PID.TID 0000.0001) use3dCoriolis = /* 3-D Coriolis on/off flag */
(PID.TID 0000.0001)                   F
(PID.TID 0000.0001)     ;
(PID.TID 0000.0001) useCoriolis =  /* Coriolis on/off flag */
(PID.TID 0000.0001)                   T
(PID.TID 0000.0001)     ;
(PID.TID 0000.0001) useCDscheme =  /* CD scheme on/off flag */
(PID.TID 0000.0001)                   F
(PID.TID 0000.0001)     ;
(PID.TID 0000.0001) selectCoriScheme= /* Scheme selector for Coriolis-Term */
(PID.TID 0000.0001)                       0
(PID.TID 0000.0001)    = 0 : original discretization (simple averaging, no hFac)
(PID.TID 0000.0001)    = 1 : Wet-point averaging (Jamar & Ozer 1986)
(PID.TID 0000.0001)    = 2 : hFac weighted average (Angular Mom. conserving)
(PID.TID 0000.0001)    = 3 : energy conserving scheme using hFac weighted average
(PID.TID 0000.0001)     ;
(PID.TID 0000.0001) useAbsVorticity= /* V.I Works with f+zeta in Coriolis */
(PID.TID 0000.0001)                   F
(PID.TID 0000.0001)     ;
(PID.TID 0000.0001) selectVortScheme= /* V.I Scheme selector for Vorticity-Term */
(PID.TID 0000.0001)                       1
(PID.TID 0000.0001)    = 0 : enstrophy (Shallow-Water Eq.) conserving scheme by Sadourny, JAS 75
(PID.TID 0000.0001)    = 1 : same as 0 with modified hFac
(PID.TID 0000.0001)    = 2 : energy conserving scheme (used by Sadourny in JAS 75 paper)
(PID.TID 0000.0001)    = 3 : energy (general) and enstrophy (2D, nonDiv.) conserving scheme
(PID.TID 0000.0001)          from Sadourny (Burridge & Haseler, ECMWF Rep.4, 1977)
(PID.TID 0000.0001)     ;
(PID.TID 0000.0001) useJamartMomAdv= /* V.I Non-linear terms Jamart flag */
(PID.TID 0000.0001)                   F
(PID.TID 0000.0001)     ;
(PID.TID 0000.0001) upwindVorticity= /* V.I Upwind bias vorticity flag */
(PID.TID 0000.0001)                   F
(PID.TID 0000.0001)     ;
(PID.TID 0000.0001) highOrderVorticity= /* V.I High order vort. advect. flag */
(PID.TID 0000.0001)                   F
(PID.TID 0000.0001)     ;
(PID.TID 0000.0001) upwindShear= /* V.I Upwind vertical Shear advection flag */
(PID.TID 0000.0001)                   F
(PID.TID 0000.0001)     ;
(PID.TID 0000.0001) selectKEscheme= /* V.I Kinetic Energy scheme selector */
(PID.TID 0000.0001)                       0
(PID.TID 0000.0001)     ;
(PID.TID 0000.0001) momForcing =  /* Momentum forcing on/off flag */
(PID.TID 0000.0001)                   T
(PID.TID 0000.0001)     ;
(PID.TID 0000.0001) momTidalForcing = /* Momentum Tidal forcing on/off flag */
(PID.TID 0000.0001)                   T
(PID.TID 0000.0001)     ;
(PID.TID 0000.0001) momPressureForcing =  /* Momentum pressure term on/off flag */
(PID.TID 0000.0001)                   T
(PID.TID 0000.0001)     ;
(PID.TID 0000.0001) implicitIntGravWave= /* Implicit Internal Gravity Wave flag */
(PID.TID 0000.0001)                   F
(PID.TID 0000.0001)     ;
(PID.TID 0000.0001) staggerTimeStep =    /* Stagger time stepping on/off flag */
(PID.TID 0000.0001)                   T
(PID.TID 0000.0001)     ;
(PID.TID 0000.0001) doResetHFactors = /* reset thickness factors @ each time-step */
(PID.TID 0000.0001)                   T
(PID.TID 0000.0001)     ;
(PID.TID 0000.0001) multiDimAdvection =  /* enable/disable Multi-Dim Advection */
(PID.TID 0000.0001)                   T
(PID.TID 0000.0001)     ;
(PID.TID 0000.0001) useMultiDimAdvec =   /* Multi-Dim Advection is/is-not used */
(PID.TID 0000.0001)                   T
(PID.TID 0000.0001)     ;
(PID.TID 0000.0001) implicitDiffusion = /* Implicit Diffusion on/off flag */
(PID.TID 0000.0001)                   T
(PID.TID 0000.0001)     ;
(PID.TID 0000.0001) tempStepping =  /* Temperature equation on/off flag */
(PID.TID 0000.0001)                   T
(PID.TID 0000.0001)     ;
(PID.TID 0000.0001) tempAdvection = /* Temperature advection on/off flag */
(PID.TID 0000.0001)                   T
(PID.TID 0000.0001)     ;
(PID.TID 0000.0001) tempImplVertAdv = /* Temp. implicit vert. advection on/off */
(PID.TID 0000.0001)                   F
(PID.TID 0000.0001)     ;
(PID.TID 0000.0001) tempForcing  =  /* Temperature forcing on/off flag */
(PID.TID 0000.0001)                   T
(PID.TID 0000.0001)     ;
(PID.TID 0000.0001) balanceQnet  =  /* balance net heat-flux on/off flag */
(PID.TID 0000.0001)                   F
(PID.TID 0000.0001)     ;
(PID.TID 0000.0001) doThetaClimRelax = /* apply SST relaxation on/off flag */
(PID.TID 0000.0001)                   F
(PID.TID 0000.0001)     ;
(PID.TID 0000.0001) balanceThetaClimRelax= /* balance SST relaxation on/off flag */
(PID.TID 0000.0001)                   F
(PID.TID 0000.0001)     ;
(PID.TID 0000.0001) tempIsActiveTr = /* Temp. is a dynamically Active Tracer */
(PID.TID 0000.0001)                   T
(PID.TID 0000.0001)     ;
(PID.TID 0000.0001) saltStepping =  /* Salinity equation on/off flag */
(PID.TID 0000.0001)                   T
(PID.TID 0000.0001)     ;
(PID.TID 0000.0001) saltAdvection = /* Salinity advection on/off flag */
(PID.TID 0000.0001)                   T
(PID.TID 0000.0001)     ;
(PID.TID 0000.0001) saltImplVertAdv = /* Sali. implicit vert. advection on/off */
(PID.TID 0000.0001)                   F
(PID.TID 0000.0001)     ;
(PID.TID 0000.0001) saltForcing  =  /* Salinity forcing on/off flag */
(PID.TID 0000.0001)                   T
(PID.TID 0000.0001)     ;
(PID.TID 0000.0001) balanceEmPmR =  /* balance net fresh-water flux on/off flag */
(PID.TID 0000.0001)                   F
(PID.TID 0000.0001)     ;
(PID.TID 0000.0001) doSaltClimRelax = /* apply SSS relaxation on/off flag */
(PID.TID 0000.0001)                   F
(PID.TID 0000.0001)     ;
(PID.TID 0000.0001) balanceSaltClimRelax= /* balance SSS relaxation on/off flag */
(PID.TID 0000.0001)                   F
(PID.TID 0000.0001)     ;
(PID.TID 0000.0001) saltIsActiveTr = /* Salt  is a dynamically Active Tracer */
(PID.TID 0000.0001)                   T
(PID.TID 0000.0001)     ;
(PID.TID 0000.0001)  readBinaryPrec = /* Precision used for reading binary files */
(PID.TID 0000.0001)                      64
(PID.TID 0000.0001)     ;
(PID.TID 0000.0001) writeBinaryPrec = /* Precision used for writing binary files */
(PID.TID 0000.0001)                      32
(PID.TID 0000.0001)     ;
(PID.TID 0000.0001) balancePrintMean  =  /* print means for balancing fluxes */
(PID.TID 0000.0001)                   F
(PID.TID 0000.0001)     ;
(PID.TID 0000.0001)  rwSuffixType =   /* select format of mds file suffix */
(PID.TID 0000.0001)                       0
(PID.TID 0000.0001)    = 0 : myIter (I10.10) ;   = 1 : 100*myTime (100th sec) ;
(PID.TID 0000.0001)    = 2 : myTime (seconds);   = 3 : myTime/360 (10th of hr);
(PID.TID 0000.0001)    = 4 : myTime/3600 (hours)
(PID.TID 0000.0001)     ;
(PID.TID 0000.0001)  globalFiles = /* write "global" (=not per tile) files */
(PID.TID 0000.0001)                   F
(PID.TID 0000.0001)     ;
(PID.TID 0000.0001)  useSingleCpuIO = /* only master MPI process does I/O */
(PID.TID 0000.0001)                   F
(PID.TID 0000.0001)     ;
(PID.TID 0000.0001)  useSingleCpuInput = /* only master process reads input */
(PID.TID 0000.0001)                   F
(PID.TID 0000.0001)     ;
(PID.TID 0000.0001) /* debLev[*]  : level of debug & auxiliary message printing */
(PID.TID 0000.0001) debLevZero =  0 ; /* level of disabled aux. msg printing */
(PID.TID 0000.0001)    debLevA =  1 ; /* level of minimum  aux. msg printing */
(PID.TID 0000.0001)    debLevB =  2 ; /* level of low aux. print (report read-file opening)*/
(PID.TID 0000.0001)    debLevC =  3 ; /* level of moderate debug prt (most pkgs debug msg) */
(PID.TID 0000.0001)    debLevD =  4 ; /* level of enhanced debug prt (add DEBUG_STATS prt) */
(PID.TID 0000.0001)    debLevE =  5 ; /* level of extensive debug printing */
(PID.TID 0000.0001) debugLevel =  /* select debug printing level */
(PID.TID 0000.0001)                       1
(PID.TID 0000.0001)     ;
(PID.TID 0000.0001)  plotLevel =  /* select PLOT_FIELD printing level */
(PID.TID 0000.0001)                       1
(PID.TID 0000.0001)     ;
(PID.TID 0000.0001) //
(PID.TID 0000.0001) // Elliptic solver(s) paramters ( PARM02 in namelist )
(PID.TID 0000.0001) //
(PID.TID 0000.0001) cg2dMaxIters =   /* Upper limit on 2d con. grad iterations  */
(PID.TID 0000.0001)                     200
(PID.TID 0000.0001)     ;
(PID.TID 0000.0001) cg2dChkResFreq =   /* 2d con. grad convergence test frequency */
(PID.TID 0000.0001)                       1
(PID.TID 0000.0001)     ;
(PID.TID 0000.0001) cg2dUseMinResSol= /* use cg2d last-iter(=0) / min-resid.(=1) solution */
(PID.TID 0000.0001)                       0
(PID.TID 0000.0001)     ;
(PID.TID 0000.0001) cg2dTargetResidual =   /* 2d con. grad target residual  */
(PID.TID 0000.0001)                 1.000000000000000E-07
(PID.TID 0000.0001)     ;
(PID.TID 0000.0001) cg2dTargetResWunit =   /* CG2d target residual [W units] */
(PID.TID 0000.0001)                 1.000000000000000E-14
(PID.TID 0000.0001)     ;
(PID.TID 0000.0001) cg2dPreCondFreq =   /* Freq. for updating cg2d preconditioner */
(PID.TID 0000.0001)                       1
(PID.TID 0000.0001)     ;
(PID.TID 0000.0001) useSRCGSolver =  /* use single reduction CG solver(s) */
(PID.TID 0000.0001)                   F
(PID.TID 0000.0001)     ;
(PID.TID 0000.0001) printResidualFreq = /* Freq. for printing CG residual */
(PID.TID 0000.0001)                       0
(PID.TID 0000.0001)     ;
(PID.TID 0000.0001) //
(PID.TID 0000.0001) // Time stepping paramters ( PARM03 in namelist )
(PID.TID 0000.0001) //
(PID.TID 0000.0001) deltaTMom =   /* Momentum equation timestep ( s ) */
(PID.TID 0000.0001)                 1.200000000000000E+03
(PID.TID 0000.0001)     ;
(PID.TID 0000.0001) deltaTFreeSurf = /* FreeSurface equation timestep ( s ) */
(PID.TID 0000.0001)                 8.640000000000000E+04
(PID.TID 0000.0001)     ;
(PID.TID 0000.0001) dTtracerLev =  /* Tracer equation timestep ( s ) */
(PID.TID 0000.0001)    15 @  8.640000000000000E+04              /* K =  1: 15 */
(PID.TID 0000.0001)     ;
(PID.TID 0000.0001) deltaTClock  =   /* Model clock timestep ( s ) */
(PID.TID 0000.0001)                 8.640000000000000E+04
(PID.TID 0000.0001)     ;
(PID.TID 0000.0001) cAdjFreq =   /* Convective adjustment interval ( s ) */
(PID.TID 0000.0001)                 0.000000000000000E+00
(PID.TID 0000.0001)     ;
(PID.TID 0000.0001) momForcingOutAB = /* =1: take Momentum Forcing out of Adams-Bash. stepping */
(PID.TID 0000.0001)                       1
(PID.TID 0000.0001)     ;
(PID.TID 0000.0001) tracForcingOutAB = /* =1: take T,S,pTr Forcing out of Adams-Bash. stepping */
(PID.TID 0000.0001)                       1
(PID.TID 0000.0001)     ;
(PID.TID 0000.0001) momDissip_In_AB = /* put Dissipation Tendency in Adams-Bash. stepping */
(PID.TID 0000.0001)                   T
(PID.TID 0000.0001)     ;
(PID.TID 0000.0001) doAB_onGtGs = /* apply AB on Tendencies (rather than on T,S)*/
(PID.TID 0000.0001)                   T
(PID.TID 0000.0001)     ;
(PID.TID 0000.0001) abEps =   /* Adams-Bashforth-2 stabilizing weight */
(PID.TID 0000.0001)                 1.000000000000000E-01
(PID.TID 0000.0001)     ;
(PID.TID 0000.0001) alph_AB =   /* Adams-Bashforth-3 primary factor */
(PID.TID 0000.0001)                 6.000000000000000E-01
(PID.TID 0000.0001)     ;
(PID.TID 0000.0001) beta_AB =   /* Adams-Bashforth-3 secondary factor */
(PID.TID 0000.0001)                 0.000000000000000E+00
(PID.TID 0000.0001)     ;
(PID.TID 0000.0001) startFromPickupAB2= /* start from AB-2 pickup */
(PID.TID 0000.0001)                   F
(PID.TID 0000.0001)     ;
(PID.TID 0000.0001) applyExchUV_early = /* Apply EXCH to U,V earlier in time-step */
(PID.TID 0000.0001)                   F
(PID.TID 0000.0001)     ;
(PID.TID 0000.0001) pickupStrictlyMatch= /* stop if pickup do not strictly match */
(PID.TID 0000.0001)                   F
(PID.TID 0000.0001)     ;
(PID.TID 0000.0001) nIter0   =   /* Run starting timestep number */
(PID.TID 0000.0001)                   72000
(PID.TID 0000.0001)     ;
(PID.TID 0000.0001) nTimeSteps = /* Number of timesteps */
(PID.TID 0000.0001)                       5
(PID.TID 0000.0001)     ;
(PID.TID 0000.0001) nEndIter =   /* Run ending timestep number */
(PID.TID 0000.0001)                   72005
(PID.TID 0000.0001)     ;
(PID.TID 0000.0001) baseTime =   /* Model base time ( s ) */
(PID.TID 0000.0001)                 0.000000000000000E+00
(PID.TID 0000.0001)     ;
(PID.TID 0000.0001) startTime =  /* Run start time ( s ) */
(PID.TID 0000.0001)                 6.220800000000000E+09
(PID.TID 0000.0001)     ;
(PID.TID 0000.0001) endTime  =   /* Integration ending time ( s ) */
(PID.TID 0000.0001)                 6.221232000000000E+09
(PID.TID 0000.0001)     ;
(PID.TID 0000.0001) pChkPtFreq = /* Permanent restart/pickup file interval ( s ) */
(PID.TID 0000.0001)                 3.110400000000000E+08
(PID.TID 0000.0001)     ;
(PID.TID 0000.0001) chkPtFreq  = /* Rolling restart/pickup file interval ( s ) */
(PID.TID 0000.0001)                 3.110400000000000E+07
(PID.TID 0000.0001)     ;
(PID.TID 0000.0001) pickup_write_mdsio =   /* Model IO flag. */
(PID.TID 0000.0001)                   T
(PID.TID 0000.0001)     ;
(PID.TID 0000.0001) pickup_read_mdsio =   /* Model IO flag. */
(PID.TID 0000.0001)                   T
(PID.TID 0000.0001)     ;
(PID.TID 0000.0001) writePickupAtEnd =   /* Model IO flag. */
(PID.TID 0000.0001)                   T
(PID.TID 0000.0001)     ;
(PID.TID 0000.0001) dumpFreq =   /* Model state write out interval ( s ). */
(PID.TID 0000.0001)                 4.320000000000000E+05
(PID.TID 0000.0001)     ;
(PID.TID 0000.0001) dumpInitAndLast= /* write out Initial & Last iter. model state */
(PID.TID 0000.0001)                   T
(PID.TID 0000.0001)     ;
(PID.TID 0000.0001) snapshot_mdsio =   /* Model IO flag. */
(PID.TID 0000.0001)                   T
(PID.TID 0000.0001)     ;
(PID.TID 0000.0001) monitorFreq =   /* Monitor output interval ( s ). */
(PID.TID 0000.0001)                 1.000000000000000E+00
(PID.TID 0000.0001)     ;
(PID.TID 0000.0001) monitorSelect = /* select group of variables to monitor */
(PID.TID 0000.0001)                       3
(PID.TID 0000.0001)     ;
(PID.TID 0000.0001) monitor_stdio =   /* Model IO flag. */
(PID.TID 0000.0001)                   T
(PID.TID 0000.0001)     ;
(PID.TID 0000.0001) externForcingPeriod =   /* forcing period (s) */
(PID.TID 0000.0001)                 0.000000000000000E+00
(PID.TID 0000.0001)     ;
(PID.TID 0000.0001) externForcingCycle =   /* period of the cyle (s). */
(PID.TID 0000.0001)                 0.000000000000000E+00
(PID.TID 0000.0001)     ;
(PID.TID 0000.0001) tauThetaClimRelax =   /* relaxation time scale (s) */
(PID.TID 0000.0001)                 0.000000000000000E+00
(PID.TID 0000.0001)     ;
(PID.TID 0000.0001) tauSaltClimRelax =   /* relaxation time scale (s) */
(PID.TID 0000.0001)                 0.000000000000000E+00
(PID.TID 0000.0001)     ;
(PID.TID 0000.0001) latBandClimRelax =   /* max. Lat. where relaxation */
(PID.TID 0000.0001)                 1.800000000000000E+02
(PID.TID 0000.0001)     ;
(PID.TID 0000.0001) //
(PID.TID 0000.0001) // Gridding paramters ( PARM04 in namelist )
(PID.TID 0000.0001) //
(PID.TID 0000.0001) usingCartesianGrid = /* Cartesian coordinates flag ( True/False ) */
(PID.TID 0000.0001)                   F
(PID.TID 0000.0001)     ;
(PID.TID 0000.0001) usingCylindricalGrid = /* Cylindrical coordinates flag ( True/False ) */
(PID.TID 0000.0001)                   F
(PID.TID 0000.0001)     ;
(PID.TID 0000.0001) usingSphericalPolarGrid = /* Spherical coordinates flag ( True/False ) */
(PID.TID 0000.0001)                   F
(PID.TID 0000.0001)     ;
(PID.TID 0000.0001) usingCurvilinearGrid = /* Curvilinear coordinates flag ( True/False ) */
(PID.TID 0000.0001)                   T
(PID.TID 0000.0001)     ;
(PID.TID 0000.0001) useMin4hFacEdges = /* set hFacW,S as minimum of adjacent hFacC factor */
(PID.TID 0000.0001)                   F
(PID.TID 0000.0001)     ;
(PID.TID 0000.0001) interViscAr_pCell = /* account for partial-cell in interior vert. viscosity */
(PID.TID 0000.0001)                   F
(PID.TID 0000.0001)     ;
(PID.TID 0000.0001) interDiffKr_pCell = /* account for partial-cell in interior vert. diffusion */
(PID.TID 0000.0001)                   F
(PID.TID 0000.0001)     ;
(PID.TID 0000.0001) pCellMix_select = /* option to enhance mixing near surface & bottom */
(PID.TID 0000.0001)                       0
(PID.TID 0000.0001)     ;
(PID.TID 0000.0001) selectSigmaCoord = /* Hybrid-Sigma Vert. Coordinate option */
(PID.TID 0000.0001)                       0
(PID.TID 0000.0001)     ;
(PID.TID 0000.0001) rSigmaBnd = /* r/sigma transition ( units of r ==  m ) */
(PID.TID 0000.0001)                 1.234567000000000E+05
(PID.TID 0000.0001)     ;
(PID.TID 0000.0001) rkSign =   /* index orientation relative to vertical coordinate */
(PID.TID 0000.0001)                -1.000000000000000E+00
(PID.TID 0000.0001)     ;
(PID.TID 0000.0001) gravitySign = /* gravity orientation relative to vertical coordinate */
(PID.TID 0000.0001)                -1.000000000000000E+00
(PID.TID 0000.0001)     ;
(PID.TID 0000.0001) seaLev_Z =  /* reference height of sea-level [m] */
(PID.TID 0000.0001)                 0.000000000000000E+00
(PID.TID 0000.0001)     ;
(PID.TID 0000.0001) top_Pres =  /* reference pressure at the top [Pa] */
(PID.TID 0000.0001)                 0.000000000000000E+00
(PID.TID 0000.0001)     ;
(PID.TID 0000.0001) mass2rUnit = /* convert mass per unit area [kg/m2] to r-units [m] */
(PID.TID 0000.0001)                 9.661835748792270E-04
(PID.TID 0000.0001)     ;
(PID.TID 0000.0001) rUnit2mass = /* convert r-units [m] to mass per unit area [kg/m2] */
(PID.TID 0000.0001)                 1.035000000000000E+03
(PID.TID 0000.0001)     ;
(PID.TID 0000.0001) drC =   /* C spacing ( units of r ) */
(PID.TID 0000.0001)                 2.500000000000000E+01,      /* K =  1 */
(PID.TID 0000.0001)                 6.000000000000000E+01,      /* K =  2 */
(PID.TID 0000.0001)                 8.500000000000000E+01,      /* K =  3 */
(PID.TID 0000.0001)                 1.200000000000000E+02,      /* K =  4 */
(PID.TID 0000.0001)                 1.650000000000000E+02,      /* K =  5 */
(PID.TID 0000.0001)                 2.150000000000000E+02,      /* K =  6 */
(PID.TID 0000.0001)                 2.650000000000000E+02,      /* K =  7 */
(PID.TID 0000.0001)                 3.150000000000000E+02,      /* K =  8 */
(PID.TID 0000.0001)                 3.650000000000000E+02,      /* K =  9 */
(PID.TID 0000.0001)                 4.150000000000000E+02,      /* K = 10 */
(PID.TID 0000.0001)                 4.650000000000000E+02,      /* K = 11 */
(PID.TID 0000.0001)                 5.150000000000000E+02,      /* K = 12 */
(PID.TID 0000.0001)                 5.650000000000000E+02,      /* K = 13 */
(PID.TID 0000.0001)                 6.150000000000000E+02,      /* K = 14 */
(PID.TID 0000.0001)                 6.650000000000000E+02,      /* K = 15 */
(PID.TID 0000.0001)                 3.450000000000000E+02       /* K = 16 */
(PID.TID 0000.0001)     ;
(PID.TID 0000.0001) drF =   /* W spacing ( units of r ) */
(PID.TID 0000.0001)                 5.000000000000000E+01,      /* K =  1 */
(PID.TID 0000.0001)                 7.000000000000000E+01,      /* K =  2 */
(PID.TID 0000.0001)                 1.000000000000000E+02,      /* K =  3 */
(PID.TID 0000.0001)                 1.400000000000000E+02,      /* K =  4 */
(PID.TID 0000.0001)                 1.900000000000000E+02,      /* K =  5 */
(PID.TID 0000.0001)                 2.400000000000000E+02,      /* K =  6 */
(PID.TID 0000.0001)                 2.900000000000000E+02,      /* K =  7 */
(PID.TID 0000.0001)                 3.400000000000000E+02,      /* K =  8 */
(PID.TID 0000.0001)                 3.900000000000000E+02,      /* K =  9 */
(PID.TID 0000.0001)                 4.400000000000000E+02,      /* K = 10 */
(PID.TID 0000.0001)                 4.900000000000000E+02,      /* K = 11 */
(PID.TID 0000.0001)                 5.400000000000000E+02,      /* K = 12 */
(PID.TID 0000.0001)                 5.900000000000000E+02,      /* K = 13 */
(PID.TID 0000.0001)                 6.400000000000000E+02,      /* K = 14 */
(PID.TID 0000.0001)                 6.900000000000000E+02       /* K = 15 */
(PID.TID 0000.0001)     ;
(PID.TID 0000.0001) radius_fromHorizGrid = /* sphere Radius of input horiz. grid */
(PID.TID 0000.0001)                 6.370000000000000E+06
(PID.TID 0000.0001)     ;
(PID.TID 0000.0001) rSphere =  /* Radius ( ignored - cartesian, m - spherical ) */
(PID.TID 0000.0001)                 6.370000000000000E+06
(PID.TID 0000.0001)     ;
(PID.TID 0000.0001) deepAtmosphere = /* Deep/Shallow Atmosphere flag (True/False) */
(PID.TID 0000.0001)                   F
(PID.TID 0000.0001)     ;
(PID.TID 0000.0001) xC =  /* xC(:,1,:,1) : P-point X coord ( deg. or m if cartesian) */
(PID.TID 0000.0001)                -4.439521994760536E+01,      /* I =  1 */
(PID.TID 0000.0001)                -4.295641272275883E+01,      /* I =  2 */
(PID.TID 0000.0001)                -4.122055553388957E+01,      /* I =  3 */
(PID.TID 0000.0001)      . . .
(PID.TID 0000.0001)                 1.312205555338896E+02,      /* I = 94 */
(PID.TID 0000.0001)                 1.329564127227588E+02,      /* I = 95 */
(PID.TID 0000.0001)                 1.343952199476053E+02,      /* I = 96 */
(PID.TID 0000.0001)                 4.635509675007168E+01,      /* I = 97 */
(PID.TID 0000.0001)                 4.906731228843647E+01,      /* I = 98 */
(PID.TID 0000.0001)                 5.178550688214704E+01,      /* I = 99 */
(PID.TID 0000.0001)      . . .
(PID.TID 0000.0001)                -1.778001716525716E+02,      /* I =190 */
(PID.TID 0000.0001)                -1.779288225675308E+02,      /* I =191 */
(PID.TID 0000.0001)                -1.780367200854751E+02,      /* I =192 */
(PID.TID 0000.0001)                 1.356047800523947E+02,      /* I =193 */
(PID.TID 0000.0001)                 1.358367907661329E+02,      /* I =194 */
(PID.TID 0000.0001)                 1.359720382181193E+02,      /* I =195 */
(PID.TID 0000.0001)      . . .
(PID.TID 0000.0001)                -1.340279617818807E+02,      /* I =286 */
(PID.TID 0000.0001)                -1.341632092338671E+02,      /* I =287 */
(PID.TID 0000.0001)                -1.343952199476053E+02,      /* I =288 */
(PID.TID 0000.0001)                -8.812739148696656E+01,      /* I =289 */
(PID.TID 0000.0001)                -8.820362659721324E+01,      /* I =290 */
(PID.TID 0000.0001)                -8.826768106944316E+01,      /* I =291 */
(PID.TID 0000.0001)      . . .
(PID.TID 0000.0001)                 8.780017165257156E+01,      /* I =382 */
(PID.TID 0000.0001)                 8.792882256753080E+01,      /* I =383 */
(PID.TID 0000.0001)                 8.803672008547504E+01       /* I =384 */
(PID.TID 0000.0001)     ;
(PID.TID 0000.0001) yC =  /* yC(1,:,1,:) : P-point Y coord ( deg. or m if cartesian) */
(PID.TID 0000.0001)                -3.497677942598243E+01,      /* J =  1 */
(PID.TID 0000.0001)                -3.374005967394886E+01,      /* J =  2 */
(PID.TID 0000.0001)                -3.220655175667454E+01,      /* J =  3 */
(PID.TID 0000.0001)                -3.045756348838641E+01,      /* J =  4 */
(PID.TID 0000.0001)                -2.853728129852918E+01,      /* J =  5 */
(PID.TID 0000.0001)                -2.647426640173173E+01,      /* J =  6 */
(PID.TID 0000.0001)                -2.428936657094636E+01,      /* J =  7 */
(PID.TID 0000.0001)                -2.199915808312262E+01,      /* J =  8 */
(PID.TID 0000.0001)                -1.961768597440146E+01,      /* J =  9 */
(PID.TID 0000.0001)                -1.715743888281371E+01,      /* J = 10 */
(PID.TID 0000.0001)                -1.462993396899330E+01,      /* J = 11 */
(PID.TID 0000.0001)                -1.204608340464756E+01,      /* J = 12 */
(PID.TID 0000.0001)                -9.416429130284818E+00,      /* J = 13 */
(PID.TID 0000.0001)                -6.751293662992216E+00,      /* J = 14 */
(PID.TID 0000.0001)                -4.060875511835959E+00,      /* J = 15 */
(PID.TID 0000.0001)                -1.355307764409121E+00       /* J = 16 */
(PID.TID 0000.0001)     ;
(PID.TID 0000.0001) rcoord = /* P-point R coordinate (  units of r ) */
(PID.TID 0000.0001)                -2.500000000000000E+01,      /* K =  1 */
(PID.TID 0000.0001)                -8.500000000000000E+01,      /* K =  2 */
(PID.TID 0000.0001)                -1.700000000000000E+02,      /* K =  3 */
(PID.TID 0000.0001)                -2.900000000000000E+02,      /* K =  4 */
(PID.TID 0000.0001)                -4.550000000000000E+02,      /* K =  5 */
(PID.TID 0000.0001)                -6.700000000000000E+02,      /* K =  6 */
(PID.TID 0000.0001)                -9.350000000000000E+02,      /* K =  7 */
(PID.TID 0000.0001)                -1.250000000000000E+03,      /* K =  8 */
(PID.TID 0000.0001)                -1.615000000000000E+03,      /* K =  9 */
(PID.TID 0000.0001)                -2.030000000000000E+03,      /* K = 10 */
(PID.TID 0000.0001)                -2.495000000000000E+03,      /* K = 11 */
(PID.TID 0000.0001)                -3.010000000000000E+03,      /* K = 12 */
(PID.TID 0000.0001)                -3.575000000000000E+03,      /* K = 13 */
(PID.TID 0000.0001)                -4.190000000000000E+03,      /* K = 14 */
(PID.TID 0000.0001)                -4.855000000000000E+03       /* K = 15 */
(PID.TID 0000.0001)     ;
(PID.TID 0000.0001) rF =   /* W-Interf. R coordinate (  units of r ) */
(PID.TID 0000.0001)                 0.000000000000000E+00,      /* K =  1 */
(PID.TID 0000.0001)                -5.000000000000000E+01,      /* K =  2 */
(PID.TID 0000.0001)                -1.200000000000000E+02,      /* K =  3 */
(PID.TID 0000.0001)                -2.200000000000000E+02,      /* K =  4 */
(PID.TID 0000.0001)                -3.600000000000000E+02,      /* K =  5 */
(PID.TID 0000.0001)                -5.500000000000000E+02,      /* K =  6 */
(PID.TID 0000.0001)                -7.900000000000000E+02,      /* K =  7 */
(PID.TID 0000.0001)                -1.080000000000000E+03,      /* K =  8 */
(PID.TID 0000.0001)                -1.420000000000000E+03,      /* K =  9 */
(PID.TID 0000.0001)                -1.810000000000000E+03,      /* K = 10 */
(PID.TID 0000.0001)                -2.250000000000000E+03,      /* K = 11 */
(PID.TID 0000.0001)                -2.740000000000000E+03,      /* K = 12 */
(PID.TID 0000.0001)                -3.280000000000000E+03,      /* K = 13 */
(PID.TID 0000.0001)                -3.870000000000000E+03,      /* K = 14 */
(PID.TID 0000.0001)                -4.510000000000000E+03,      /* K = 15 */
(PID.TID 0000.0001)                -5.200000000000000E+03       /* K = 16 */
(PID.TID 0000.0001)     ;
(PID.TID 0000.0001) deepFacC = /* deep-model grid factor @ cell-Center (-) */
(PID.TID 0000.0001)    15 @  1.000000000000000E+00              /* K =  1: 15 */
(PID.TID 0000.0001)     ;
(PID.TID 0000.0001) deepFacF = /* deep-model grid factor @ W-Interface (-) */
(PID.TID 0000.0001)    16 @  1.000000000000000E+00              /* K =  1: 16 */
(PID.TID 0000.0001)     ;
(PID.TID 0000.0001) rVel2wUnit = /* convert units: rVel -> wSpeed (=1 if z-coord)*/
(PID.TID 0000.0001)    16 @  1.000000000000000E+00              /* K =  1: 16 */
(PID.TID 0000.0001)     ;
(PID.TID 0000.0001) wUnit2rVel = /* convert units: wSpeed -> rVel (=1 if z-coord)*/
(PID.TID 0000.0001)    16 @  1.000000000000000E+00              /* K =  1: 16 */
(PID.TID 0000.0001)     ;
(PID.TID 0000.0001) dBdrRef = /* Vertical grad. of reference buoyancy [(m/s/r)^2] */
(PID.TID 0000.0001)    15 @  0.000000000000000E+00              /* K =  1: 15 */
(PID.TID 0000.0001)     ;
(PID.TID 0000.0001) rotateGrid = /* use rotated grid ( True/False ) */
(PID.TID 0000.0001)                   F
(PID.TID 0000.0001)     ;
(PID.TID 0000.0001) phiEuler = /* Euler angle, rotation about original z-coordinate [rad] */
(PID.TID 0000.0001)                 0.000000000000000E+00
(PID.TID 0000.0001)     ;
(PID.TID 0000.0001) thetaEuler = /* Euler angle, rotation about new x-coordinate [rad] */
(PID.TID 0000.0001)                 0.000000000000000E+00
(PID.TID 0000.0001)     ;
(PID.TID 0000.0001) psiEuler = /* Euler angle, rotation about new z-coordinate [rad] */
(PID.TID 0000.0001)                 0.000000000000000E+00
(PID.TID 0000.0001)     ;
(PID.TID 0000.0001) dxF =  /* dxF(:,1,:,1) ( units: m ) */
(PID.TID 0000.0001)                 1.202082051331828E+05,      /* I =  1 */
(PID.TID 0000.0001)                 1.563594089971120E+05,      /* I =  2 */
(PID.TID 0000.0001)                 1.835530058121492E+05,      /* I =  3 */
(PID.TID 0000.0001)      . . .
(PID.TID 0000.0001)                 1.835530058121492E+05,      /* I = 94 */
(PID.TID 0000.0001)                 1.563594089971120E+05,      /* I = 95 */
(PID.TID 0000.0001)                 1.202082051331828E+05,      /* I = 96 */
(PID.TID 0000.0001)                 3.012844832048790E+05,      /* I = 97 */
(PID.TID 0000.0001)                 3.017314519159184E+05,      /* I = 98 */
(PID.TID 0000.0001)                 3.026061571839506E+05,      /* I = 99 */
(PID.TID 0000.0001)      . . .
(PID.TID 0000.0001)                 3.026061571839506E+05,      /* I =190 */
(PID.TID 0000.0001)                 3.017314519159184E+05,      /* I =191 */
(PID.TID 0000.0001)                 3.012844832048790E+05,      /* I =192 */
(PID.TID 0000.0001)                 1.202082051331828E+05,      /* I =193 */
(PID.TID 0000.0001)                 1.563594089971120E+05,      /* I =194 */
(PID.TID 0000.0001)                 1.835530058121492E+05,      /* I =195 */
(PID.TID 0000.0001)      . . .
(PID.TID 0000.0001)                 1.835530058121492E+05,      /* I =286 */
(PID.TID 0000.0001)                 1.563594089971120E+05,      /* I =287 */
(PID.TID 0000.0001)                 1.202082051331828E+05,      /* I =288 */
(PID.TID 0000.0001)                 3.012844832048790E+05,      /* I =289 */
(PID.TID 0000.0001)                 3.017314519159184E+05,      /* I =290 */
(PID.TID 0000.0001)                 3.026061571839506E+05,      /* I =291 */
(PID.TID 0000.0001)      . . .
(PID.TID 0000.0001)                 3.026061571839506E+05,      /* I =382 */
(PID.TID 0000.0001)                 3.017314519159184E+05,      /* I =383 */
(PID.TID 0000.0001)                 3.012844832048790E+05       /* I =384 */
(PID.TID 0000.0001)     ;
(PID.TID 0000.0001) dxF =  /* dxF(1,:,1,:) ( units: m ) */
(PID.TID 0000.0001)                 1.202082051331828E+05,      /* J =  1 */
(PID.TID 0000.0001)                 1.572908084538706E+05,      /* J =  2 */
(PID.TID 0000.0001)                 1.840412227747703E+05,      /* J =  3 */
(PID.TID 0000.0001)                 2.048868197919576E+05,      /* J =  4 */
(PID.TID 0000.0001)                 2.220405216043041E+05,      /* J =  5 */
(PID.TID 0000.0001)                 2.365892017348392E+05,      /* J =  6 */
(PID.TID 0000.0001)                 2.491250781852558E+05,      /* J =  7 */
(PID.TID 0000.0001)                 2.599949918261881E+05,      /* J =  8 */
(PID.TID 0000.0001)                 2.694110134598581E+05,      /* J =  9 */
(PID.TID 0000.0001)                 2.775055554645015E+05,      /* J = 10 */
(PID.TID 0000.0001)                 2.843615645344775E+05,      /* J = 11 */
(PID.TID 0000.0001)                 2.900303768613599E+05,      /* J = 12 */
(PID.TID 0000.0001)                 2.945429307892709E+05,      /* J = 13 */
(PID.TID 0000.0001)                 2.979171143158405E+05,      /* J = 14 */
(PID.TID 0000.0001)                 3.001626787528886E+05,      /* J = 15 */
(PID.TID 0000.0001)                 3.012844832048790E+05       /* J = 16 */
(PID.TID 0000.0001)     ;
(PID.TID 0000.0001) dyF =  /* dyF(:,1,:,1) ( units: m ) */
(PID.TID 0000.0001)                 1.202082051331828E+05,      /* I =  1 */
(PID.TID 0000.0001)                 1.572908084538706E+05,      /* I =  2 */
(PID.TID 0000.0001)                 1.840412227747703E+05,      /* I =  3 */
(PID.TID 0000.0001)      . . .
(PID.TID 0000.0001)                 1.840412227747703E+05,      /* I = 94 */
(PID.TID 0000.0001)                 1.572908084538706E+05,      /* I = 95 */
(PID.TID 0000.0001)                 1.202082051331828E+05,      /* I = 96 */
(PID.TID 0000.0001)                 3.012190981969055E+05,      /* I = 97 */
(PID.TID 0000.0001)                 3.016675528553907E+05,      /* I = 98 */
(PID.TID 0000.0001)                 3.025451404065074E+05,      /* I = 99 */
(PID.TID 0000.0001)      . . .
(PID.TID 0000.0001)                 3.025451404065074E+05,      /* I =190 */
(PID.TID 0000.0001)                 3.016675528553907E+05,      /* I =191 */
(PID.TID 0000.0001)                 3.012190981969055E+05,      /* I =192 */
(PID.TID 0000.0001)                 1.202082051331828E+05,      /* I =193 */
(PID.TID 0000.0001)                 1.572908084538706E+05,      /* I =194 */
(PID.TID 0000.0001)                 1.840412227747703E+05,      /* I =195 */
(PID.TID 0000.0001)      . . .
(PID.TID 0000.0001)                 1.840412227747703E+05,      /* I =286 */
(PID.TID 0000.0001)                 1.572908084538706E+05,      /* I =287 */
(PID.TID 0000.0001)                 1.202082051331828E+05,      /* I =288 */
(PID.TID 0000.0001)                 3.012190981969055E+05,      /* I =289 */
(PID.TID 0000.0001)                 3.016675528553907E+05,      /* I =290 */
(PID.TID 0000.0001)                 3.025451404065074E+05,      /* I =291 */
(PID.TID 0000.0001)      . . .
(PID.TID 0000.0001)                 3.025451404065074E+05,      /* I =382 */
(PID.TID 0000.0001)                 3.016675528553907E+05,      /* I =383 */
(PID.TID 0000.0001)                 3.012190981969055E+05       /* I =384 */
(PID.TID 0000.0001)     ;
(PID.TID 0000.0001) dyF =  /* dyF(1,:,1,:) ( units: m ) */
(PID.TID 0000.0001)                 1.202082051331828E+05,      /* J =  1 */
(PID.TID 0000.0001)                 1.563594089971120E+05,      /* J =  2 */
(PID.TID 0000.0001)                 1.835530058121492E+05,      /* J =  3 */
(PID.TID 0000.0001)                 2.045883481718707E+05,      /* J =  4 */
(PID.TID 0000.0001)                 2.218350349844185E+05,      /* J =  5 */
(PID.TID 0000.0001)                 2.364352994647058E+05,      /* J =  6 */
(PID.TID 0000.0001)                 2.490022710862746E+05,      /* J =  7 */
(PID.TID 0000.0001)                 2.598919724358304E+05,      /* J =  8 */
(PID.TID 0000.0001)                 2.693210245495156E+05,      /* J =  9 */
(PID.TID 0000.0001)                 2.774243179696503E+05,      /* J = 10 */
(PID.TID 0000.0001)                 2.842862532064524E+05,      /* J = 11 */
(PID.TID 0000.0001)                 2.899590699694043E+05,      /* J = 12 */
(PID.TID 0000.0001)                 2.944742915095688E+05,      /* J = 13 */
(PID.TID 0000.0001)                 2.978501920522794E+05,      /* J = 14 */
(PID.TID 0000.0001)                 3.000967749619962E+05,      /* J = 15 */
(PID.TID 0000.0001)                 3.012190981969055E+05       /* J = 16 */
(PID.TID 0000.0001)     ;
(PID.TID 0000.0001) dxG =  /* dxG(:,1,:,1) ( units: m ) */
(PID.TID 0000.0001)                 1.009837800879055E+05,      /* I =  1 */
(PID.TID 0000.0001)                 1.534505834330338E+05,      /* I =  2 */
(PID.TID 0000.0001)                 1.823321598773926E+05,      /* I =  3 */
(PID.TID 0000.0001)      . . .
(PID.TID 0000.0001)                 1.823321598773926E+05,      /* I = 94 */
(PID.TID 0000.0001)                 1.534505834330338E+05,      /* I = 95 */
(PID.TID 0000.0001)                 1.009837800879055E+05,      /* I = 96 */
(PID.TID 0000.0001)                 3.014246674484008E+05,      /* I = 97 */
(PID.TID 0000.0001)                 3.018694497480782E+05,      /* I = 98 */
(PID.TID 0000.0001)                 3.027399364062562E+05,      /* I = 99 */
(PID.TID 0000.0001)      . . .
(PID.TID 0000.0001)                 3.027399364062562E+05,      /* I =190 */
(PID.TID 0000.0001)                 3.018694497480782E+05,      /* I =191 */
(PID.TID 0000.0001)                 3.014246674484008E+05,      /* I =192 */
(PID.TID 0000.0001)                 1.009837800879055E+05,      /* I =193 */
(PID.TID 0000.0001)                 1.534505834330338E+05,      /* I =194 */
(PID.TID 0000.0001)                 1.823321598773926E+05,      /* I =195 */
(PID.TID 0000.0001)      . . .
(PID.TID 0000.0001)                 1.823321598773926E+05,      /* I =286 */
(PID.TID 0000.0001)                 1.534505834330338E+05,      /* I =287 */
(PID.TID 0000.0001)                 1.009837800879055E+05,      /* I =288 */
(PID.TID 0000.0001)                 3.014246674484008E+05,      /* I =289 */
(PID.TID 0000.0001)                 3.018694497480782E+05,      /* I =290 */
(PID.TID 0000.0001)                 3.027399364062562E+05,      /* I =291 */
(PID.TID 0000.0001)      . . .
(PID.TID 0000.0001)                 3.027399364062562E+05,      /* I =382 */
(PID.TID 0000.0001)                 3.018694497480782E+05,      /* I =383 */
(PID.TID 0000.0001)                 3.014246674484008E+05       /* I =384 */
(PID.TID 0000.0001)     ;
(PID.TID 0000.0001) dxG =  /* dxG(1,:,1,:) ( units: m ) */
(PID.TID 0000.0001)                 1.009837800879055E+05,      /* J =  1 */
(PID.TID 0000.0001)                 1.403701524205398E+05,      /* J =  2 */
(PID.TID 0000.0001)                 1.716197227386011E+05,      /* J =  3 */
(PID.TID 0000.0001)                 1.950254041626018E+05,      /* J =  4 */
(PID.TID 0000.0001)                 2.138410773065497E+05,      /* J =  5 */
(PID.TID 0000.0001)                 2.295958105911512E+05,      /* J =  6 */
(PID.TID 0000.0001)                 2.430829951739083E+05,      /* J =  7 */
(PID.TID 0000.0001)                 2.547526806712889E+05,      /* J =  8 */
(PID.TID 0000.0001)                 2.648750305193301E+05,      /* J =  9 */
(PID.TID 0000.0001)                 2.736173771018112E+05,      /* J = 10 */
(PID.TID 0000.0001)                 2.810845823202647E+05,      /* J = 11 */
(PID.TID 0000.0001)                 2.873420591008078E+05,      /* J = 12 */
(PID.TID 0000.0001)                 2.924298293668651E+05,      /* J = 13 */
(PID.TID 0000.0001)                 2.963715635865306E+05,      /* J = 14 */
(PID.TID 0000.0001)                 2.991805843171258E+05,      /* J = 15 */
(PID.TID 0000.0001)                 3.008638765647886E+05       /* J = 16 */
(PID.TID 0000.0001)     ;
(PID.TID 0000.0001) dyG =  /* dyG(:,1,:,1) ( units: m ) */
(PID.TID 0000.0001)                 1.009837800879055E+05,      /* I =  1 */
(PID.TID 0000.0001)                 1.403701524205398E+05,      /* I =  2 */
(PID.TID 0000.0001)                 1.716197227386011E+05,      /* I =  3 */
(PID.TID 0000.0001)      . . .
(PID.TID 0000.0001)                 1.950254041626018E+05,      /* I = 94 */
(PID.TID 0000.0001)                 1.716197227386011E+05,      /* I = 95 */
(PID.TID 0000.0001)                 1.403701524205398E+05,      /* I = 96 */
(PID.TID 0000.0001)                 3.011625828699101E+05,      /* I = 97 */
(PID.TID 0000.0001)                 3.013880313304323E+05,      /* I = 98 */
(PID.TID 0000.0001)                 3.020546438966793E+05,      /* I = 99 */
(PID.TID 0000.0001)      . . .
(PID.TID 0000.0001)                 3.031337933484788E+05,      /* I =190 */
(PID.TID 0000.0001)                 3.020546438966793E+05,      /* I =191 */
(PID.TID 0000.0001)                 3.013880313304323E+05,      /* I =192 */
(PID.TID 0000.0001)                 1.009837800879055E+05,      /* I =193 */
(PID.TID 0000.0001)                 1.403701524205398E+05,      /* I =194 */
(PID.TID 0000.0001)                 1.716197227386011E+05,      /* I =195 */
(PID.TID 0000.0001)      . . .
(PID.TID 0000.0001)                 1.950254041626018E+05,      /* I =286 */
(PID.TID 0000.0001)                 1.716197227386011E+05,      /* I =287 */
(PID.TID 0000.0001)                 1.403701524205398E+05,      /* I =288 */
(PID.TID 0000.0001)                 3.011625828699101E+05,      /* I =289 */
(PID.TID 0000.0001)                 3.013880313304323E+05,      /* I =290 */
(PID.TID 0000.0001)                 3.020546438966793E+05,      /* I =291 */
(PID.TID 0000.0001)      . . .
(PID.TID 0000.0001)                 3.031337933484788E+05,      /* I =382 */
(PID.TID 0000.0001)                 3.020546438966793E+05,      /* I =383 */
(PID.TID 0000.0001)                 3.013880313304323E+05       /* I =384 */
(PID.TID 0000.0001)     ;
(PID.TID 0000.0001) dyG =  /* dyG(1,:,1,:) ( units: m ) */
(PID.TID 0000.0001)                 1.009837800879055E+05,      /* J =  1 */
(PID.TID 0000.0001)                 1.534505834330338E+05,      /* J =  2 */
(PID.TID 0000.0001)                 1.823321598773926E+05,      /* J =  3 */
(PID.TID 0000.0001)                 2.038999045536999E+05,      /* J =  4 */
(PID.TID 0000.0001)                 2.213884732245467E+05,      /* J =  5 */
(PID.TID 0000.0001)                 2.361211699596122E+05,      /* J =  6 */
(PID.TID 0000.0001)                 2.487693460283865E+05,      /* J =  7 */
(PID.TID 0000.0001)                 2.597126963772147E+05,      /* J =  8 */
(PID.TID 0000.0001)                 2.691790288994575E+05,      /* J =  9 */
(PID.TID 0000.0001)                 2.773091043277394E+05,      /* J = 10 */
(PID.TID 0000.0001)                 2.841906470085516E+05,      /* J = 11 */
(PID.TID 0000.0001)                 2.898778860929753E+05,      /* J = 12 */
(PID.TID 0000.0001)                 2.944035815526416E+05,      /* J = 13 */
(PID.TID 0000.0001)                 2.977867909042096E+05,      /* J = 14 */
(PID.TID 0000.0001)                 3.000380090330854E+05,      /* J = 15 */
(PID.TID 0000.0001)                 3.011625828699101E+05       /* J = 16 */
(PID.TID 0000.0001)     ;
(PID.TID 0000.0001) dxC =  /* dxC(:,1,:,1) ( units: m ) */
(PID.TID 0000.0001)                 1.114203141013064E+05,      /* I =  1 */
(PID.TID 0000.0001)                 1.391343389937106E+05,      /* I =  2 */
(PID.TID 0000.0001)                 1.709574999026266E+05,      /* I =  3 */
(PID.TID 0000.0001)      . . .
(PID.TID 0000.0001)                 1.946503699269892E+05,      /* I = 94 */
(PID.TID 0000.0001)                 1.709574999026266E+05,      /* I = 95 */
(PID.TID 0000.0001)                 1.391343389937106E+05,      /* I = 96 */
(PID.TID 0000.0001)                 3.012281885409289E+05,      /* I = 97 */
(PID.TID 0000.0001)                 3.014528555318499E+05,      /* I = 98 */
(PID.TID 0000.0001)                 3.021172674809921E+05,      /* I = 99 */
(PID.TID 0000.0001)      . . .
(PID.TID 0000.0001)                 3.031928954490276E+05,      /* I =190 */
(PID.TID 0000.0001)                 3.021172674809921E+05,      /* I =191 */
(PID.TID 0000.0001)                 3.014528555318499E+05,      /* I =192 */
(PID.TID 0000.0001)                 1.114203141013064E+05,      /* I =193 */
(PID.TID 0000.0001)                 1.391343389937106E+05,      /* I =194 */
(PID.TID 0000.0001)                 1.709574999026266E+05,      /* I =195 */
(PID.TID 0000.0001)      . . .
(PID.TID 0000.0001)                 1.946503699269892E+05,      /* I =286 */
(PID.TID 0000.0001)                 1.709574999026266E+05,      /* I =287 */
(PID.TID 0000.0001)                 1.391343389937106E+05,      /* I =288 */
(PID.TID 0000.0001)                 3.012281885409289E+05,      /* I =289 */
(PID.TID 0000.0001)                 3.014528555318499E+05,      /* I =290 */
(PID.TID 0000.0001)                 3.021172674809921E+05,      /* I =291 */
(PID.TID 0000.0001)      . . .
(PID.TID 0000.0001)                 3.031928954490276E+05,      /* I =382 */
(PID.TID 0000.0001)                 3.021172674809921E+05,      /* I =383 */
(PID.TID 0000.0001)                 3.014528555318499E+05       /* I =384 */
(PID.TID 0000.0001)     ;
(PID.TID 0000.0001) dxC =  /* dxC(1,:,1,:) ( units: m ) */
(PID.TID 0000.0001)                 1.114203141013064E+05,      /* J =  1 */
(PID.TID 0000.0001)                 1.549545757850771E+05,      /* J =  2 */
(PID.TID 0000.0001)                 1.829777599966776E+05,      /* J =  3 */
(PID.TID 0000.0001)                 2.042717761866506E+05,      /* J =  4 */
(PID.TID 0000.0001)                 2.216367828252819E+05,      /* J =  5 */
(PID.TID 0000.0001)                 2.363029564123586E+05,      /* J =  6 */
(PID.TID 0000.0001)                 2.489113743322025E+05,      /* J =  7 */
(PID.TID 0000.0001)                 2.598293319150326E+05,      /* J =  8 */
(PID.TID 0000.0001)                 2.692787333338535E+05,      /* J =  9 */
(PID.TID 0000.0001)                 2.773972106720365E+05,      /* J = 10 */
(PID.TID 0000.0001)                 2.842706922224557E+05,      /* J = 11 */
(PID.TID 0000.0001)                 2.899523122489403E+05,      /* J = 12 */
(PID.TID 0000.0001)                 2.944741346384699E+05,      /* J = 13 */
(PID.TID 0000.0001)                 2.978547649292580E+05,      /* J = 14 */
(PID.TID 0000.0001)                 3.001044073506459E+05,      /* J = 15 */
(PID.TID 0000.0001)                 3.012281885409289E+05       /* J = 16 */
(PID.TID 0000.0001)     ;
(PID.TID 0000.0001) dyC =  /* dyC(:,1,:,1) ( units: m ) */
(PID.TID 0000.0001)                 1.114203141013064E+05,      /* I =  1 */
(PID.TID 0000.0001)                 1.549545757850771E+05,      /* I =  2 */
(PID.TID 0000.0001)                 1.829777599966776E+05,      /* I =  3 */
(PID.TID 0000.0001)      . . .
(PID.TID 0000.0001)                 1.829777599966776E+05,      /* I = 94 */
(PID.TID 0000.0001)                 1.549545757850771E+05,      /* I = 95 */
(PID.TID 0000.0001)                 1.114203141013064E+05,      /* I = 96 */
(PID.TID 0000.0001)                 3.013593857228136E+05,      /* I = 97 */
(PID.TID 0000.0001)                 3.018056440786431E+05,      /* I = 98 */
(PID.TID 0000.0001)                 3.026789946729719E+05,      /* I = 99 */
(PID.TID 0000.0001)      . . .
(PID.TID 0000.0001)                 3.026789946729719E+05,      /* I =190 */
(PID.TID 0000.0001)                 3.018056440786431E+05,      /* I =191 */
(PID.TID 0000.0001)                 3.013593857228136E+05,      /* I =192 */
(PID.TID 0000.0001)                 1.114203141013064E+05,      /* I =193 */
(PID.TID 0000.0001)                 1.549545757850771E+05,      /* I =194 */
(PID.TID 0000.0001)                 1.829777599966776E+05,      /* I =195 */
(PID.TID 0000.0001)      . . .
(PID.TID 0000.0001)                 1.829777599966776E+05,      /* I =286 */
(PID.TID 0000.0001)                 1.549545757850771E+05,      /* I =287 */
(PID.TID 0000.0001)                 1.114203141013064E+05,      /* I =288 */
(PID.TID 0000.0001)                 3.013593857228136E+05,      /* I =289 */
(PID.TID 0000.0001)                 3.018056440786431E+05,      /* I =290 */
(PID.TID 0000.0001)                 3.026789946729719E+05,      /* I =291 */
(PID.TID 0000.0001)      . . .
(PID.TID 0000.0001)                 3.026789946729719E+05,      /* I =382 */
(PID.TID 0000.0001)                 3.018056440786431E+05,      /* I =383 */
(PID.TID 0000.0001)                 3.013593857228136E+05       /* I =384 */
(PID.TID 0000.0001)     ;
(PID.TID 0000.0001) dyC =  /* dyC(1,:,1,:) ( units: m ) */
(PID.TID 0000.0001)                 1.114203141013064E+05,      /* J =  1 */
(PID.TID 0000.0001)                 1.391343389937106E+05,      /* J =  2 */
(PID.TID 0000.0001)                 1.709574999026266E+05,      /* J =  3 */
(PID.TID 0000.0001)                 1.946503699269892E+05,      /* J =  4 */
(PID.TID 0000.0001)                 2.135964483342134E+05,      /* J =  5 */
(PID.TID 0000.0001)                 2.294195678257306E+05,      /* J =  6 */
(PID.TID 0000.0001)                 2.429464709770498E+05,      /* J =  7 */
(PID.TID 0000.0001)                 2.546408290696998E+05,      /* J =  8 */
(PID.TID 0000.0001)                 2.647791839299727E+05,      /* J =  9 */
(PID.TID 0000.0001)                 2.735321911346108E+05,      /* J = 10 */
(PID.TID 0000.0001)                 2.810065951609633E+05,      /* J = 11 */
(PID.TID 0000.0001)                 2.872689479506990E+05,      /* J = 12 */
(PID.TID 0000.0001)                 2.923599955312932E+05,      /* J = 13 */
(PID.TID 0000.0001)                 2.963038832565530E+05,      /* J = 14 */
(PID.TID 0000.0001)                 2.991142470004740E+05,      /* J = 15 */
(PID.TID 0000.0001)                 3.007982711627968E+05       /* J = 16 */
(PID.TID 0000.0001)     ;
(PID.TID 0000.0001) dxV =  /* dxV(:,1,:,1) ( units: m ) */
(PID.TID 0000.0001)                 8.015229982413632E+04,      /* I =  1 */
(PID.TID 0000.0001)                 1.333130744933864E+05,      /* I =  2 */
(PID.TID 0000.0001)                 1.691744868129062E+05,      /* I =  3 */
(PID.TID 0000.0001)      . . .
(PID.TID 0000.0001)                 1.937548202849060E+05,      /* I = 94 */
(PID.TID 0000.0001)                 1.691744868129062E+05,      /* I = 95 */
(PID.TID 0000.0001)                 1.333130744933864E+05,      /* I = 96 */
(PID.TID 0000.0001)                 3.013686170436881E+05,      /* I = 97 */
(PID.TID 0000.0001)                 3.015922136961168E+05,      /* I = 98 */
(PID.TID 0000.0001)                 3.022533948177109E+05,      /* I = 99 */
(PID.TID 0000.0001)      . . .
(PID.TID 0000.0001)                 3.033238888442880E+05,      /* I =190 */
(PID.TID 0000.0001)                 3.022533948177109E+05,      /* I =191 */
(PID.TID 0000.0001)                 3.015922136961168E+05,      /* I =192 */
(PID.TID 0000.0001)                 8.015229982413632E+04,      /* I =193 */
(PID.TID 0000.0001)                 1.333130744933864E+05,      /* I =194 */
(PID.TID 0000.0001)                 1.691744868129062E+05,      /* I =195 */
(PID.TID 0000.0001)      . . .
(PID.TID 0000.0001)                 1.937548202849060E+05,      /* I =286 */
(PID.TID 0000.0001)                 1.691744868129062E+05,      /* I =287 */
(PID.TID 0000.0001)                 1.333130744933864E+05,      /* I =288 */
(PID.TID 0000.0001)                 3.013686170436881E+05,      /* I =289 */
(PID.TID 0000.0001)                 3.015922136961168E+05,      /* I =290 */
(PID.TID 0000.0001)                 3.022533948177109E+05,      /* I =291 */
(PID.TID 0000.0001)      . . .
(PID.TID 0000.0001)                 3.033238888442880E+05,      /* I =382 */
(PID.TID 0000.0001)                 3.022533948177109E+05,      /* I =383 */
(PID.TID 0000.0001)                 3.015922136961168E+05       /* I =384 */
(PID.TID 0000.0001)     ;
(PID.TID 0000.0001) dxV =  /* dxV(1,:,1,:) ( units: m ) */
(PID.TID 0000.0001)                 8.015229982413632E+04,      /* J =  1 */
(PID.TID 0000.0001)                 1.362652340208229E+05,      /* J =  2 */
(PID.TID 0000.0001)                 1.701080315742101E+05,      /* J =  3 */
(PID.TID 0000.0001)                 1.942331448101592E+05,      /* J =  4 */
(PID.TID 0000.0001)                 2.133486626971531E+05,      /* J =  5 */
(PID.TID 0000.0001)                 2.292584591272880E+05,      /* J =  6 */
(PID.TID 0000.0001)                 2.428369969078989E+05,      /* J =  7 */
(PID.TID 0000.0001)                 2.545652950875683E+05,      /* J =  8 */
(PID.TID 0000.0001)                 2.647274964828301E+05,      /* J =  9 */
(PID.TID 0000.0001)                 2.734980225206389E+05,      /* J = 10 */
(PID.TID 0000.0001)                 2.809856491525217E+05,      /* J = 11 */
(PID.TID 0000.0001)                 2.872580915202295E+05,      /* J = 12 */
(PID.TID 0000.0001)                 2.923567890694162E+05,      /* J = 13 */
(PID.TID 0000.0001)                 2.963063101754721E+05,      /* J = 14 */
(PID.TID 0000.0001)                 2.991205495886625E+05,      /* J = 15 */
(PID.TID 0000.0001)                 3.008068453676764E+05       /* J = 16 */
(PID.TID 0000.0001)     ;
(PID.TID 0000.0001) dyU =  /* dyU(:,1,:,1) ( units: m ) */
(PID.TID 0000.0001)                 8.015229982413632E+04,      /* I =  1 */
(PID.TID 0000.0001)                 1.362652340208229E+05,      /* I =  2 */
(PID.TID 0000.0001)                 1.701080315742101E+05,      /* I =  3 */
(PID.TID 0000.0001)      . . .
(PID.TID 0000.0001)                 1.942331448101592E+05,      /* I = 94 */
(PID.TID 0000.0001)                 1.701080315742101E+05,      /* I = 95 */
(PID.TID 0000.0001)                 1.362652340208229E+05,      /* I = 96 */
(PID.TID 0000.0001)                 3.013031486919771E+05,      /* I = 97 */
(PID.TID 0000.0001)                 3.015274890091515E+05,      /* I = 98 */
(PID.TID 0000.0001)                 3.021908563699420E+05,      /* I = 99 */
(PID.TID 0000.0001)      . . .
(PID.TID 0000.0001)                 3.032648502024415E+05,      /* I =190 */
(PID.TID 0000.0001)                 3.021908563699420E+05,      /* I =191 */
(PID.TID 0000.0001)                 3.015274890091515E+05,      /* I =192 */
(PID.TID 0000.0001)                 8.015229982413632E+04,      /* I =193 */
(PID.TID 0000.0001)                 1.362652340208229E+05,      /* I =194 */
(PID.TID 0000.0001)                 1.701080315742101E+05,      /* I =195 */
(PID.TID 0000.0001)      . . .
(PID.TID 0000.0001)                 1.942331448101592E+05,      /* I =286 */
(PID.TID 0000.0001)                 1.701080315742101E+05,      /* I =287 */
(PID.TID 0000.0001)                 1.362652340208229E+05,      /* I =288 */
(PID.TID 0000.0001)                 3.013031486919771E+05,      /* I =289 */
(PID.TID 0000.0001)                 3.015274890091515E+05,      /* I =290 */
(PID.TID 0000.0001)                 3.021908563699420E+05,      /* I =291 */
(PID.TID 0000.0001)      . . .
(PID.TID 0000.0001)                 3.032648502024415E+05,      /* I =382 */
(PID.TID 0000.0001)                 3.021908563699420E+05,      /* I =383 */
(PID.TID 0000.0001)                 3.015274890091515E+05       /* I =384 */
(PID.TID 0000.0001)     ;
(PID.TID 0000.0001) dyU =  /* dyU(1,:,1,:) ( units: m ) */
(PID.TID 0000.0001)                 8.015229982413632E+04,      /* J =  1 */
(PID.TID 0000.0001)                 1.333130744933864E+05,      /* J =  2 */
(PID.TID 0000.0001)                 1.691744868129062E+05,      /* J =  3 */
(PID.TID 0000.0001)                 1.937548202849060E+05,      /* J =  4 */
(PID.TID 0000.0001)                 2.130490056267208E+05,      /* J =  5 */
(PID.TID 0000.0001)                 2.290479919481738E+05,      /* J =  6 */
(PID.TID 0000.0001)                 2.426774358027003E+05,      /* J =  7 */
(PID.TID 0000.0001)                 2.544372984215561E+05,      /* J =  8 */
(PID.TID 0000.0001)                 2.646201463834826E+05,      /* J =  9 */
(PID.TID 0000.0001)                 2.734046499619031E+05,      /* J = 10 */
(PID.TID 0000.0001)                 2.809019351693761E+05,      /* J = 11 */
(PID.TID 0000.0001)                 2.871811105274442E+05,      /* J = 12 */
(PID.TID 0000.0001)                 2.922844849381675E+05,      /* J = 13 */
(PID.TID 0000.0001)                 2.962371870847826E+05,      /* J = 14 */
(PID.TID 0000.0001)                 2.990534755671296E+05,      /* J = 15 */
(PID.TID 0000.0001)                 3.007409169495504E+05       /* J = 16 */
(PID.TID 0000.0001)     ;
(PID.TID 0000.0001) rA  =  /* rA (:,1,:,1) ( units: m^2 ) */
(PID.TID 0000.0001)                 1.401900702255611E+10,      /* I =  1 */
(PID.TID 0000.0001)                 2.459906945574446E+10,      /* I =  2 */
(PID.TID 0000.0001)                 3.378518544307869E+10,      /* I =  3 */
(PID.TID 0000.0001)      . . .
(PID.TID 0000.0001)                 3.378518544304265E+10,      /* I = 94 */
(PID.TID 0000.0001)                 2.459906945574446E+10,      /* I = 95 */
(PID.TID 0000.0001)                 1.401900702259215E+10,      /* I = 96 */
(PID.TID 0000.0001)                 9.076111290422060E+10,      /* I = 97 */
(PID.TID 0000.0001)                 9.103111035233499E+10,      /* I = 98 */
(PID.TID 0000.0001)                 9.156064070993231E+10,      /* I = 99 */
(PID.TID 0000.0001)      . . .
(PID.TID 0000.0001)                 9.156064070993231E+10,      /* I =190 */
(PID.TID 0000.0001)                 9.103111035233499E+10,      /* I =191 */
(PID.TID 0000.0001)                 9.076111290418457E+10,      /* I =192 */
(PID.TID 0000.0001)                 1.401900702255611E+10,      /* I =193 */
(PID.TID 0000.0001)                 2.459906945574446E+10,      /* I =194 */
(PID.TID 0000.0001)                 3.378518544307869E+10,      /* I =195 */
(PID.TID 0000.0001)      . . .
(PID.TID 0000.0001)                 3.378518544304265E+10,      /* I =286 */
(PID.TID 0000.0001)                 2.459906945574446E+10,      /* I =287 */
(PID.TID 0000.0001)                 1.401900702259215E+10,      /* I =288 */
(PID.TID 0000.0001)                 9.076111290422060E+10,      /* I =289 */
(PID.TID 0000.0001)                 9.103111035233499E+10,      /* I =290 */
(PID.TID 0000.0001)                 9.156064070993231E+10,      /* I =291 */
(PID.TID 0000.0001)      . . .
(PID.TID 0000.0001)                 9.156064070993231E+10,      /* I =382 */
(PID.TID 0000.0001)                 9.103111035233499E+10,      /* I =383 */
(PID.TID 0000.0001)                 9.076111290418457E+10       /* I =384 */
(PID.TID 0000.0001)     ;
(PID.TID 0000.0001) rA  =  /* rA (1,:,1,:) ( units: m^2 ) */
(PID.TID 0000.0001)                 1.401900702255611E+10,      /* J =  1 */
(PID.TID 0000.0001)                 2.459906945574446E+10,      /* J =  2 */
(PID.TID 0000.0001)                 3.378518544307869E+10,      /* J =  3 */
(PID.TID 0000.0001)                 4.192037169898667E+10,      /* J =  4 */
(PID.TID 0000.0001)                 4.925938996118163E+10,      /* J =  5 */
(PID.TID 0000.0001)                 5.594154126607553E+10,      /* J =  6 */
(PID.TID 0000.0001)                 6.203683527776127E+10,      /* J =  7 */
(PID.TID 0000.0001)                 6.757541173817516E+10,      /* J =  8 */
(PID.TID 0000.0001)                 7.256353271748119E+10,      /* J =  9 */
(PID.TID 0000.0001)                 7.699293007098555E+10,      /* J = 10 */
(PID.TID 0000.0001)                 8.084683449728902E+10,      /* J = 11 */
(PID.TID 0000.0001)                 8.410423102799828E+10,      /* J = 12 */
(PID.TID 0000.0001)                 8.674306976737517E+10,      /* J = 13 */
(PID.TID 0000.0001)                 8.874277443041928E+10,      /* J = 14 */
(PID.TID 0000.0001)                 9.008620045350865E+10,      /* J = 15 */
(PID.TID 0000.0001)                 9.076111290418457E+10       /* J = 16 */
(PID.TID 0000.0001)     ;
(PID.TID 0000.0001) rAw =  /* rAw(:,1,:,1) ( units: m^2 ) */
(PID.TID 0000.0001)                 1.216690346714270E+10,      /* I =  1 */
(PID.TID 0000.0001)                 1.974052138506315E+10,      /* I =  2 */
(PID.TID 0000.0001)                 2.943712825252015E+10,      /* I =  3 */
(PID.TID 0000.0001)      . . .
(PID.TID 0000.0001)                 3.801790263325260E+10,      /* I = 94 */
(PID.TID 0000.0001)                 2.943712825251114E+10,      /* I = 95 */
(PID.TID 0000.0001)                 1.974052138509018E+10,      /* I = 96 */
(PID.TID 0000.0001)                 9.071447638299399E+10,      /* I = 97 */
(PID.TID 0000.0001)                 9.085012105610597E+10,      /* I = 98 */
(PID.TID 0000.0001)                 9.125179254955583E+10,      /* I = 99 */
(PID.TID 0000.0001)      . . .
(PID.TID 0000.0001)                 9.190392048045309E+10,      /* I =190 */
(PID.TID 0000.0001)                 9.125179254954683E+10,      /* I =191 */
(PID.TID 0000.0001)                 9.085012105606993E+10,      /* I =192 */
(PID.TID 0000.0001)                 1.216690346714270E+10,      /* I =193 */
(PID.TID 0000.0001)                 1.974052138506315E+10,      /* I =194 */
(PID.TID 0000.0001)                 2.943712825252015E+10,      /* I =195 */
(PID.TID 0000.0001)      . . .
(PID.TID 0000.0001)                 3.801790263325260E+10,      /* I =286 */
(PID.TID 0000.0001)                 2.943712825251114E+10,      /* I =287 */
(PID.TID 0000.0001)                 1.974052138509018E+10,      /* I =288 */
(PID.TID 0000.0001)                 9.071447638299399E+10,      /* I =289 */
(PID.TID 0000.0001)                 9.085012105610597E+10,      /* I =290 */
(PID.TID 0000.0001)                 9.125179254955583E+10,      /* I =291 */
(PID.TID 0000.0001)      . . .
(PID.TID 0000.0001)                 9.190392048045309E+10,      /* I =382 */
(PID.TID 0000.0001)                 9.125179254954683E+10,      /* I =383 */
(PID.TID 0000.0001)                 9.085012105606993E+10       /* I =384 */
(PID.TID 0000.0001)     ;
(PID.TID 0000.0001) rAw =  /* rAw(1,:,1,:) ( units: m^2 ) */
(PID.TID 0000.0001)                 1.216690346714270E+10,      /* J =  1 */
(PID.TID 0000.0001)                 2.390126200743558E+10,      /* J =  2 */
(PID.TID 0000.0001)                 3.341968103208270E+10,      /* J =  3 */
(PID.TID 0000.0001)                 4.168532893152940E+10,      /* J =  4 */
(PID.TID 0000.0001)                 4.909074590409593E+10,      /* J =  5 */
(PID.TID 0000.0001)                 5.581203765722643E+10,      /* J =  6 */
(PID.TID 0000.0001)                 6.193257577506788E+10,      /* J =  7 */
(PID.TID 0000.0001)                 6.748840226738273E+10,      /* J =  8 */
(PID.TID 0000.0001)                 7.248875782324815E+10,      /* J =  9 */
(PID.TID 0000.0001)                 7.692702995909871E+10,      /* J = 10 */
(PID.TID 0000.0001)                 8.078743937057304E+10,      /* J = 11 */
(PID.TID 0000.0001)                 8.404959656062837E+10,      /* J = 12 */
(PID.TID 0000.0001)                 8.669186205742538E+10,      /* J = 13 */
(PID.TID 0000.0001)                 8.869393350723613E+10,      /* J = 14 */
(PID.TID 0000.0001)                 9.003884657168852E+10,      /* J = 15 */
(PID.TID 0000.0001)                 9.071447638299399E+10       /* J = 16 */
(PID.TID 0000.0001)     ;
(PID.TID 0000.0001) rAs =  /* rAs(:,1,:,1) ( units: m^2 ) */
(PID.TID 0000.0001)                 1.216690346714270E+10,      /* I =  1 */
(PID.TID 0000.0001)                 2.390126200743558E+10,      /* I =  2 */
(PID.TID 0000.0001)                 3.341968103208270E+10,      /* I =  3 */
(PID.TID 0000.0001)      . . .
(PID.TID 0000.0001)                 3.341968103208270E+10,      /* I = 94 */
(PID.TID 0000.0001)                 2.390126200743558E+10,      /* I = 95 */
(PID.TID 0000.0001)                 1.216690346714270E+10,      /* I = 96 */
(PID.TID 0000.0001)                 9.083293515008307E+10,      /* I = 97 */
(PID.TID 0000.0001)                 9.110170898494536E+10,      /* I = 98 */
(PID.TID 0000.0001)                 9.162886297688426E+10,      /* I = 99 */
(PID.TID 0000.0001)      . . .
(PID.TID 0000.0001)                 9.162886297688426E+10,      /* I =190 */
(PID.TID 0000.0001)                 9.110170898494536E+10,      /* I =191 */
(PID.TID 0000.0001)                 9.083293515008307E+10,      /* I =192 */
(PID.TID 0000.0001)                 1.216690346714270E+10,      /* I =193 */
(PID.TID 0000.0001)                 2.390126200743558E+10,      /* I =194 */
(PID.TID 0000.0001)                 3.341968103208270E+10,      /* I =195 */
(PID.TID 0000.0001)      . . .
(PID.TID 0000.0001)                 3.341968103208270E+10,      /* I =286 */
(PID.TID 0000.0001)                 2.390126200743558E+10,      /* I =287 */
(PID.TID 0000.0001)                 1.216690346714270E+10,      /* I =288 */
(PID.TID 0000.0001)                 9.083293515008307E+10,      /* I =289 */
(PID.TID 0000.0001)                 9.110170898494536E+10,      /* I =290 */
(PID.TID 0000.0001)                 9.162886297688426E+10,      /* I =291 */
(PID.TID 0000.0001)      . . .
(PID.TID 0000.0001)                 9.162886297688426E+10,      /* I =382 */
(PID.TID 0000.0001)                 9.110170898494536E+10,      /* I =383 */
(PID.TID 0000.0001)                 9.083293515008307E+10       /* I =384 */
(PID.TID 0000.0001)     ;
(PID.TID 0000.0001) rAs =  /* rAs(1,:,1,:) ( units: m^2 ) */
(PID.TID 0000.0001)                 1.216690346714270E+10,      /* J =  1 */
(PID.TID 0000.0001)                 1.974052138506315E+10,      /* J =  2 */
(PID.TID 0000.0001)                 2.943712825252015E+10,      /* J =  3 */
(PID.TID 0000.0001)                 3.801790263324359E+10,      /* J =  4 */
(PID.TID 0000.0001)                 4.571243814189866E+10,      /* J =  5 */
(PID.TID 0000.0001)                 5.269930713599979E+10,      /* J =  6 */
(PID.TID 0000.0001)                 5.907428494299063E+10,      /* J =  7 */
(PID.TID 0000.0001)                 6.488320895111514E+10,      /* J =  8 */
(PID.TID 0000.0001)                 7.014205907741882E+10,      /* J =  9 */
(PID.TID 0000.0001)                 7.484854821847499E+10,      /* J = 10 */
(PID.TID 0000.0001)                 7.898934631431560E+10,      /* J = 11 */
(PID.TID 0000.0001)                 8.254500894894537E+10,      /* J = 12 */
(PID.TID 0000.0001)                 8.549360686473492E+10,      /* J = 13 */
(PID.TID 0000.0001)                 8.781353403175085E+10,      /* J = 14 */
(PID.TID 0000.0001)                 8.948571540392021E+10,      /* J = 15 */
(PID.TID 0000.0001)                 9.049530583086168E+10       /* J = 16 */
(PID.TID 0000.0001)     ;
(PID.TID 0000.0001) globalArea = /* Integrated horizontal Area (m^2) */
(PID.TID 0000.0001)                 3.638867375081599E+14
(PID.TID 0000.0001)     ;
(PID.TID 0000.0001) hasWetCSCorners = /* Domain contains CS corners (True/False) */
(PID.TID 0000.0001)                   T
(PID.TID 0000.0001)     ;
(PID.TID 0000.0001) // =======================================================
(PID.TID 0000.0001) // End of Model config. summary
(PID.TID 0000.0001) // =======================================================
(PID.TID 0000.0001) 
(PID.TID 0000.0001) == Packages configuration : Check & print summary ==
(PID.TID 0000.0001) 
(PID.TID 0000.0001) GMREDI_CHECK: #define GMREDI
(PID.TID 0000.0001) GM_AdvForm =     /* if FALSE => use SkewFlux Form */
(PID.TID 0000.0001)                   F
(PID.TID 0000.0001)     ;
(PID.TID 0000.0001) GM_InMomAsStress = /* if TRUE => apply as Eddy Stress */
(PID.TID 0000.0001)                   F
(PID.TID 0000.0001)     ;
(PID.TID 0000.0001) GM_AdvSeparate = /* Calc Bolus & Euler Adv. separately */
(PID.TID 0000.0001)                   F
(PID.TID 0000.0001)     ;
(PID.TID 0000.0001) GM_ExtraDiag =   /* Tensor Extra Diag (line 1&2) non 0 */
(PID.TID 0000.0001)                   F
(PID.TID 0000.0001)     ;
(PID.TID 0000.0001) GM_isopycK =    /* Background Isopyc. Diffusivity [m^2/s] */
(PID.TID 0000.0001)                 1.000000000000000E+03
(PID.TID 0000.0001)     ;
(PID.TID 0000.0001) GM_skewflx*K =  /* Background GM_SkewFlx Diffusivity [m^2/s] */
(PID.TID 0000.0001)                 1.000000000000000E+03
(PID.TID 0000.0001)     ;
(PID.TID 0000.0001) GM_advec*K =    /* Backg. GM-Advec(=Bolus) Diffusivity [m^2/s]*/
(PID.TID 0000.0001)                 0.000000000000000E+00
(PID.TID 0000.0001)     ;
(PID.TID 0000.0001) GM_Kmin_horiz = /* Minimum Horizontal Diffusivity [m^2/s] */
(PID.TID 0000.0001)                 5.000000000000000E+01
(PID.TID 0000.0001)     ;
(PID.TID 0000.0001) GM_Visbeck_alpha = /* Visbeck alpha coeff. [-] */
(PID.TID 0000.0001)                 0.000000000000000E+00
(PID.TID 0000.0001)     ;
(PID.TID 0000.0001) GM_Small_Number =  /* epsilon used in slope calc */
(PID.TID 0000.0001)                 9.999999999999999E-21
(PID.TID 0000.0001)     ;
(PID.TID 0000.0001) GM_slopeSqCutoff = /* Slope^2 cut-off value */
(PID.TID 0000.0001)                 1.000000000000000E+08
(PID.TID 0000.0001)     ;
(PID.TID 0000.0001) GM_taper_scheme =  /* Type of Tapering/Clipping scheme */
(PID.TID 0000.0001)               'dm95                                    '
(PID.TID 0000.0001)     ;
(PID.TID 0000.0001) GM_maxSlope =  /* Maximum Slope (Tapering/Clipping) */
(PID.TID 0000.0001)                 1.000000000000000E-02
(PID.TID 0000.0001)     ;
(PID.TID 0000.0001) GM_facTrL2dz = /* Minimum Trans.Layer Thick. (factor of dz) */
(PID.TID 0000.0001)                 1.000000000000000E+00
(PID.TID 0000.0001)     ;
(PID.TID 0000.0001) GM_facTrL2ML = /* Max.Trans.Layer Thick. (factor of MxL Depth)*/
(PID.TID 0000.0001)                 5.000000000000000E+00
(PID.TID 0000.0001)     ;
(PID.TID 0000.0001) GM_maxTransLay = /* Maximum Transition Layer Thickness [m] */
(PID.TID 0000.0001)                 5.000000000000000E+02
(PID.TID 0000.0001)     ;
(PID.TID 0000.0001) GM_UseBVP = /* if TRUE => use bvp a la Ferrari et al. (2010) */
(PID.TID 0000.0001)                   F
(PID.TID 0000.0001)     ;
(PID.TID 0000.0001) GM_BVP_ModeNumber = /* Vertical mode number for BVP wave speed */
(PID.TID 0000.0001)                       1
(PID.TID 0000.0001)     ;
(PID.TID 0000.0001) GM_BVP_cMin = /* Minimum wave speed for BVP [m/s] */
(PID.TID 0000.0001)                 1.000000000000000E-01
(PID.TID 0000.0001)     ;
(PID.TID 0000.0001) GM_useSubMeso = /* if TRUE => use Sub-Meso param. (B.Fox-Kemper) */
(PID.TID 0000.0001)                   F
(PID.TID 0000.0001)     ;
(PID.TID 0000.0001) subMeso_Ceff = /* efficiency coeff. of Mixed-Layer Eddies [-] */
(PID.TID 0000.0001)                 7.000000000000001E-02
(PID.TID 0000.0001)     ;
(PID.TID 0000.0001) subMeso_invTau = /* inverse of Sub-Meso mixing time-scale [/s] */
(PID.TID 0000.0001)                 2.000000000000000E-06
(PID.TID 0000.0001)     ;
(PID.TID 0000.0001) subMeso_LfMin = /* minimum length-scale "Lf" [m] */
(PID.TID 0000.0001)                 1.000000000000000E+03
(PID.TID 0000.0001)     ;
(PID.TID 0000.0001) subMeso_Lmax = /* maximum grid-scale length [m] */
(PID.TID 0000.0001)                 1.100000000000000E+05
(PID.TID 0000.0001)     ;
(PID.TID 0000.0001) GM_useLeithQG = /* if TRUE => add QG Leith viscosity to GMRedi tensor */
(PID.TID 0000.0001)                   F
(PID.TID 0000.0001)     ;
(PID.TID 0000.0001) EXF_CHECK: #define ALLOW_EXF
(PID.TID 0000.0001) SEAICE_CHECK: #define ALLOW_SEAICE
(PID.TID 0000.0001) CTRL_CHECK: #define ALLOW_CTRL
(PID.TID 0000.0001) COST_CHECK: #define ALLOW_COST
(PID.TID 0000.0001) GRDCHK_CHECK: grdchk package
(PID.TID 0000.0001) GAD_CHECK: #define ALLOW_GENERIC_ADVDIFF
(PID.TID 0000.0001) // =======================================================
(PID.TID 0000.0001) // Check Model config. (CONFIG_CHECK):
(PID.TID 0000.0001) // CONFIG_CHECK : Normal End
(PID.TID 0000.0001) // =======================================================
(PID.TID 0000.0001) 
(PID.TID 0000.0001)  nRecords = 123 ; filePrec =  64 ; fileIter =     72000
(PID.TID 0000.0001)     nDims =   2 , dims:
(PID.TID 0000.0001)    1: 192   1 192
(PID.TID 0000.0001)    2:  32   1  32
(PID.TID 0000.0001)     nFlds =  11 , nFl3D =   8 , fields:
(PID.TID 0000.0001)  >Uvel    < >GuNm1   < >Vvel    < >GvNm1   < >Theta   < >GtNm1   < >Salt    < >GsNm1   < >EtaN    < >dEtaHdt < >EtaH    <
(PID.TID 0000.0001) missingVal=  1.00000000000000E+00 ; nTimRec =   0 , timeList:
(PID.TID 0000.0001) READ_MFLDS_3D_RL: read field: "Uvel    ", #   1 in fldList, rec=   1
(PID.TID 0000.0001) READ_MFLDS_3D_RL: read field: "Vvel    ", #   3 in fldList, rec=   3
(PID.TID 0000.0001) READ_MFLDS_3D_RL: read field: "Theta   ", #   5 in fldList, rec=   5
(PID.TID 0000.0001) READ_MFLDS_3D_RL: read field: "Salt    ", #   7 in fldList, rec=   7
(PID.TID 0000.0001) READ_MFLDS_3D_RL: read field: "GuNm1   ", #   2 in fldList, rec=   2
(PID.TID 0000.0001) READ_MFLDS_3D_RL: read field: "GvNm1   ", #   4 in fldList, rec=   4
(PID.TID 0000.0001) READ_MFLDS_3D_RL: read field: "EtaN    ", #   9 in fldList, rec= 121
(PID.TID 0000.0001) READ_MFLDS_3D_RL: read field: "dEtaHdt ", #  10 in fldList, rec= 122
(PID.TID 0000.0001) READ_MFLDS_3D_RL: read field: "EtaH    ", #  11 in fldList, rec= 123
(PID.TID 0000.0001) READ_MFLDS_CHECK: - normal end ; reset MFLDS file-name: pickup.0000072000
(PID.TID 0000.0001)  nRecords =  15 ; filePrec =  64 ; fileIter =     72000
(PID.TID 0000.0001)     nDims =   2 , dims:
(PID.TID 0000.0001)    1: 192   1 192
(PID.TID 0000.0001)    2:  32   1  32
(PID.TID 0000.0001)     nFlds =  15 , nFl3D =   0 , fields:
(PID.TID 0000.0001)  >siTICE  < >siYNEG  < >siHSNOW < >siUICE  < >siUICE_2< >siUICE_3< >siVICE  < >siVICE_2< >siVICE_3< >siHEFF  < >siHEFF_2< >siHEFF_3< >siAREA  < >siAREA_2< >siAREA_3<
(PID.TID 0000.0001) missingVal=  1.00000000000000E+00 ; nTimRec =   0 , timeList:
(PID.TID 0000.0001) READ_MFLDS_LEV_RL: read field: "siTICE  ", #   1 in fldList, rec=   1
(PID.TID 0000.0001) READ_MFLDS_3D_RL: read field: "siAREA  ", #  13 in fldList, rec=  13
(PID.TID 0000.0001) READ_MFLDS_3D_RL: read field: "siHEFF  ", #  10 in fldList, rec=  10
(PID.TID 0000.0001) READ_MFLDS_3D_RL: read field: "siHSNOW ", #   3 in fldList, rec=   3
(PID.TID 0000.0001) READ_MFLDS_3D_RL: read field: "siUICE  ", #   4 in fldList, rec=   4
(PID.TID 0000.0001) READ_MFLDS_3D_RL: read field: "siVICE  ", #   7 in fldList, rec=   7
(PID.TID 0000.0001) READ_MFLDS_CHECK: - normal end ; reset MFLDS file-name: pickup_seaice.0000072000
(PID.TID 0000.0001) // =======================================================
(PID.TID 0000.0001) // Begin MONITOR dynamic field statistics
(PID.TID 0000.0001) // =======================================================
(PID.TID 0000.0001) %MON time_tsnumber                =                 72000
(PID.TID 0000.0001) %MON time_secondsf                =   6.2208000000000E+09
(PID.TID 0000.0001) %MON dynstat_eta_max              =  -2.2041664480788E+00
(PID.TID 0000.0001) %MON dynstat_eta_min              =  -8.3368186317242E+00
(PID.TID 0000.0001) %MON dynstat_eta_mean             =  -3.2999269019401E+00
(PID.TID 0000.0001) %MON dynstat_eta_sd               =   8.8289254437965E-01
(PID.TID 0000.0001) %MON dynstat_eta_del2             =   2.4546251501318E-03
(PID.TID 0000.0001) %MON dynstat_uvel_max             =   2.1289733821794E-01
(PID.TID 0000.0001) %MON dynstat_uvel_min             =  -2.9128750750933E-01
(PID.TID 0000.0001) %MON dynstat_uvel_mean            =  -5.2860218230237E-04
(PID.TID 0000.0001) %MON dynstat_uvel_sd              =   1.4790330813737E-02
(PID.TID 0000.0001) %MON dynstat_uvel_del2            =   6.8248145743958E-05
(PID.TID 0000.0001) %MON dynstat_vvel_max             =   2.2199184704564E-01
(PID.TID 0000.0001) %MON dynstat_vvel_min             =  -2.0062292421344E-01
(PID.TID 0000.0001) %MON dynstat_vvel_mean            =  -4.0113294365963E-04
(PID.TID 0000.0001) %MON dynstat_vvel_sd              =   1.5242443278796E-02
(PID.TID 0000.0001) %MON dynstat_vvel_del2            =   6.3300374611828E-05
(PID.TID 0000.0001) %MON dynstat_wvel_max             =   1.0124036730755E-04
(PID.TID 0000.0001) %MON dynstat_wvel_min             =  -2.1390857550473E-04
(PID.TID 0000.0001) %MON dynstat_wvel_mean            =   1.8421448772884E-22
(PID.TID 0000.0001) %MON dynstat_wvel_sd              =   5.3719523207710E-06
(PID.TID 0000.0001) %MON dynstat_wvel_del2            =   4.9513639049696E-08
(PID.TID 0000.0001) %MON dynstat_theta_max            =   3.1190145162975E+01
(PID.TID 0000.0001) %MON dynstat_theta_min            =  -2.0000000000000E+00
(PID.TID 0000.0001) %MON dynstat_theta_mean           =   3.0531070632180E+00
(PID.TID 0000.0001) %MON dynstat_theta_sd             =   4.9944713468841E+00
(PID.TID 0000.0001) %MON dynstat_theta_del2           =   2.9528142893868E-03
(PID.TID 0000.0001) %MON dynstat_salt_max             =   5.9479941764493E+01
(PID.TID 0000.0001) %MON dynstat_salt_min             =   1.7775579847672E+01
(PID.TID 0000.0001) %MON dynstat_salt_mean            =   3.4752520111249E+01
(PID.TID 0000.0001) %MON dynstat_salt_sd              =   4.8912632150922E-01
(PID.TID 0000.0001) %MON dynstat_salt_del2            =   1.3623675537366E-03
(PID.TID 0000.0001) %MON forcing_qnet_max             =   0.0000000000000E+00
(PID.TID 0000.0001) %MON forcing_qnet_min             =   0.0000000000000E+00
(PID.TID 0000.0001) %MON forcing_qnet_mean            =   0.0000000000000E+00
(PID.TID 0000.0001) %MON forcing_qnet_sd              =   0.0000000000000E+00
(PID.TID 0000.0001) %MON forcing_qnet_del2            =   0.0000000000000E+00
(PID.TID 0000.0001) %MON forcing_qsw_max              =   0.0000000000000E+00
(PID.TID 0000.0001) %MON forcing_qsw_min              =   0.0000000000000E+00
(PID.TID 0000.0001) %MON forcing_qsw_mean             =   0.0000000000000E+00
(PID.TID 0000.0001) %MON forcing_qsw_sd               =   0.0000000000000E+00
(PID.TID 0000.0001) %MON forcing_qsw_del2             =   0.0000000000000E+00
(PID.TID 0000.0001) %MON forcing_empmr_max            =   0.0000000000000E+00
(PID.TID 0000.0001) %MON forcing_empmr_min            =   0.0000000000000E+00
(PID.TID 0000.0001) %MON forcing_empmr_mean           =   0.0000000000000E+00
(PID.TID 0000.0001) %MON forcing_empmr_sd             =   0.0000000000000E+00
(PID.TID 0000.0001) %MON forcing_empmr_del2           =   0.0000000000000E+00
(PID.TID 0000.0001) %MON forcing_fu_max               =   0.0000000000000E+00
(PID.TID 0000.0001) %MON forcing_fu_min               =   0.0000000000000E+00
(PID.TID 0000.0001) %MON forcing_fu_mean              =   0.0000000000000E+00
(PID.TID 0000.0001) %MON forcing_fu_sd                =   0.0000000000000E+00
(PID.TID 0000.0001) %MON forcing_fu_del2              =   0.0000000000000E+00
(PID.TID 0000.0001) %MON forcing_fv_max               =   0.0000000000000E+00
(PID.TID 0000.0001) %MON forcing_fv_min               =   0.0000000000000E+00
(PID.TID 0000.0001) %MON forcing_fv_mean              =   0.0000000000000E+00
(PID.TID 0000.0001) %MON forcing_fv_sd                =   0.0000000000000E+00
(PID.TID 0000.0001) %MON forcing_fv_del2              =   0.0000000000000E+00
(PID.TID 0000.0001) %MON trAdv_CFL_u_max              =   0.0000000000000E+00
(PID.TID 0000.0001) %MON trAdv_CFL_v_max              =   0.0000000000000E+00
(PID.TID 0000.0001) %MON trAdv_CFL_w_max              =   0.0000000000000E+00
(PID.TID 0000.0001) %MON advcfl_uvel_max              =   8.3923803824552E-02
(PID.TID 0000.0001) %MON advcfl_vvel_max              =   8.3304632405312E-02
(PID.TID 0000.0001) %MON advcfl_wvel_max              =   6.9742267636260E-02
(PID.TID 0000.0001) %MON advcfl_W_hf_max              =   7.7160047546783E-02
(PID.TID 0000.0001) %MON pe_b_mean                    =   1.5559232407148E-02
(PID.TID 0000.0001) %MON ke_max                       =   4.1915507392132E-02
(PID.TID 0000.0001) %MON ke_mean                      =   2.0848176851410E-04
(PID.TID 0000.0001) %MON ke_vol                       =   1.3386015893205E+18
(PID.TID 0000.0001) %MON vort_r_min                   =  -1.2262915518822E-06
(PID.TID 0000.0001) %MON vort_r_max                   =   1.3011966935743E-06
(PID.TID 0000.0001) %MON vort_a_mean                  =  -2.0549865324846E-05
(PID.TID 0000.0001) %MON vort_a_sd                    =   7.5259723723248E-05
(PID.TID 0000.0001) %MON vort_p_mean                  =  -2.4806340990730E-05
(PID.TID 0000.0001) %MON vort_p_sd                    =   1.2827605093522E-04
(PID.TID 0000.0001) %MON surfExpan_theta_mean         =   2.0635497176584E-08
(PID.TID 0000.0001) %MON surfExpan_salt_mean          =   8.6599604852923E-08
(PID.TID 0000.0001) // =======================================================
(PID.TID 0000.0001) // End MONITOR dynamic field statistics
(PID.TID 0000.0001) // =======================================================
(PID.TID 0000.0001) // =======================================================
(PID.TID 0000.0001) // Begin MONITOR SEAICE statistics
(PID.TID 0000.0001) // =======================================================
(PID.TID 0000.0001) %MON seaice_tsnumber              =                 72000
(PID.TID 0000.0001) %MON seaice_time_sec              =   6.2208000000000E+09
(PID.TID 0000.0001) %MON seaice_uice_max              =   4.0000000000000E-01
(PID.TID 0000.0001) %MON seaice_uice_min              =  -4.0000000000000E-01
(PID.TID 0000.0001) %MON seaice_uice_mean             =  -1.4584960473672E-02
(PID.TID 0000.0001) %MON seaice_uice_sd               =   1.4252324186947E-01
(PID.TID 0000.0001) %MON seaice_uice_del2             =   7.2720843677207E-04
(PID.TID 0000.0001) %MON seaice_vice_max              =   3.7441285697502E-01
(PID.TID 0000.0001) %MON seaice_vice_min              =  -4.0000000000000E-01
(PID.TID 0000.0001) %MON seaice_vice_mean             =  -3.7542841261047E-02
(PID.TID 0000.0001) %MON seaice_vice_sd               =   1.5635165386930E-01
(PID.TID 0000.0001) %MON seaice_vice_del2             =   7.0861834440520E-04
(PID.TID 0000.0001) %MON seaice_area_max              =   1.0000000000000E+00
(PID.TID 0000.0001) %MON seaice_area_min              =   0.0000000000000E+00
(PID.TID 0000.0001) %MON seaice_area_mean             =   4.7593115319309E-02
(PID.TID 0000.0001) %MON seaice_area_sd               =   1.9132919249415E-01
(PID.TID 0000.0001) %MON seaice_area_del2             =   1.7116012833979E-03
(PID.TID 0000.0001) %MON seaice_heff_max              =   5.2000132254738E+00
(PID.TID 0000.0001) %MON seaice_heff_min              =   0.0000000000000E+00
(PID.TID 0000.0001) %MON seaice_heff_mean             =   8.4334854083991E-02
(PID.TID 0000.0001) %MON seaice_heff_sd               =   3.9995427486652E-01
(PID.TID 0000.0001) %MON seaice_heff_del2             =   2.4797179641400E-03
(PID.TID 0000.0001) %MON seaice_hsnow_max             =   0.0000000000000E+00
(PID.TID 0000.0001) %MON seaice_hsnow_min             =   0.0000000000000E+00
(PID.TID 0000.0001) %MON seaice_hsnow_mean            =   0.0000000000000E+00
(PID.TID 0000.0001) %MON seaice_hsnow_sd              =   0.0000000000000E+00
(PID.TID 0000.0001) %MON seaice_hsnow_del2            =   0.0000000000000E+00
(PID.TID 0000.0001) // =======================================================
(PID.TID 0000.0001) // End MONITOR SEAICE statistics
(PID.TID 0000.0001) // =======================================================
(PID.TID 0000.0001) whio : write lev 3 rec   1
(PID.TID 0000.0001) SOLVE_FOR_PRESSURE: putPmEinXvector =    F
 cg2d: Sum(rhs),rhsMax =   2.21291478463262E+03  2.01372753928932E+01
(PID.TID 0000.0001)      cg2d_init_res =   4.44567380337971E+01
(PID.TID 0000.0001)      cg2d_iters(min,last) =      -1      85
(PID.TID 0000.0001)      cg2d_last_res =   4.81075398407887E-07
(PID.TID 0000.0001) // =======================================================
(PID.TID 0000.0001) // Begin MONITOR dynamic field statistics
(PID.TID 0000.0001) // =======================================================
(PID.TID 0000.0001) %MON time_tsnumber                =                 72001
(PID.TID 0000.0001) %MON time_secondsf                =   6.2208864000000E+09
(PID.TID 0000.0001) %MON dynstat_eta_max              =  -2.2002367118237E+00
(PID.TID 0000.0001) %MON dynstat_eta_min              =  -8.4708591644840E+00
(PID.TID 0000.0001) %MON dynstat_eta_mean             =  -3.2913633830167E+00
(PID.TID 0000.0001) %MON dynstat_eta_sd               =   8.6181275094819E-01
(PID.TID 0000.0001) %MON dynstat_eta_del2             =   2.6604039069360E-03
(PID.TID 0000.0001) %MON dynstat_uvel_max             =   2.1315870459401E-01
(PID.TID 0000.0001) %MON dynstat_uvel_min             =  -2.9096276664904E-01
(PID.TID 0000.0001) %MON dynstat_uvel_mean            =  -5.2639819394882E-04
(PID.TID 0000.0001) %MON dynstat_uvel_sd              =   1.4787457255161E-02
(PID.TID 0000.0001) %MON dynstat_uvel_del2            =   6.8212938177574E-05
(PID.TID 0000.0001) %MON dynstat_vvel_max             =   2.2158795449683E-01
(PID.TID 0000.0001) %MON dynstat_vvel_min             =  -2.0069032883271E-01
(PID.TID 0000.0001) %MON dynstat_vvel_mean            =  -4.0085699756732E-04
(PID.TID 0000.0001) %MON dynstat_vvel_sd              =   1.5243715802442E-02
(PID.TID 0000.0001) %MON dynstat_vvel_del2            =   6.3225028483513E-05
(PID.TID 0000.0001) %MON dynstat_wvel_max             =   1.0165528626914E-04
(PID.TID 0000.0001) %MON dynstat_wvel_min             =  -2.1363764844516E-04
(PID.TID 0000.0001) %MON dynstat_wvel_mean            =  -4.7500837078844E-08
(PID.TID 0000.0001) %MON dynstat_wvel_sd              =   5.3822553656808E-06
(PID.TID 0000.0001) %MON dynstat_wvel_del2            =   4.9753752510627E-08
(PID.TID 0000.0001) %MON dynstat_theta_max            =   3.1189589760377E+01
(PID.TID 0000.0001) %MON dynstat_theta_min            =  -3.4735689573328E+00
(PID.TID 0000.0001) %MON dynstat_theta_mean           =   3.0530765690011E+00
(PID.TID 0000.0001) %MON dynstat_theta_sd             =   4.9949379215581E+00
(PID.TID 0000.0001) %MON dynstat_theta_del2           =   2.9505178213985E-03
(PID.TID 0000.0001) %MON dynstat_salt_max             =   5.8465879361692E+01
(PID.TID 0000.0001) %MON dynstat_salt_min             =   1.7775797127027E+01
(PID.TID 0000.0001) %MON dynstat_salt_mean            =   3.4752446323497E+01
(PID.TID 0000.0001) %MON dynstat_salt_sd              =   4.8897557311462E-01
(PID.TID 0000.0001) %MON dynstat_salt_del2            =   1.3340933219072E-03
(PID.TID 0000.0001) %MON forcing_qnet_max             =   3.1816705524203E+03
(PID.TID 0000.0001) %MON forcing_qnet_min             =  -2.5031225998834E+02
(PID.TID 0000.0001) %MON forcing_qnet_mean            =   5.3974228578428E+00
(PID.TID 0000.0001) %MON forcing_qnet_sd              =   2.3638893283503E+02
(PID.TID 0000.0001) %MON forcing_qnet_del2            =   5.1969102284547E+00
(PID.TID 0000.0001) %MON forcing_qsw_max              =   0.0000000000000E+00
(PID.TID 0000.0001) %MON forcing_qsw_min              =  -3.0191527312954E+02
(PID.TID 0000.0001) %MON forcing_qsw_mean             =  -1.8243261285050E+02
(PID.TID 0000.0001) %MON forcing_qsw_sd               =   7.9864997331198E+01
(PID.TID 0000.0001) %MON forcing_qsw_del2             =   3.2963236410942E-01
(PID.TID 0000.0001) %MON forcing_empmr_max            =   1.4617630761920E-03
(PID.TID 0000.0001) %MON forcing_empmr_min            =  -9.1579234388485E-03
(PID.TID 0000.0001) %MON forcing_empmr_mean           =  -1.0258382043646E-04
(PID.TID 0000.0001) %MON forcing_empmr_sd             =   6.3954412167461E-04
(PID.TID 0000.0001) %MON forcing_empmr_del2           =   1.5222213493219E-05
(PID.TID 0000.0001) %MON forcing_fu_max               =   2.4760613571392E-01
(PID.TID 0000.0001) %MON forcing_fu_min               =  -2.9720558541057E-01
(PID.TID 0000.0001) %MON forcing_fu_mean              =  -4.8574762239531E-03
(PID.TID 0000.0001) %MON forcing_fu_sd                =   6.5597819869577E-02
(PID.TID 0000.0001) %MON forcing_fu_del2              =   2.5132883213106E-04
(PID.TID 0000.0001) %MON forcing_fv_max               =   2.5281098043587E-01
(PID.TID 0000.0001) %MON forcing_fv_min               =  -3.2691992401999E-01
(PID.TID 0000.0001) %MON forcing_fv_mean              =  -1.3320871311147E-02
(PID.TID 0000.0001) %MON forcing_fv_sd                =   7.6108888525108E-02
(PID.TID 0000.0001) %MON forcing_fv_del2              =   2.5878175496687E-04
(PID.TID 0000.0001) %MON trAdv_CFL_u_max              =   8.2059805630529E-02
(PID.TID 0000.0001) %MON trAdv_CFL_v_max              =   8.8598133318126E-02
(PID.TID 0000.0001) %MON trAdv_CFL_w_max              =   7.7062319563728E-02
(PID.TID 0000.0001) %MON advcfl_uvel_max              =   8.4001326343822E-02
(PID.TID 0000.0001) %MON advcfl_vvel_max              =   8.3382261986000E-02
(PID.TID 0000.0001) %MON advcfl_wvel_max              =   6.9653935191178E-02
(PID.TID 0000.0001) %MON advcfl_W_hf_max              =   7.7062319563728E-02
(PID.TID 0000.0001) %MON pe_b_mean                    =   1.4388713584942E-02
(PID.TID 0000.0001) %MON ke_max                       =   4.1793167808887E-02
(PID.TID 0000.0001) %MON ke_mean                      =   2.0845953849407E-04
(PID.TID 0000.0001) %MON ke_vol                       =   1.3386016457284E+18
(PID.TID 0000.0001) %MON vort_r_min                   =  -1.2311066207629E-06
(PID.TID 0000.0001) %MON vort_r_max                   =   1.2986356659373E-06
(PID.TID 0000.0001) %MON vort_a_mean                  =  -2.0549865324846E-05
(PID.TID 0000.0001) %MON vort_a_sd                    =   7.5259723668423E-05
(PID.TID 0000.0001) %MON vort_p_mean                  =  -2.4806339598239E-05
(PID.TID 0000.0001) %MON vort_p_sd                    =   1.2827603480111E-04
(PID.TID 0000.0001) %MON surfExpan_theta_mean         =   2.5716392559263E-08
(PID.TID 0000.0001) %MON surfExpan_salt_mean          =   1.1006187966389E-07
(PID.TID 0000.0001) // =======================================================
(PID.TID 0000.0001) // End MONITOR dynamic field statistics
(PID.TID 0000.0001) // =======================================================
(PID.TID 0000.0001) // =======================================================
(PID.TID 0000.0001) // Begin MONITOR SEAICE statistics
(PID.TID 0000.0001) // =======================================================
(PID.TID 0000.0001) %MON seaice_tsnumber              =                 72001
(PID.TID 0000.0001) %MON seaice_time_sec              =   6.2208864000000E+09
(PID.TID 0000.0001) %MON seaice_uice_max              =   4.0000000000000E-01
(PID.TID 0000.0001) %MON seaice_uice_min              =  -4.0000000000000E-01
(PID.TID 0000.0001) %MON seaice_uice_mean             =  -1.4634499218377E-02
(PID.TID 0000.0001) %MON seaice_uice_sd               =   1.4253329272489E-01
(PID.TID 0000.0001) %MON seaice_uice_del2             =   7.2742407146839E-04
(PID.TID 0000.0001) %MON seaice_vice_max              =   3.7309509524963E-01
(PID.TID 0000.0001) %MON seaice_vice_min              =  -4.0000000000000E-01
(PID.TID 0000.0001) %MON seaice_vice_mean             =  -3.7477548827354E-02
(PID.TID 0000.0001) %MON seaice_vice_sd               =   1.5648047049028E-01
(PID.TID 0000.0001) %MON seaice_vice_del2             =   7.0866812684509E-04
(PID.TID 0000.0001) %MON seaice_area_max              =   1.0000000000000E+00
(PID.TID 0000.0001) %MON seaice_area_min              =   0.0000000000000E+00
(PID.TID 0000.0001) %MON seaice_area_mean             =   4.0212824908588E-02
(PID.TID 0000.0001) %MON seaice_area_sd               =   1.8443227293750E-01
(PID.TID 0000.0001) %MON seaice_area_del2             =   1.6806090565726E-03
(PID.TID 0000.0001) %MON seaice_heff_max              =   5.1870108242973E+00
(PID.TID 0000.0001) %MON seaice_heff_min              =   0.0000000000000E+00
(PID.TID 0000.0001) %MON seaice_heff_mean             =   7.4976934522161E-02
(PID.TID 0000.0001) %MON seaice_heff_sd               =   3.8997000234202E-01
(PID.TID 0000.0001) %MON seaice_heff_del2             =   2.3122573953966E-03
(PID.TID 0000.0001) %MON seaice_hsnow_max             =   5.0439985670719E-03
(PID.TID 0000.0001) %MON seaice_hsnow_min             =   0.0000000000000E+00
(PID.TID 0000.0001) %MON seaice_hsnow_mean            =   8.4010922745971E-05
(PID.TID 0000.0001) %MON seaice_hsnow_sd              =   4.7234444427737E-04
(PID.TID 0000.0001) %MON seaice_hsnow_del2            =   5.4997593417980E-06
(PID.TID 0000.0001) // =======================================================
(PID.TID 0000.0001) // End MONITOR SEAICE statistics
(PID.TID 0000.0001) // =======================================================
 cg2d: Sum(rhs),rhsMax =   2.21288691532585E+03  2.05338887450157E+01
(PID.TID 0000.0001)      cg2d_init_res =   1.93897149942515E+01
(PID.TID 0000.0001)      cg2d_iters(min,last) =      -1      74
(PID.TID 0000.0001)      cg2d_last_res =   5.02071534743533E-07
(PID.TID 0000.0001) // =======================================================
(PID.TID 0000.0001) // Begin MONITOR dynamic field statistics
(PID.TID 0000.0001) // =======================================================
(PID.TID 0000.0001) %MON time_tsnumber                =                 72002
(PID.TID 0000.0001) %MON time_secondsf                =   6.2209728000000E+09
(PID.TID 0000.0001) %MON dynstat_eta_max              =  -2.2007713666433E+00
(PID.TID 0000.0001) %MON dynstat_eta_min              =  -8.5762334676037E+00
(PID.TID 0000.0001) %MON dynstat_eta_mean             =  -3.2913219317975E+00
(PID.TID 0000.0001) %MON dynstat_eta_sd               =   8.6160027499760E-01
(PID.TID 0000.0001) %MON dynstat_eta_del2             =   2.6964569275019E-03
(PID.TID 0000.0001) %MON dynstat_uvel_max             =   2.1337010866282E-01
(PID.TID 0000.0001) %MON dynstat_uvel_min             =  -2.9060033882354E-01
(PID.TID 0000.0001) %MON dynstat_uvel_mean            =  -5.2437581665972E-04
(PID.TID 0000.0001) %MON dynstat_uvel_sd              =   1.4785518994173E-02
(PID.TID 0000.0001) %MON dynstat_uvel_del2            =   6.8167811005768E-05
(PID.TID 0000.0001) %MON dynstat_vvel_max             =   2.2111446994215E-01
(PID.TID 0000.0001) %MON dynstat_vvel_min             =  -2.0075336376292E-01
(PID.TID 0000.0001) %MON dynstat_vvel_mean            =  -4.0006143098012E-04
(PID.TID 0000.0001) %MON dynstat_vvel_sd              =   1.5245768544515E-02
(PID.TID 0000.0001) %MON dynstat_vvel_del2            =   6.3150257803881E-05
(PID.TID 0000.0001) %MON dynstat_wvel_max             =   1.0217026480232E-04
(PID.TID 0000.0001) %MON dynstat_wvel_min             =  -2.1365825614761E-04
(PID.TID 0000.0001) %MON dynstat_wvel_mean            =  -1.1508423675590E-09
(PID.TID 0000.0001) %MON dynstat_wvel_sd              =   5.3828452470525E-06
(PID.TID 0000.0001) %MON dynstat_wvel_del2            =   4.9680137188634E-08
(PID.TID 0000.0001) %MON dynstat_theta_max            =   3.1188526493234E+01
(PID.TID 0000.0001) %MON dynstat_theta_min            =  -3.2443730957891E+00
(PID.TID 0000.0001) %MON dynstat_theta_mean           =   3.0532411639139E+00
(PID.TID 0000.0001) %MON dynstat_theta_sd             =   4.9952367083831E+00
(PID.TID 0000.0001) %MON dynstat_theta_del2           =   2.9305948470701E-03
(PID.TID 0000.0001) %MON dynstat_salt_max             =   5.8614957872614E+01
(PID.TID 0000.0001) %MON dynstat_salt_min             =   1.7775998853668E+01
(PID.TID 0000.0001) %MON dynstat_salt_mean            =   3.4752447925445E+01
(PID.TID 0000.0001) %MON dynstat_salt_sd              =   4.8899480800826E-01
(PID.TID 0000.0001) %MON dynstat_salt_del2            =   1.3285317286396E-03
(PID.TID 0000.0001) %MON forcing_qnet_max             =   5.9942992388167E+02
(PID.TID 0000.0001) %MON forcing_qnet_min             =  -4.8294755931298E+02
(PID.TID 0000.0001) %MON forcing_qnet_mean            =  -3.0309937355820E+01
(PID.TID 0000.0001) %MON forcing_qnet_sd              =   1.2117848765208E+02
(PID.TID 0000.0001) %MON forcing_qnet_del2            =   8.7426770670436E-01
(PID.TID 0000.0001) %MON forcing_qsw_max              =   0.0000000000000E+00
(PID.TID 0000.0001) %MON forcing_qsw_min              =  -3.0190327619373E+02
(PID.TID 0000.0001) %MON forcing_qsw_mean             =  -1.8424060482379E+02
(PID.TID 0000.0001) %MON forcing_qsw_sd               =   7.9756897958584E+01
(PID.TID 0000.0001) %MON forcing_qsw_del2             =   3.1467844789324E-01
(PID.TID 0000.0001) %MON forcing_empmr_max            =   2.1542705554051E-03
(PID.TID 0000.0001) %MON forcing_empmr_min            =  -7.1936790976433E-04
(PID.TID 0000.0001) %MON forcing_empmr_mean           =  -4.9655106336053E-07
(PID.TID 0000.0001) %MON forcing_empmr_sd             =   7.5696628258425E-05
(PID.TID 0000.0001) %MON forcing_empmr_del2           =   1.6277492218020E-06
(PID.TID 0000.0001) %MON forcing_fu_max               =   2.4755808644372E-01
(PID.TID 0000.0001) %MON forcing_fu_min               =  -2.8135548209752E-01
(PID.TID 0000.0001) %MON forcing_fu_mean              =  -4.7985377760271E-03
(PID.TID 0000.0001) %MON forcing_fu_sd                =   6.5257923077172E-02
(PID.TID 0000.0001) %MON forcing_fu_del2              =   2.4206216124403E-04
(PID.TID 0000.0001) %MON forcing_fv_max               =   2.5549422200851E-01
(PID.TID 0000.0001) %MON forcing_fv_min               =  -3.2770782795392E-01
(PID.TID 0000.0001) %MON forcing_fv_mean              =  -1.3290510776198E-02
(PID.TID 0000.0001) %MON forcing_fv_sd                =   7.6027175342336E-02
(PID.TID 0000.0001) %MON forcing_fv_del2              =   2.5708139946827E-04
(PID.TID 0000.0001) %MON trAdv_CFL_u_max              =   8.1957585132581E-02
(PID.TID 0000.0001) %MON trAdv_CFL_v_max              =   8.8678544287868E-02
(PID.TID 0000.0001) %MON trAdv_CFL_w_max              =   7.7069843788038E-02
(PID.TID 0000.0001) %MON advcfl_uvel_max              =   8.4085498266237E-02
(PID.TID 0000.0001) %MON advcfl_vvel_max              =   8.3457805473161E-02
(PID.TID 0000.0001) %MON advcfl_wvel_max              =   6.9660654079826E-02
(PID.TID 0000.0001) %MON advcfl_W_hf_max              =   7.7069843788038E-02
(PID.TID 0000.0001) %MON pe_b_mean                    =   1.4383159917241E-02
(PID.TID 0000.0001) %MON ke_max                       =   4.1665634402893E-02
(PID.TID 0000.0001) %MON ke_mean                      =   2.0846095673709E-04
(PID.TID 0000.0001) %MON ke_vol                       =   1.3386047618794E+18
(PID.TID 0000.0001) %MON vort_r_min                   =  -1.2362813387393E-06
(PID.TID 0000.0001) %MON vort_r_max                   =   1.2969164158934E-06
(PID.TID 0000.0001) %MON vort_a_mean                  =  -2.0549865324846E-05
(PID.TID 0000.0001) %MON vort_a_sd                    =   7.5259723706712E-05
(PID.TID 0000.0001) %MON vort_p_mean                  =  -2.4806281848356E-05
(PID.TID 0000.0001) %MON vort_p_sd                    =   1.2827526423379E-04
(PID.TID 0000.0001) %MON surfExpan_theta_mean         =  -4.6417524624967E-08
(PID.TID 0000.0001) %MON surfExpan_salt_mean          =   1.2127520359637E-08
(PID.TID 0000.0001) // =======================================================
(PID.TID 0000.0001) // End MONITOR dynamic field statistics
(PID.TID 0000.0001) // =======================================================
(PID.TID 0000.0001) // =======================================================
(PID.TID 0000.0001) // Begin MONITOR SEAICE statistics
(PID.TID 0000.0001) // =======================================================
(PID.TID 0000.0001) %MON seaice_tsnumber              =                 72002
(PID.TID 0000.0001) %MON seaice_time_sec              =   6.2209728000000E+09
(PID.TID 0000.0001) %MON seaice_uice_max              =   4.0000000000000E-01
(PID.TID 0000.0001) %MON seaice_uice_min              =  -4.0000000000000E-01
(PID.TID 0000.0001) %MON seaice_uice_mean             =  -1.4591043968977E-02
(PID.TID 0000.0001) %MON seaice_uice_sd               =   1.4244646068083E-01
(PID.TID 0000.0001) %MON seaice_uice_del2             =   7.2669291226024E-04
(PID.TID 0000.0001) %MON seaice_vice_max              =   3.6864375394289E-01
(PID.TID 0000.0001) %MON seaice_vice_min              =  -4.0000000000000E-01
(PID.TID 0000.0001) %MON seaice_vice_mean             =  -3.7487113513668E-02
(PID.TID 0000.0001) %MON seaice_vice_sd               =   1.5668670334181E-01
(PID.TID 0000.0001) %MON seaice_vice_del2             =   7.0926495384832E-04
(PID.TID 0000.0001) %MON seaice_area_max              =   1.0000000000000E+00
(PID.TID 0000.0001) %MON seaice_area_min              =   0.0000000000000E+00
(PID.TID 0000.0001) %MON seaice_area_mean             =   4.0651684872307E-02
(PID.TID 0000.0001) %MON seaice_area_sd               =   1.8679037190584E-01
(PID.TID 0000.0001) %MON seaice_area_del2             =   1.6806855566778E-03
(PID.TID 0000.0001) %MON seaice_heff_max              =   5.1925956726835E+00
(PID.TID 0000.0001) %MON seaice_heff_min              =   0.0000000000000E+00
(PID.TID 0000.0001) %MON seaice_heff_mean             =   7.5314952196519E-02
(PID.TID 0000.0001) %MON seaice_heff_sd               =   3.9147088768827E-01
(PID.TID 0000.0001) %MON seaice_heff_del2             =   2.3043985769177E-03
(PID.TID 0000.0001) %MON seaice_hsnow_max             =   9.9155277920439E-03
(PID.TID 0000.0001) %MON seaice_hsnow_min             =  -1.3552527156069E-20
(PID.TID 0000.0001) %MON seaice_hsnow_mean            =   1.6737619451598E-04
(PID.TID 0000.0001) %MON seaice_hsnow_sd              =   9.4136126510515E-04
(PID.TID 0000.0001) %MON seaice_hsnow_del2            =   1.1084283977723E-05
(PID.TID 0000.0001) // =======================================================
(PID.TID 0000.0001) // End MONITOR SEAICE statistics
(PID.TID 0000.0001) // =======================================================
 cg2d: Sum(rhs),rhsMax =   2.21267837812514E+03  2.07023141342097E+01
(PID.TID 0000.0001)      cg2d_init_res =   1.99828263490356E+01
(PID.TID 0000.0001)      cg2d_iters(min,last) =      -1      74
(PID.TID 0000.0001)      cg2d_last_res =   5.01434912457396E-07
(PID.TID 0000.0001) // =======================================================
(PID.TID 0000.0001) // Begin MONITOR dynamic field statistics
(PID.TID 0000.0001) // =======================================================
(PID.TID 0000.0001) %MON time_tsnumber                =                 72003
(PID.TID 0000.0001) %MON time_secondsf                =   6.2210592000000E+09
(PID.TID 0000.0001) %MON dynstat_eta_max              =  -2.2021281495706E+00
(PID.TID 0000.0001) %MON dynstat_eta_min              =  -8.6118495829862E+00
(PID.TID 0000.0001) %MON dynstat_eta_mean             =  -3.2910117654453E+00
(PID.TID 0000.0001) %MON dynstat_eta_sd               =   8.6053608510151E-01
(PID.TID 0000.0001) %MON dynstat_eta_del2             =   2.6804936643565E-03
(PID.TID 0000.0001) %MON dynstat_uvel_max             =   2.1354838547505E-01
(PID.TID 0000.0001) %MON dynstat_uvel_min             =  -2.9020999484835E-01
(PID.TID 0000.0001) %MON dynstat_uvel_mean            =  -5.2309606754691E-04
(PID.TID 0000.0001) %MON dynstat_uvel_sd              =   1.4784134667448E-02
(PID.TID 0000.0001) %MON dynstat_uvel_del2            =   6.8122386152295E-05
(PID.TID 0000.0001) %MON dynstat_vvel_max             =   2.2057778327655E-01
(PID.TID 0000.0001) %MON dynstat_vvel_min             =  -2.0081299898872E-01
(PID.TID 0000.0001) %MON dynstat_vvel_mean            =  -3.9846396589044E-04
(PID.TID 0000.0001) %MON dynstat_vvel_sd              =   1.5249022480527E-02
(PID.TID 0000.0001) %MON dynstat_vvel_del2            =   6.3079543297569E-05
(PID.TID 0000.0001) %MON dynstat_wvel_max             =   1.0280222758645E-04
(PID.TID 0000.0001) %MON dynstat_wvel_min             =  -2.1357230796817E-04
(PID.TID 0000.0001) %MON dynstat_wvel_mean            =  -2.3277153788473E-09
(PID.TID 0000.0001) %MON dynstat_wvel_sd              =   5.4078791325123E-06
(PID.TID 0000.0001) %MON dynstat_wvel_del2            =   4.9997929330438E-08
(PID.TID 0000.0001) %MON dynstat_theta_max            =   3.1186977755002E+01
(PID.TID 0000.0001) %MON dynstat_theta_min            =  -3.2805307086349E+00
(PID.TID 0000.0001) %MON dynstat_theta_mean           =   3.0534091862812E+00
(PID.TID 0000.0001) %MON dynstat_theta_sd             =   4.9955441406232E+00
(PID.TID 0000.0001) %MON dynstat_theta_del2           =   2.9171030957156E-03
(PID.TID 0000.0001) %MON dynstat_salt_max             =   5.8576977401247E+01
(PID.TID 0000.0001) %MON dynstat_salt_min             =   1.7776185379133E+01
(PID.TID 0000.0001) %MON dynstat_salt_mean            =   3.4752444577316E+01
(PID.TID 0000.0001) %MON dynstat_salt_sd              =   4.8892553845027E-01
(PID.TID 0000.0001) %MON dynstat_salt_del2            =   1.3201452801957E-03
(PID.TID 0000.0001) %MON forcing_qnet_max             =   6.0105415845261E+02
(PID.TID 0000.0001) %MON forcing_qnet_min             =  -2.6530867923013E+02
(PID.TID 0000.0001) %MON forcing_qnet_mean            =  -2.9318225615959E+01
(PID.TID 0000.0001) %MON forcing_qnet_sd              =   1.2058844960619E+02
(PID.TID 0000.0001) %MON forcing_qnet_del2            =   9.0081456911378E-01
(PID.TID 0000.0001) %MON forcing_qsw_max              =   0.0000000000000E+00
(PID.TID 0000.0001) %MON forcing_qsw_min              =  -3.0189127925792E+02
(PID.TID 0000.0001) %MON forcing_qsw_mean             =  -1.8430406174556E+02
(PID.TID 0000.0001) %MON forcing_qsw_sd               =   7.9672667862354E+01
(PID.TID 0000.0001) %MON forcing_qsw_del2             =   3.0619142664450E-01
(PID.TID 0000.0001) %MON forcing_empmr_max            =   9.2755221454401E-04
(PID.TID 0000.0001) %MON forcing_empmr_min            =  -7.7868531935883E-04
(PID.TID 0000.0001) %MON forcing_empmr_mean           =  -3.7155344269352E-06
(PID.TID 0000.0001) %MON forcing_empmr_sd             =   6.5532237548864E-05
(PID.TID 0000.0001) %MON forcing_empmr_del2           =   1.6109075384468E-06
(PID.TID 0000.0001) %MON forcing_fu_max               =   2.4751003717351E-01
(PID.TID 0000.0001) %MON forcing_fu_min               =  -2.8699038636193E-01
(PID.TID 0000.0001) %MON forcing_fu_mean              =  -4.7313172058743E-03
(PID.TID 0000.0001) %MON forcing_fu_sd                =   6.5314710327687E-02
(PID.TID 0000.0001) %MON forcing_fu_del2              =   2.4510348289822E-04
(PID.TID 0000.0001) %MON forcing_fv_max               =   2.5817746358114E-01
(PID.TID 0000.0001) %MON forcing_fv_min               =  -3.2849573188785E-01
(PID.TID 0000.0001) %MON forcing_fv_mean              =  -1.3332608373845E-02
(PID.TID 0000.0001) %MON forcing_fv_sd                =   7.6027917661630E-02
(PID.TID 0000.0001) %MON forcing_fv_del2              =   2.5642461229621E-04
(PID.TID 0000.0001) %MON trAdv_CFL_u_max              =   8.1847506703615E-02
(PID.TID 0000.0001) %MON trAdv_CFL_v_max              =   8.8755899074062E-02
(PID.TID 0000.0001) %MON trAdv_CFL_w_max              =   7.7038872300169E-02
(PID.TID 0000.0001) %MON advcfl_uvel_max              =   8.4186033219447E-02
(PID.TID 0000.0001) %MON advcfl_vvel_max              =   8.3530633679875E-02
(PID.TID 0000.0001) %MON advcfl_wvel_max              =   6.9632631729999E-02
(PID.TID 0000.0001) %MON advcfl_W_hf_max              =   7.7038872300169E-02
(PID.TID 0000.0001) %MON pe_b_mean                    =   1.4377846989150E-02
(PID.TID 0000.0001) %MON ke_max                       =   4.1535623023121E-02
(PID.TID 0000.0001) %MON ke_mean                      =   2.0848697419662E-04
(PID.TID 0000.0001) %MON ke_vol                       =   1.3386047769629E+18
(PID.TID 0000.0001) %MON vort_r_min                   =  -1.2417645018380E-06
(PID.TID 0000.0001) %MON vort_r_max                   =   1.2952326959866E-06
(PID.TID 0000.0001) %MON vort_a_mean                  =  -2.0549865324846E-05
(PID.TID 0000.0001) %MON vort_a_sd                    =   7.5259723788488E-05
(PID.TID 0000.0001) %MON vort_p_mean                  =  -2.4806281024994E-05
(PID.TID 0000.0001) %MON vort_p_sd                    =   1.2827527461272E-04
(PID.TID 0000.0001) %MON surfExpan_theta_mean         =  -5.4372146627136E-08
(PID.TID 0000.0001) %MON surfExpan_salt_mean          =   1.5357705712219E-08
(PID.TID 0000.0001) // =======================================================
(PID.TID 0000.0001) // End MONITOR dynamic field statistics
(PID.TID 0000.0001) // =======================================================
(PID.TID 0000.0001) // =======================================================
(PID.TID 0000.0001) // Begin MONITOR SEAICE statistics
(PID.TID 0000.0001) // =======================================================
(PID.TID 0000.0001) %MON seaice_tsnumber              =                 72003
(PID.TID 0000.0001) %MON seaice_time_sec              =   6.2210592000000E+09
(PID.TID 0000.0001) %MON seaice_uice_max              =   4.0000000000000E-01
(PID.TID 0000.0001) %MON seaice_uice_min              =  -4.0000000000000E-01
(PID.TID 0000.0001) %MON seaice_uice_mean             =  -1.4513728230170E-02
(PID.TID 0000.0001) %MON seaice_uice_sd               =   1.4236740469986E-01
(PID.TID 0000.0001) %MON seaice_uice_del2             =   7.2715949824249E-04
(PID.TID 0000.0001) %MON seaice_vice_max              =   3.6446055641825E-01
(PID.TID 0000.0001) %MON seaice_vice_min              =  -4.0000000000000E-01
(PID.TID 0000.0001) %MON seaice_vice_mean             =  -3.7528843802793E-02
(PID.TID 0000.0001) %MON seaice_vice_sd               =   1.5680190433079E-01
(PID.TID 0000.0001) %MON seaice_vice_del2             =   7.0819048914632E-04
(PID.TID 0000.0001) %MON seaice_area_max              =   1.0000000000000E+00
(PID.TID 0000.0001) %MON seaice_area_min              =   0.0000000000000E+00
(PID.TID 0000.0001) %MON seaice_area_mean             =   4.0738929890603E-02
(PID.TID 0000.0001) %MON seaice_area_sd               =   1.8831143793676E-01
(PID.TID 0000.0001) %MON seaice_area_del2             =   1.6490095595063E-03
(PID.TID 0000.0001) %MON seaice_heff_max              =   5.1961666235419E+00
(PID.TID 0000.0001) %MON seaice_heff_min              =   0.0000000000000E+00
(PID.TID 0000.0001) %MON seaice_heff_mean             =   7.5345021464187E-02
(PID.TID 0000.0001) %MON seaice_heff_sd               =   3.9251732383281E-01
(PID.TID 0000.0001) %MON seaice_heff_del2             =   2.2888273922832E-03
(PID.TID 0000.0001) %MON seaice_hsnow_max             =   1.4851083638321E-02
(PID.TID 0000.0001) %MON seaice_hsnow_min             =   0.0000000000000E+00
(PID.TID 0000.0001) %MON seaice_hsnow_mean            =   2.5232546753671E-04
(PID.TID 0000.0001) %MON seaice_hsnow_sd              =   1.4192085154291E-03
(PID.TID 0000.0001) %MON seaice_hsnow_del2            =   1.6924883878083E-05
(PID.TID 0000.0001) // =======================================================
(PID.TID 0000.0001) // End MONITOR SEAICE statistics
(PID.TID 0000.0001) // =======================================================
 cg2d: Sum(rhs),rhsMax =   2.21246317513830E+03  2.08570978418044E+01
(PID.TID 0000.0001)      cg2d_init_res =   1.94869352190090E+01
(PID.TID 0000.0001)      cg2d_iters(min,last) =      -1      74
(PID.TID 0000.0001)      cg2d_last_res =   4.45338798376874E-07
(PID.TID 0000.0001) // =======================================================
(PID.TID 0000.0001) // Begin MONITOR dynamic field statistics
(PID.TID 0000.0001) // =======================================================
(PID.TID 0000.0001) %MON time_tsnumber                =                 72004
(PID.TID 0000.0001) %MON time_secondsf                =   6.2211456000000E+09
(PID.TID 0000.0001) %MON dynstat_eta_max              =  -2.2035630787326E+00
(PID.TID 0000.0001) %MON dynstat_eta_min              =  -8.6096622284101E+00
(PID.TID 0000.0001) %MON dynstat_eta_mean             =  -3.2906916847826E+00
(PID.TID 0000.0001) %MON dynstat_eta_sd               =   8.5956772768954E-01
(PID.TID 0000.0001) %MON dynstat_eta_del2             =   2.6727668655344E-03
(PID.TID 0000.0001) %MON dynstat_uvel_max             =   2.1368118390098E-01
(PID.TID 0000.0001) %MON dynstat_uvel_min             =  -2.8979589936015E-01
(PID.TID 0000.0001) %MON dynstat_uvel_mean            =  -5.2231458508175E-04
(PID.TID 0000.0001) %MON dynstat_uvel_sd              =   1.4782945896036E-02
(PID.TID 0000.0001) %MON dynstat_uvel_del2            =   6.8076417962908E-05
(PID.TID 0000.0001) %MON dynstat_vvel_max             =   2.1997174622158E-01
(PID.TID 0000.0001) %MON dynstat_vvel_min             =  -2.0086794851887E-01
(PID.TID 0000.0001) %MON dynstat_vvel_mean            =  -3.9646836912819E-04
(PID.TID 0000.0001) %MON dynstat_vvel_sd              =   1.5252840679305E-02
(PID.TID 0000.0001) %MON dynstat_vvel_del2            =   6.3011345865336E-05
(PID.TID 0000.0001) %MON dynstat_wvel_max             =   1.0354260291864E-04
(PID.TID 0000.0001) %MON dynstat_wvel_min             =  -2.1350628771485E-04
(PID.TID 0000.0001) %MON dynstat_wvel_mean            =  -2.1796812182414E-09
(PID.TID 0000.0001) %MON dynstat_wvel_sd              =   5.4405650500301E-06
(PID.TID 0000.0001) %MON dynstat_wvel_del2            =   5.0377942318679E-08
(PID.TID 0000.0001) %MON dynstat_theta_max            =   3.1184963125325E+01
(PID.TID 0000.0001) %MON dynstat_theta_min            =  -3.2738850703196E+00
(PID.TID 0000.0001) %MON dynstat_theta_mean           =   3.0535766512487E+00
(PID.TID 0000.0001) %MON dynstat_theta_sd             =   4.9958557224165E+00
(PID.TID 0000.0001) %MON dynstat_theta_del2           =   2.9004444511523E-03
(PID.TID 0000.0001) %MON dynstat_salt_max             =   5.8556736074829E+01
(PID.TID 0000.0001) %MON dynstat_salt_min             =   1.7776356929047E+01
(PID.TID 0000.0001) %MON dynstat_salt_mean            =   3.4752441556116E+01
(PID.TID 0000.0001) %MON dynstat_salt_sd              =   4.8887151660135E-01
(PID.TID 0000.0001) %MON dynstat_salt_del2            =   1.3122311936917E-03
(PID.TID 0000.0001) %MON forcing_qnet_max             =   6.0077507779570E+02
(PID.TID 0000.0001) %MON forcing_qnet_min             =  -2.6340469617419E+02
(PID.TID 0000.0001) %MON forcing_qnet_mean            =  -2.9314551977569E+01
(PID.TID 0000.0001) %MON forcing_qnet_sd              =   1.2051229246979E+02
(PID.TID 0000.0001) %MON forcing_qnet_del2            =   8.8876290745555E-01
(PID.TID 0000.0001) %MON forcing_qsw_max              =   0.0000000000000E+00
(PID.TID 0000.0001) %MON forcing_qsw_min              =  -3.0187928232211E+02
(PID.TID 0000.0001) %MON forcing_qsw_mean             =  -1.8440449974892E+02
(PID.TID 0000.0001) %MON forcing_qsw_sd               =   7.9568626513886E+01
(PID.TID 0000.0001) %MON forcing_qsw_del2             =   2.8975599907754E-01
(PID.TID 0000.0001) %MON forcing_empmr_max            =   7.4694754939433E-04
(PID.TID 0000.0001) %MON forcing_empmr_min            =  -8.4190473554295E-04
(PID.TID 0000.0001) %MON forcing_empmr_mean           =  -3.8342996053856E-06
(PID.TID 0000.0001) %MON forcing_empmr_sd             =   6.3017564922603E-05
(PID.TID 0000.0001) %MON forcing_empmr_del2           =   1.5976211303680E-06
(PID.TID 0000.0001) %MON forcing_fu_max               =   2.4746198790331E-01
(PID.TID 0000.0001) %MON forcing_fu_min               =  -2.9119009965013E-01
(PID.TID 0000.0001) %MON forcing_fu_mean              =  -4.6851919479043E-03
(PID.TID 0000.0001) %MON forcing_fu_sd                =   6.5355647207279E-02
(PID.TID 0000.0001) %MON forcing_fu_del2              =   2.4820388319515E-04
(PID.TID 0000.0001) %MON forcing_fv_max               =   2.6086070515377E-01
(PID.TID 0000.0001) %MON forcing_fv_min               =  -3.2928363582178E-01
(PID.TID 0000.0001) %MON forcing_fv_mean              =  -1.3351378942100E-02
(PID.TID 0000.0001) %MON forcing_fv_sd                =   7.6058359424884E-02
(PID.TID 0000.0001) %MON forcing_fv_del2              =   2.5605565726385E-04
(PID.TID 0000.0001) %MON trAdv_CFL_u_max              =   8.1730726919033E-02
(PID.TID 0000.0001) %MON trAdv_CFL_v_max              =   8.8825192663654E-02
(PID.TID 0000.0001) %MON trAdv_CFL_w_max              =   7.7015128972140E-02
(PID.TID 0000.0001) %MON advcfl_uvel_max              =   8.4298422241869E-02
(PID.TID 0000.0001) %MON advcfl_vvel_max              =   8.3595893855509E-02
(PID.TID 0000.0001) %MON advcfl_wvel_max              =   6.9611106636087E-02
(PID.TID 0000.0001) %MON advcfl_W_hf_max              =   7.7015128972140E-02
(PID.TID 0000.0001) %MON pe_b_mean                    =   1.4372846064807E-02
(PID.TID 0000.0001) %MON ke_max                       =   4.1404137602107E-02
(PID.TID 0000.0001) %MON ke_mean                      =   2.0852374271380E-04
(PID.TID 0000.0001) %MON ke_vol                       =   1.3386048898283E+18
(PID.TID 0000.0001) %MON vort_r_min                   =  -1.2474735091597E-06
(PID.TID 0000.0001) %MON vort_r_max                   =   1.2934720426870E-06
(PID.TID 0000.0001) %MON vort_a_mean                  =  -2.0549865324846E-05
(PID.TID 0000.0001) %MON vort_a_sd                    =   7.5259723787754E-05
(PID.TID 0000.0001) %MON vort_p_mean                  =  -2.4806278659387E-05
(PID.TID 0000.0001) %MON vort_p_sd                    =   1.2827525505765E-04
(PID.TID 0000.0001) %MON surfExpan_theta_mean         =  -5.6074947776631E-08
(PID.TID 0000.0001) %MON surfExpan_salt_mean          =   1.6712794100695E-08
(PID.TID 0000.0001) // =======================================================
(PID.TID 0000.0001) // End MONITOR dynamic field statistics
(PID.TID 0000.0001) // =======================================================
(PID.TID 0000.0001) // =======================================================
(PID.TID 0000.0001) // Begin MONITOR SEAICE statistics
(PID.TID 0000.0001) // =======================================================
(PID.TID 0000.0001) %MON seaice_tsnumber              =                 72004
(PID.TID 0000.0001) %MON seaice_time_sec              =   6.2211456000000E+09
(PID.TID 0000.0001) %MON seaice_uice_max              =   4.0000000000000E-01
(PID.TID 0000.0001) %MON seaice_uice_min              =  -4.0000000000000E-01
(PID.TID 0000.0001) %MON seaice_uice_mean             =  -1.4453050539880E-02
(PID.TID 0000.0001) %MON seaice_uice_sd               =   1.4227954186784E-01
(PID.TID 0000.0001) %MON seaice_uice_del2             =   7.2792194328602E-04
(PID.TID 0000.0001) %MON seaice_vice_max              =   3.6544363693798E-01
(PID.TID 0000.0001) %MON seaice_vice_min              =  -4.0000000000000E-01
(PID.TID 0000.0001) %MON seaice_vice_mean             =  -3.7550018969096E-02
(PID.TID 0000.0001) %MON seaice_vice_sd               =   1.5695062351539E-01
(PID.TID 0000.0001) %MON seaice_vice_del2             =   7.0805881451991E-04
(PID.TID 0000.0001) %MON seaice_area_max              =   1.0000000000000E+00
(PID.TID 0000.0001) %MON seaice_area_min              =   0.0000000000000E+00
(PID.TID 0000.0001) %MON seaice_area_mean             =   4.0868342085298E-02
(PID.TID 0000.0001) %MON seaice_area_sd               =   1.8950141666119E-01
(PID.TID 0000.0001) %MON seaice_area_del2             =   1.6363818509233E-03
(PID.TID 0000.0001) %MON seaice_heff_max              =   5.1998988830216E+00
(PID.TID 0000.0001) %MON seaice_heff_min              =   0.0000000000000E+00
(PID.TID 0000.0001) %MON seaice_heff_mean             =   7.5361079929734E-02
(PID.TID 0000.0001) %MON seaice_heff_sd               =   3.9347427134964E-01
(PID.TID 0000.0001) %MON seaice_heff_del2             =   2.2821554434033E-03
(PID.TID 0000.0001) %MON seaice_hsnow_max             =   1.9828777977340E-02
(PID.TID 0000.0001) %MON seaice_hsnow_min             =  -1.3234889800848E-23
(PID.TID 0000.0001) %MON seaice_hsnow_mean            =   3.3835753596757E-04
(PID.TID 0000.0001) %MON seaice_hsnow_sd              =   1.9032964038376E-03
(PID.TID 0000.0001) %MON seaice_hsnow_del2            =   2.2907048069551E-05
(PID.TID 0000.0001) // =======================================================
(PID.TID 0000.0001) // End MONITOR SEAICE statistics
(PID.TID 0000.0001) // =======================================================
 cg2d: Sum(rhs),rhsMax =   2.21223975192002E+03  2.09779531432272E+01
(PID.TID 0000.0001)      cg2d_init_res =   1.91536677558124E+01
(PID.TID 0000.0001)      cg2d_iters(min,last) =      -1      73
(PID.TID 0000.0001)      cg2d_last_res =   5.66119804031216E-07
(PID.TID 0000.0001) // =======================================================
(PID.TID 0000.0001) // Begin MONITOR dynamic field statistics
(PID.TID 0000.0001) // =======================================================
(PID.TID 0000.0001) %MON time_tsnumber                =                 72005
(PID.TID 0000.0001) %MON time_secondsf                =   6.2212320000000E+09
(PID.TID 0000.0001) %MON dynstat_eta_max              =  -2.2050739032648E+00
(PID.TID 0000.0001) %MON dynstat_eta_min              =  -8.5940871115761E+00
(PID.TID 0000.0001) %MON dynstat_eta_mean             =  -3.2903593778159E+00
(PID.TID 0000.0001) %MON dynstat_eta_sd               =   8.5870427329652E-01
(PID.TID 0000.0001) %MON dynstat_eta_del2             =   2.6739101033923E-03
(PID.TID 0000.0001) %MON dynstat_uvel_max             =   2.1376202180006E-01
(PID.TID 0000.0001) %MON dynstat_uvel_min             =  -2.8935970094552E-01
(PID.TID 0000.0001) %MON dynstat_uvel_mean            =  -5.2187482387537E-04
(PID.TID 0000.0001) %MON dynstat_uvel_sd              =   1.4782028949780E-02
(PID.TID 0000.0001) %MON dynstat_uvel_del2            =   6.8029697150571E-05
(PID.TID 0000.0001) %MON dynstat_vvel_max             =   2.1930506358143E-01
(PID.TID 0000.0001) %MON dynstat_vvel_min             =  -2.0091759577001E-01
(PID.TID 0000.0001) %MON dynstat_vvel_mean            =  -3.9436946469949E-04
(PID.TID 0000.0001) %MON dynstat_vvel_sd              =   1.5257065519435E-02
(PID.TID 0000.0001) %MON dynstat_vvel_del2            =   6.2945097983160E-05
(PID.TID 0000.0001) %MON dynstat_wvel_max             =   1.0437707610136E-04
(PID.TID 0000.0001) %MON dynstat_wvel_min             =  -2.1351681103206E-04
(PID.TID 0000.0001) %MON dynstat_wvel_mean            =  -2.0089672669749E-09
(PID.TID 0000.0001) %MON dynstat_wvel_sd              =   5.4773196321516E-06
(PID.TID 0000.0001) %MON dynstat_wvel_del2            =   5.0758079400846E-08
(PID.TID 0000.0001) %MON dynstat_theta_max            =   3.1182496156587E+01
(PID.TID 0000.0001) %MON dynstat_theta_min            =  -3.2733232136081E+00
(PID.TID 0000.0001) %MON dynstat_theta_mean           =   3.0537436982966E+00
(PID.TID 0000.0001) %MON dynstat_theta_sd             =   4.9961704520401E+00
(PID.TID 0000.0001) %MON dynstat_theta_del2           =   2.8842928116088E-03
(PID.TID 0000.0001) %MON dynstat_salt_max             =   5.8523488012886E+01
(PID.TID 0000.0001) %MON dynstat_salt_min             =   1.7776513697395E+01
(PID.TID 0000.0001) %MON dynstat_salt_mean            =   3.4752438364543E+01
(PID.TID 0000.0001) %MON dynstat_salt_sd              =   4.8881562963354E-01
(PID.TID 0000.0001) %MON dynstat_salt_del2            =   1.3044944073479E-03
(PID.TID 0000.0001) %MON forcing_qnet_max             =   6.0050530527319E+02
(PID.TID 0000.0001) %MON forcing_qnet_min             =  -2.5948184513890E+02
(PID.TID 0000.0001) %MON forcing_qnet_mean            =  -2.9252126191021E+01
(PID.TID 0000.0001) %MON forcing_qnet_sd              =   1.2035370212374E+02
(PID.TID 0000.0001) %MON forcing_qnet_del2            =   8.7923119711325E-01
(PID.TID 0000.0001) %MON forcing_qsw_max              =   0.0000000000000E+00
(PID.TID 0000.0001) %MON forcing_qsw_min              =  -3.0186728538630E+02
(PID.TID 0000.0001) %MON forcing_qsw_mean             =  -1.8446741679160E+02
(PID.TID 0000.0001) %MON forcing_qsw_sd               =   7.9460939119536E+01
(PID.TID 0000.0001) %MON forcing_qsw_del2             =   2.7824748149571E-01
(PID.TID 0000.0001) %MON forcing_empmr_max            =   6.1064476328883E-04
(PID.TID 0000.0001) %MON forcing_empmr_min            =  -8.9426625881858E-04
(PID.TID 0000.0001) %MON forcing_empmr_mean           =  -3.9807605382412E-06
(PID.TID 0000.0001) %MON forcing_empmr_sd             =   6.0946766052594E-05
(PID.TID 0000.0001) %MON forcing_empmr_del2           =   1.5826137519257E-06
(PID.TID 0000.0001) %MON forcing_fu_max               =   2.4741393863310E-01
(PID.TID 0000.0001) %MON forcing_fu_min               =  -2.9320362398079E-01
(PID.TID 0000.0001) %MON forcing_fu_mean              =  -4.6426930819591E-03
(PID.TID 0000.0001) %MON forcing_fu_sd                =   6.5389625453219E-02
(PID.TID 0000.0001) %MON forcing_fu_del2              =   2.4930834547979E-04
(PID.TID 0000.0001) %MON forcing_fv_max               =   2.6354394672640E-01
(PID.TID 0000.0001) %MON forcing_fv_min               =  -3.3007153975572E-01
(PID.TID 0000.0001) %MON forcing_fv_mean              =  -1.3365880428828E-02
(PID.TID 0000.0001) %MON forcing_fv_sd                =   7.6105970064192E-02
(PID.TID 0000.0001) %MON forcing_fv_del2              =   2.5651994459631E-04
(PID.TID 0000.0001) %MON trAdv_CFL_u_max              =   8.1607712168749E-02
(PID.TID 0000.0001) %MON trAdv_CFL_v_max              =   8.8886226113193E-02
(PID.TID 0000.0001) %MON trAdv_CFL_w_max              =   7.7018974095336E-02
(PID.TID 0000.0001) %MON advcfl_uvel_max              =   8.4419998372011E-02
(PID.TID 0000.0001) %MON advcfl_vvel_max              =   8.3653383419874E-02
(PID.TID 0000.0001) %MON advcfl_wvel_max              =   6.9614537634603E-02
(PID.TID 0000.0001) %MON advcfl_W_hf_max              =   7.7018974095336E-02
(PID.TID 0000.0001) %MON pe_b_mean                    =   1.4368146647055E-02
(PID.TID 0000.0001) %MON ke_max                       =   4.1271416531572E-02
(PID.TID 0000.0001) %MON ke_mean                      =   2.0857010774094E-04
(PID.TID 0000.0001) %MON ke_vol                       =   1.3386050063014E+18
(PID.TID 0000.0001) %MON vort_r_min                   =  -1.2533723092781E-06
(PID.TID 0000.0001) %MON vort_r_max                   =   1.2917618863245E-06
(PID.TID 0000.0001) %MON vort_a_mean                  =  -2.0549865324846E-05
(PID.TID 0000.0001) %MON vort_a_sd                    =   7.5259723671590E-05
(PID.TID 0000.0001) %MON vort_p_mean                  =  -2.4806276227935E-05
(PID.TID 0000.0001) %MON vort_p_sd                    =   1.2827524284651E-04
(PID.TID 0000.0001) %MON surfExpan_theta_mean         =  -5.6067411324443E-08
(PID.TID 0000.0001) %MON surfExpan_salt_mean          =   1.8352840884095E-08
(PID.TID 0000.0001) // =======================================================
(PID.TID 0000.0001) // End MONITOR dynamic field statistics
(PID.TID 0000.0001) // =======================================================
(PID.TID 0000.0001) // =======================================================
(PID.TID 0000.0001) // Begin MONITOR SEAICE statistics
(PID.TID 0000.0001) // =======================================================
(PID.TID 0000.0001) %MON seaice_tsnumber              =                 72005
(PID.TID 0000.0001) %MON seaice_time_sec              =   6.2212320000000E+09
(PID.TID 0000.0001) %MON seaice_uice_max              =   4.0000000000000E-01
(PID.TID 0000.0001) %MON seaice_uice_min              =  -4.0000000000000E-01
(PID.TID 0000.0001) %MON seaice_uice_mean             =  -1.4378950938756E-02
(PID.TID 0000.0001) %MON seaice_uice_sd               =   1.4219181831325E-01
(PID.TID 0000.0001) %MON seaice_uice_del2             =   7.2851173217047E-04
(PID.TID 0000.0001) %MON seaice_vice_max              =   3.6805967043590E-01
(PID.TID 0000.0001) %MON seaice_vice_min              =  -4.0000000000000E-01
(PID.TID 0000.0001) %MON seaice_vice_mean             =  -3.7569687325546E-02
(PID.TID 0000.0001) %MON seaice_vice_sd               =   1.5710653831385E-01
(PID.TID 0000.0001) %MON seaice_vice_del2             =   7.0873741511559E-04
(PID.TID 0000.0001) %MON seaice_area_max              =   1.0000000000000E+00
(PID.TID 0000.0001) %MON seaice_area_min              =   0.0000000000000E+00
(PID.TID 0000.0001) %MON seaice_area_mean             =   4.0876426863609E-02
(PID.TID 0000.0001) %MON seaice_area_sd               =   1.9035164742882E-01
(PID.TID 0000.0001) %MON seaice_area_del2             =   1.6190350824672E-03
(PID.TID 0000.0001) %MON seaice_heff_max              =   5.2035660101825E+00
(PID.TID 0000.0001) %MON seaice_heff_min              =   0.0000000000000E+00
(PID.TID 0000.0001) %MON seaice_heff_mean             =   7.5361527749902E-02
(PID.TID 0000.0001) %MON seaice_heff_sd               =   3.9435493137932E-01
(PID.TID 0000.0001) %MON seaice_heff_del2             =   2.2811282679746E-03
(PID.TID 0000.0001) %MON seaice_hsnow_max             =   2.4817149584619E-02
(PID.TID 0000.0001) %MON seaice_hsnow_min             =   0.0000000000000E+00
(PID.TID 0000.0001) %MON seaice_hsnow_mean            =   4.2241845116521E-04
(PID.TID 0000.0001) %MON seaice_hsnow_sd              =   2.3861621448508E-03
(PID.TID 0000.0001) %MON seaice_hsnow_del2            =   2.7990344287993E-05
(PID.TID 0000.0001) // =======================================================
(PID.TID 0000.0001) // End MONITOR SEAICE statistics
(PID.TID 0000.0001) // =======================================================
(PID.TID 0000.0001) %CHECKPOINT     72005 ckptA
(PID.TID 0000.0001)   early fc =  0.000000000000000D+00
 --> objf_test(bi,bj)   =  0.971419703867434D+04
 --> objf_test(bi,bj)   =  0.743444246921338D+04
 --> objf_test(bi,bj)   =  0.916061123397141D+04
 --> objf_test(bi,bj)   =  0.776111598457337D+04
 --> objf_test(bi,bj)   =  0.645188365332320D+04
 --> objf_test(bi,bj)   =  0.121082946428315D+05
 --> objf_test(bi,bj)   =  0.130205818019827D+05
 --> objf_test(bi,bj)   =  0.134004371121993D+05
 --> objf_test(bi,bj)   =  0.704975746328618D+04
 --> objf_test(bi,bj)   =  0.654290140182860D+04
 --> objf_test(bi,bj)   =  0.974952435328237D+04
 --> objf_test(bi,bj)   =  0.845212298795102D+04
(PID.TID 0000.0001)   local fc =  0.110845870143117D+06
(PID.TID 0000.0001)  global fc =  0.110845870143117D+06
(PID.TID 0000.0001) whio : write lev 2 rec   1
(PID.TID 0000.0001) SOLVE_FOR_PRESSURE: putPmEinXvector =    F
 cg2d: Sum(rhs),rhsMax =   2.21290056959868E+03  2.01372753928932E+01
 cg2d: Sum(rhs),rhsMax =   2.21287276584961E+03  2.05340040594810E+01
(PID.TID 0000.0001) whio : write lev 2 rec   2
 cg2d: Sum(rhs),rhsMax =   2.21266435029870E+03  2.07024426642601E+01
 cg2d: Sum(rhs),rhsMax =   2.21244876874963E+03  2.08572847035465E+01
(PID.TID 0000.0001) whio : write lev 2 rec   3
 cg2d: Sum(rhs),rhsMax =   2.21222514291676E+03  2.09782282228885E+01
(PID.TID 0000.0001) Did not write pickup because writePickupAtEnd = FALSE
 cg2d: Sum(rhs),rhsMax =   2.21222516450584E+03  2.09782282228885E+01
(PID.TID 0000.0001) Did not write pickup because writePickupAtEnd = FALSE
 cg2d: Sum(rhs),rhsMax =   2.21222516450584E+03  2.09782282228885E+01
(PID.TID 0000.0001) Did not write pickup because writePickupAtEnd = FALSE
(PID.TID 0000.0001) // =======================================================
(PID.TID 0000.0001) // Begin AD_MONITOR dynamic field statistics
(PID.TID 0000.0001) // =======================================================
(PID.TID 0000.0001) %MON ad_time_tsnumber             =                 72005
(PID.TID 0000.0001) %MON ad_time_secondsf             =   6.2212320000000E+09
(PID.TID 0000.0001) %MON ad_dynstat_adeta_max         =   0.0000000000000E+00
(PID.TID 0000.0001) %MON ad_dynstat_adeta_min         =   0.0000000000000E+00
(PID.TID 0000.0001) %MON ad_dynstat_adeta_mean        =   0.0000000000000E+00
(PID.TID 0000.0001) %MON ad_dynstat_adeta_sd          =   0.0000000000000E+00
(PID.TID 0000.0001) %MON ad_dynstat_adeta_del2        =   0.0000000000000E+00
(PID.TID 0000.0001) %MON ad_dynstat_aduvel_max        =   0.0000000000000E+00
(PID.TID 0000.0001) %MON ad_dynstat_aduvel_min        =   0.0000000000000E+00
(PID.TID 0000.0001) %MON ad_dynstat_aduvel_mean       =   0.0000000000000E+00
(PID.TID 0000.0001) %MON ad_dynstat_aduvel_sd         =   0.0000000000000E+00
(PID.TID 0000.0001) %MON ad_dynstat_aduvel_del2       =   0.0000000000000E+00
(PID.TID 0000.0001) %MON ad_dynstat_advvel_max        =   0.0000000000000E+00
(PID.TID 0000.0001) %MON ad_dynstat_advvel_min        =   0.0000000000000E+00
(PID.TID 0000.0001) %MON ad_dynstat_advvel_mean       =   0.0000000000000E+00
(PID.TID 0000.0001) %MON ad_dynstat_advvel_sd         =   0.0000000000000E+00
(PID.TID 0000.0001) %MON ad_dynstat_advvel_del2       =   0.0000000000000E+00
(PID.TID 0000.0001) %MON ad_dynstat_adwvel_max        =   0.0000000000000E+00
(PID.TID 0000.0001) %MON ad_dynstat_adwvel_min        =   0.0000000000000E+00
(PID.TID 0000.0001) %MON ad_dynstat_adwvel_mean       =   0.0000000000000E+00
(PID.TID 0000.0001) %MON ad_dynstat_adwvel_sd         =   0.0000000000000E+00
(PID.TID 0000.0001) %MON ad_dynstat_adwvel_del2       =   0.0000000000000E+00
(PID.TID 0000.0001) %MON ad_dynstat_adtheta_max       =   2.3858768378175E+01
(PID.TID 0000.0001) %MON ad_dynstat_adtheta_min       =  -1.8534790046236E+01
(PID.TID 0000.0001) %MON ad_dynstat_adtheta_mean      =  -1.0977915773756E+00
(PID.TID 0000.0001) %MON ad_dynstat_adtheta_sd        =   2.3096152519856E+00
(PID.TID 0000.0001) %MON ad_dynstat_adtheta_del2      =   8.4958885517391E-03
(PID.TID 0000.0001) %MON ad_dynstat_adsalt_max        =   0.0000000000000E+00
(PID.TID 0000.0001) %MON ad_dynstat_adsalt_min        =   0.0000000000000E+00
(PID.TID 0000.0001) %MON ad_dynstat_adsalt_mean       =   0.0000000000000E+00
(PID.TID 0000.0001) %MON ad_dynstat_adsalt_sd         =   0.0000000000000E+00
(PID.TID 0000.0001) %MON ad_dynstat_adsalt_del2       =   0.0000000000000E+00
(PID.TID 0000.0001) %MON ad_forcing_adqnet_max        =   0.0000000000000E+00
(PID.TID 0000.0001) %MON ad_forcing_adqnet_min        =   0.0000000000000E+00
(PID.TID 0000.0001) %MON ad_forcing_adqnet_mean       =   0.0000000000000E+00
(PID.TID 0000.0001) %MON ad_forcing_adqnet_sd         =   0.0000000000000E+00
(PID.TID 0000.0001) %MON ad_forcing_adqnet_del2       =   0.0000000000000E+00
(PID.TID 0000.0001) %MON ad_forcing_adqsw_max         =   0.0000000000000E+00
(PID.TID 0000.0001) %MON ad_forcing_adqsw_min         =   0.0000000000000E+00
(PID.TID 0000.0001) %MON ad_forcing_adqsw_mean        =   0.0000000000000E+00
(PID.TID 0000.0001) %MON ad_forcing_adqsw_sd          =   0.0000000000000E+00
(PID.TID 0000.0001) %MON ad_forcing_adqsw_del2        =   0.0000000000000E+00
(PID.TID 0000.0001) %MON ad_forcing_adempmr_max       =   0.0000000000000E+00
(PID.TID 0000.0001) %MON ad_forcing_adempmr_min       =   0.0000000000000E+00
(PID.TID 0000.0001) %MON ad_forcing_adempmr_mean      =   0.0000000000000E+00
(PID.TID 0000.0001) %MON ad_forcing_adempmr_sd        =   0.0000000000000E+00
(PID.TID 0000.0001) %MON ad_forcing_adempmr_del2      =   0.0000000000000E+00
(PID.TID 0000.0001) %MON ad_forcing_adfu_max          =   0.0000000000000E+00
(PID.TID 0000.0001) %MON ad_forcing_adfu_min          =   0.0000000000000E+00
(PID.TID 0000.0001) %MON ad_forcing_adfu_mean         =   0.0000000000000E+00
(PID.TID 0000.0001) %MON ad_forcing_adfu_sd           =   0.0000000000000E+00
(PID.TID 0000.0001) %MON ad_forcing_adfu_del2         =   0.0000000000000E+00
(PID.TID 0000.0001) %MON ad_forcing_adfv_max          =   0.0000000000000E+00
(PID.TID 0000.0001) %MON ad_forcing_adfv_min          =   0.0000000000000E+00
(PID.TID 0000.0001) %MON ad_forcing_adfv_mean         =   0.0000000000000E+00
(PID.TID 0000.0001) %MON ad_forcing_adfv_sd           =   0.0000000000000E+00
(PID.TID 0000.0001) %MON ad_forcing_adfv_del2         =   0.0000000000000E+00
(PID.TID 0000.0001) // =======================================================
(PID.TID 0000.0001) // End AD_MONITOR dynamic field statistics
(PID.TID 0000.0001) // =======================================================
(PID.TID 0000.0001) // =======================================================
(PID.TID 0000.0001) // Begin AD_MONITOR SEAICE statistics
(PID.TID 0000.0001) // =======================================================
(PID.TID 0000.0001) %MON ad_seaice_tsnumber           =                 72005
(PID.TID 0000.0001) %MON ad_seaice_time_sec           =   6.2212320000000E+09
(PID.TID 0000.0001) %MON ad_seaice_aduice_max         =   0.0000000000000E+00
(PID.TID 0000.0001) %MON ad_seaice_aduice_min         =   0.0000000000000E+00
(PID.TID 0000.0001) %MON ad_seaice_aduice_mean        =   0.0000000000000E+00
(PID.TID 0000.0001) %MON ad_seaice_aduice_sd          =   0.0000000000000E+00
(PID.TID 0000.0001) %MON ad_seaice_aduice_del2        =   0.0000000000000E+00
(PID.TID 0000.0001) %MON ad_seaice_advice_max         =   0.0000000000000E+00
(PID.TID 0000.0001) %MON ad_seaice_advice_min         =   0.0000000000000E+00
(PID.TID 0000.0001) %MON ad_seaice_advice_mean        =   0.0000000000000E+00
(PID.TID 0000.0001) %MON ad_seaice_advice_sd          =   0.0000000000000E+00
(PID.TID 0000.0001) %MON ad_seaice_advice_del2        =   0.0000000000000E+00
(PID.TID 0000.0001) %MON ad_seaice_adarea_max         =   0.0000000000000E+00
(PID.TID 0000.0001) %MON ad_seaice_adarea_min         =   0.0000000000000E+00
(PID.TID 0000.0001) %MON ad_seaice_adarea_mean        =   0.0000000000000E+00
(PID.TID 0000.0001) %MON ad_seaice_adarea_sd          =   0.0000000000000E+00
(PID.TID 0000.0001) %MON ad_seaice_adarea_del2        =   0.0000000000000E+00
(PID.TID 0000.0001) %MON ad_seaice_adheff_max         =   0.0000000000000E+00
(PID.TID 0000.0001) %MON ad_seaice_adheff_min         =   0.0000000000000E+00
(PID.TID 0000.0001) %MON ad_seaice_adheff_mean        =   0.0000000000000E+00
(PID.TID 0000.0001) %MON ad_seaice_adheff_sd          =   0.0000000000000E+00
(PID.TID 0000.0001) %MON ad_seaice_adheff_del2        =   0.0000000000000E+00
(PID.TID 0000.0001) %MON ad_seaice_adhsnow_max        =   0.0000000000000E+00
(PID.TID 0000.0001) %MON ad_seaice_adhsnow_min        =   0.0000000000000E+00
(PID.TID 0000.0001) %MON ad_seaice_adhsnow_mean       =   0.0000000000000E+00
(PID.TID 0000.0001) %MON ad_seaice_adhsnow_sd         =   0.0000000000000E+00
(PID.TID 0000.0001) %MON ad_seaice_adhsnow_del2       =   0.0000000000000E+00
(PID.TID 0000.0001) // =======================================================
(PID.TID 0000.0001) // End AD_MONITOR SEAICE statistics
(PID.TID 0000.0001) // =======================================================
 Calling cg2d from S/R CG2D_SAD
 cg2d: Sum(rhs),rhsMax =  -3.25260651745651E-19  1.97379518180031E-04
(PID.TID 0000.0001) // =======================================================
(PID.TID 0000.0001) // Begin AD_MONITOR EXF statistics for iwhen =  3
(PID.TID 0000.0001) // =======================================================
(PID.TID 0000.0001) %MON ad_exf_tsnumber              =                 72004
(PID.TID 0000.0001) %MON ad_exf_time_sec              =   6.2211456000000E+09
(PID.TID 0000.0001) %MON ad_exf_adfu_max              =   6.5807056213462E-01
(PID.TID 0000.0001) %MON ad_exf_adfu_min              =  -7.3696293141560E-01
(PID.TID 0000.0001) %MON ad_exf_adfu_mean             =   3.4629508591208E-03
(PID.TID 0000.0001) %MON ad_exf_adfu_sd               =   6.5592695902422E-02
(PID.TID 0000.0001) %MON ad_exf_adfu_del2             =   2.1286486677509E-03
(PID.TID 0000.0001) %MON ad_exf_adfv_max              =   5.0750471463404E-01
(PID.TID 0000.0001) %MON ad_exf_adfv_min              =  -4.0863431707149E-01
(PID.TID 0000.0001) %MON ad_exf_adfv_mean             =   4.4757521569711E-03
(PID.TID 0000.0001) %MON ad_exf_adfv_sd               =   6.1352681507655E-02
(PID.TID 0000.0001) %MON ad_exf_adfv_del2             =   2.1185954069068E-03
(PID.TID 0000.0001) %MON ad_exf_adqnet_max            =   6.6762196135762E-03
(PID.TID 0000.0001) %MON ad_exf_adqnet_min            =  -6.5823687601457E-03
(PID.TID 0000.0001) %MON ad_exf_adqnet_mean           =  -4.5240762288252E-04
(PID.TID 0000.0001) %MON ad_exf_adqnet_sd             =   1.1429146131120E-03
(PID.TID 0000.0001) %MON ad_exf_adqnet_del2           =   1.8146386027825E-05
(PID.TID 0000.0001) %MON ad_exf_adempmr_max           =   9.8086585723519E+01
(PID.TID 0000.0001) %MON ad_exf_adempmr_min           =  -1.6317733208486E+02
(PID.TID 0000.0001) %MON ad_exf_adempmr_mean          =  -1.0529310135170E+01
(PID.TID 0000.0001) %MON ad_exf_adempmr_sd            =   2.9598663507046E+01
(PID.TID 0000.0001) %MON ad_exf_adempmr_del2          =   4.0321328105667E-01
(PID.TID 0000.0001) // =======================================================
(PID.TID 0000.0001) // End AD_MONITOR EXF statistics for iwhen =  3
(PID.TID 0000.0001) // =======================================================
(PID.TID 0000.0001) // =======================================================
(PID.TID 0000.0001) // Begin AD_MONITOR EXF statistics for iwhen =  1
(PID.TID 0000.0001) // =======================================================
(PID.TID 0000.0001) %MON ad_exf_tsnumber              =                 72004
(PID.TID 0000.0001) %MON ad_exf_time_sec              =   6.2211456000000E+09
(PID.TID 0000.0001) %MON ad_exf_adustress_max         =   1.2539854636444E+00
(PID.TID 0000.0001) %MON ad_exf_adustress_min         =  -4.6477929125614E+00
(PID.TID 0000.0001) %MON ad_exf_adustress_mean        =  -4.5491240948949E-03
(PID.TID 0000.0001) %MON ad_exf_adustress_sd          =   1.7312276694058E-01
(PID.TID 0000.0001) %MON ad_exf_adustress_del2        =   4.6314569624003E-03
(PID.TID 0000.0001) %MON ad_exf_advstress_max         =   6.6790061037905E-01
(PID.TID 0000.0001) %MON ad_exf_advstress_min         =  -2.6225586233534E+00
(PID.TID 0000.0001) %MON ad_exf_advstress_mean        =  -3.3750434900447E-03
(PID.TID 0000.0001) %MON ad_exf_advstress_sd          =   9.6957699440876E-02
(PID.TID 0000.0001) %MON ad_exf_advstress_del2        =   2.8759199801719E-03
(PID.TID 0000.0001) %MON ad_exf_adhflux_max           =   0.0000000000000E+00
(PID.TID 0000.0001) %MON ad_exf_adhflux_min           =   0.0000000000000E+00
(PID.TID 0000.0001) %MON ad_exf_adhflux_mean          =   0.0000000000000E+00
(PID.TID 0000.0001) %MON ad_exf_adhflux_sd            =   0.0000000000000E+00
(PID.TID 0000.0001) %MON ad_exf_adhflux_del2          =   0.0000000000000E+00
(PID.TID 0000.0001) %MON ad_exf_adsflux_max           =   0.0000000000000E+00
(PID.TID 0000.0001) %MON ad_exf_adsflux_min           =   0.0000000000000E+00
(PID.TID 0000.0001) %MON ad_exf_adsflux_mean          =   0.0000000000000E+00
(PID.TID 0000.0001) %MON ad_exf_adsflux_sd            =   0.0000000000000E+00
(PID.TID 0000.0001) %MON ad_exf_adsflux_del2          =   0.0000000000000E+00
(PID.TID 0000.0001) %MON ad_exf_adwspeed_max          =   1.3902377744039E-05
(PID.TID 0000.0001) %MON ad_exf_adwspeed_min          =  -9.8595109703950E-05
(PID.TID 0000.0001) %MON ad_exf_adwspeed_mean         =  -1.0137370618486E-07
(PID.TID 0000.0001) %MON ad_exf_adwspeed_sd           =   2.5312669877392E-06
(PID.TID 0000.0001) %MON ad_exf_adwspeed_del2         =   1.2175424231089E-07
(PID.TID 0000.0001) // =======================================================
(PID.TID 0000.0001) // End AD_MONITOR EXF statistics for iwhen =  1
(PID.TID 0000.0001) // =======================================================
(PID.TID 0000.0001) // =======================================================
(PID.TID 0000.0001) // Begin AD_MONITOR EXF statistics for iwhen =  2
(PID.TID 0000.0001) // =======================================================
(PID.TID 0000.0001) %MON ad_exf_tsnumber              =                 72004
(PID.TID 0000.0001) %MON ad_exf_time_sec              =   6.2211456000000E+09
(PID.TID 0000.0001) %MON ad_exf_adatemp_max           =   1.0256136812489E-01
(PID.TID 0000.0001) %MON ad_exf_adatemp_min           =  -8.8673523736540E-02
(PID.TID 0000.0001) %MON ad_exf_adatemp_mean          =   5.4170050703381E-03
(PID.TID 0000.0001) %MON ad_exf_adatemp_sd            =   1.4250414866166E-02
(PID.TID 0000.0001) %MON ad_exf_adatemp_del2          =   2.5474220011385E-04
(PID.TID 0000.0001) %MON ad_exf_adaqh_max             =   2.3635601235287E+02
(PID.TID 0000.0001) %MON ad_exf_adaqh_min             =  -3.0118949240371E+02
(PID.TID 0000.0001) %MON ad_exf_adaqh_mean            =   1.1814848546644E+01
(PID.TID 0000.0001) %MON ad_exf_adaqh_sd              =   3.5047740278852E+01
(PID.TID 0000.0001) %MON ad_exf_adaqh_del2            =   6.0054624822072E-01
(PID.TID 0000.0001) %MON ad_exf_adlwflux_max          =   0.0000000000000E+00
(PID.TID 0000.0001) %MON ad_exf_adlwflux_min          =   0.0000000000000E+00
(PID.TID 0000.0001) %MON ad_exf_adlwflux_mean         =   0.0000000000000E+00
(PID.TID 0000.0001) %MON ad_exf_adlwflux_sd           =   0.0000000000000E+00
(PID.TID 0000.0001) %MON ad_exf_adlwflux_del2         =   0.0000000000000E+00
(PID.TID 0000.0001) %MON ad_exf_adprecip_max          =   2.4843833788342E+05
(PID.TID 0000.0001) %MON ad_exf_adprecip_min          =  -9.8086585723519E+04
(PID.TID 0000.0001) %MON ad_exf_adprecip_mean         =   1.0608712109266E+04
(PID.TID 0000.0001) %MON ad_exf_adprecip_sd           =   2.9907521955143E+04
(PID.TID 0000.0001) %MON ad_exf_adprecip_del2         =   4.4574016819559E+02
(PID.TID 0000.0001) %MON ad_exf_adswflux_max          =   0.0000000000000E+00
(PID.TID 0000.0001) %MON ad_exf_adswflux_min          =   0.0000000000000E+00
(PID.TID 0000.0001) %MON ad_exf_adswflux_mean         =   0.0000000000000E+00
(PID.TID 0000.0001) %MON ad_exf_adswflux_sd           =   0.0000000000000E+00
(PID.TID 0000.0001) %MON ad_exf_adswflux_del2         =   0.0000000000000E+00
(PID.TID 0000.0001) %MON ad_exf_adswdown_max          =   6.1479324219761E-03
(PID.TID 0000.0001) %MON ad_exf_adswdown_min          =  -6.2355891190802E-03
(PID.TID 0000.0001) %MON ad_exf_adswdown_mean         =   4.5047320021880E-04
(PID.TID 0000.0001) %MON ad_exf_adswdown_sd           =   1.0028856393027E-03
(PID.TID 0000.0001) %MON ad_exf_adswdown_del2         =   1.6466138147348E-05
(PID.TID 0000.0001) %MON ad_exf_adlwdown_max          =   6.5823687601457E-03
(PID.TID 0000.0001) %MON ad_exf_adlwdown_min          =  -6.6762196135762E-03
(PID.TID 0000.0001) %MON ad_exf_adlwdown_mean         =   4.8777408608770E-04
(PID.TID 0000.0001) %MON ad_exf_adlwdown_sd           =   1.1013100561297E-03
(PID.TID 0000.0001) %MON ad_exf_adlwdown_del2         =   1.8069648507499E-05
(PID.TID 0000.0001) %MON ad_exf_adrunoff_max          =   1.6317733208486E+05
(PID.TID 0000.0001) %MON ad_exf_adrunoff_min          =  -9.8086585723519E+04
(PID.TID 0000.0001) %MON ad_exf_adrunoff_mean         =   1.0529310135170E+04
(PID.TID 0000.0001) %MON ad_exf_adrunoff_sd           =   2.9598663507046E+04
(PID.TID 0000.0001) %MON ad_exf_adrunoff_del2         =   4.0321328105667E+02
(PID.TID 0000.0001) // =======================================================
(PID.TID 0000.0001) // End AD_MONITOR EXF statistics for iwhen =  2
(PID.TID 0000.0001) // =======================================================
 cg2d: Sum(rhs),rhsMax =   2.21266444905752E+03  2.07024426642601E+01
 cg2d: Sum(rhs),rhsMax =   2.21244899172506E+03  2.08572847359582E+01
 cg2d: Sum(rhs),rhsMax =   2.21244899172506E+03  2.08572847359582E+01
(PID.TID 0000.0001) // =======================================================
(PID.TID 0000.0001) // Begin AD_MONITOR dynamic field statistics
(PID.TID 0000.0001) // =======================================================
(PID.TID 0000.0001) %MON ad_time_tsnumber             =                 72004
(PID.TID 0000.0001) %MON ad_time_secondsf             =   6.2211456000000E+09
(PID.TID 0000.0001) %MON ad_dynstat_adeta_max         =   4.1247909368422E-02
(PID.TID 0000.0001) %MON ad_dynstat_adeta_min         =  -6.3867017326309E-02
(PID.TID 0000.0001) %MON ad_dynstat_adeta_mean        =  -1.3680997769748E-05
(PID.TID 0000.0001) %MON ad_dynstat_adeta_sd          =   2.2416669895303E-03
(PID.TID 0000.0001) %MON ad_dynstat_adeta_del2        =   9.8408554422271E-05
(PID.TID 0000.0001) %MON ad_dynstat_aduvel_max        =   2.4125137964315E+01
(PID.TID 0000.0001) %MON ad_dynstat_aduvel_min        =  -3.2468958275506E+01
(PID.TID 0000.0001) %MON ad_dynstat_aduvel_mean       =   1.5947716603429E-02
(PID.TID 0000.0001) %MON ad_dynstat_aduvel_sd         =   1.2022166734413E+00
(PID.TID 0000.0001) %MON ad_dynstat_aduvel_del2       =   1.1113607482973E-02
(PID.TID 0000.0001) %MON ad_dynstat_advvel_max        =   2.1644618038683E+01
(PID.TID 0000.0001) %MON ad_dynstat_advvel_min        =  -1.7204820962760E+01
(PID.TID 0000.0001) %MON ad_dynstat_advvel_mean       =  -4.8530136555255E-02
(PID.TID 0000.0001) %MON ad_dynstat_advvel_sd         =   1.1107814558714E+00
(PID.TID 0000.0001) %MON ad_dynstat_advvel_del2       =   9.3337525107924E-03
(PID.TID 0000.0001) %MON ad_dynstat_adwvel_max        =   5.3127166233980E+01
(PID.TID 0000.0001) %MON ad_dynstat_adwvel_min        =  -2.7072027978865E+01
(PID.TID 0000.0001) %MON ad_dynstat_adwvel_mean       =   9.2880257505964E-03
(PID.TID 0000.0001) %MON ad_dynstat_adwvel_sd         =   5.3697421004357E-01
(PID.TID 0000.0001) %MON ad_dynstat_adwvel_del2       =   7.3261342362941E-03
(PID.TID 0000.0001) %MON ad_dynstat_adtheta_max       =   9.3251993135131E+01
(PID.TID 0000.0001) %MON ad_dynstat_adtheta_min       =  -9.7018227685234E+01
(PID.TID 0000.0001) %MON ad_dynstat_adtheta_mean      =  -1.0984111017059E+00
(PID.TID 0000.0001) %MON ad_dynstat_adtheta_sd        =   2.3202573579481E+00
(PID.TID 0000.0001) %MON ad_dynstat_adtheta_del2      =   9.0301298949793E-03
(PID.TID 0000.0001) %MON ad_dynstat_adsalt_max        =   2.2227503343072E+02
(PID.TID 0000.0001) %MON ad_dynstat_adsalt_min        =  -2.1651974836976E+02
(PID.TID 0000.0001) %MON ad_dynstat_adsalt_mean       =  -8.4721236380994E-04
(PID.TID 0000.0001) %MON ad_dynstat_adsalt_sd         =   6.6985303181495E-01
(PID.TID 0000.0001) %MON ad_dynstat_adsalt_del2       =   9.6564928746621E-03
(PID.TID 0000.0001) %MON ad_forcing_adqnet_max        =   0.0000000000000E+00
(PID.TID 0000.0001) %MON ad_forcing_adqnet_min        =   0.0000000000000E+00
(PID.TID 0000.0001) %MON ad_forcing_adqnet_mean       =   0.0000000000000E+00
(PID.TID 0000.0001) %MON ad_forcing_adqnet_sd         =   0.0000000000000E+00
(PID.TID 0000.0001) %MON ad_forcing_adqnet_del2       =   0.0000000000000E+00
(PID.TID 0000.0001) %MON ad_forcing_adqsw_max         =   0.0000000000000E+00
(PID.TID 0000.0001) %MON ad_forcing_adqsw_min         =   0.0000000000000E+00
(PID.TID 0000.0001) %MON ad_forcing_adqsw_mean        =   0.0000000000000E+00
(PID.TID 0000.0001) %MON ad_forcing_adqsw_sd          =   0.0000000000000E+00
(PID.TID 0000.0001) %MON ad_forcing_adqsw_del2        =   0.0000000000000E+00
(PID.TID 0000.0001) %MON ad_forcing_adempmr_max       =   0.0000000000000E+00
(PID.TID 0000.0001) %MON ad_forcing_adempmr_min       =   0.0000000000000E+00
(PID.TID 0000.0001) %MON ad_forcing_adempmr_mean      =   0.0000000000000E+00
(PID.TID 0000.0001) %MON ad_forcing_adempmr_sd        =   0.0000000000000E+00
(PID.TID 0000.0001) %MON ad_forcing_adempmr_del2      =   0.0000000000000E+00
(PID.TID 0000.0001) %MON ad_forcing_adfu_max          =   0.0000000000000E+00
(PID.TID 0000.0001) %MON ad_forcing_adfu_min          =   0.0000000000000E+00
(PID.TID 0000.0001) %MON ad_forcing_adfu_mean         =   0.0000000000000E+00
(PID.TID 0000.0001) %MON ad_forcing_adfu_sd           =   0.0000000000000E+00
(PID.TID 0000.0001) %MON ad_forcing_adfu_del2         =   0.0000000000000E+00
(PID.TID 0000.0001) %MON ad_forcing_adfv_max          =   0.0000000000000E+00
(PID.TID 0000.0001) %MON ad_forcing_adfv_min          =   0.0000000000000E+00
(PID.TID 0000.0001) %MON ad_forcing_adfv_mean         =   0.0000000000000E+00
(PID.TID 0000.0001) %MON ad_forcing_adfv_sd           =   0.0000000000000E+00
(PID.TID 0000.0001) %MON ad_forcing_adfv_del2         =   0.0000000000000E+00
(PID.TID 0000.0001) // =======================================================
(PID.TID 0000.0001) // End AD_MONITOR dynamic field statistics
(PID.TID 0000.0001) // =======================================================
(PID.TID 0000.0001) // =======================================================
(PID.TID 0000.0001) // Begin AD_MONITOR SEAICE statistics
(PID.TID 0000.0001) // =======================================================
(PID.TID 0000.0001) %MON ad_seaice_tsnumber           =                 72004
(PID.TID 0000.0001) %MON ad_seaice_time_sec           =   6.2211456000000E+09
(PID.TID 0000.0001) %MON ad_seaice_aduice_max         =   0.0000000000000E+00
(PID.TID 0000.0001) %MON ad_seaice_aduice_min         =   0.0000000000000E+00
(PID.TID 0000.0001) %MON ad_seaice_aduice_mean        =   0.0000000000000E+00
(PID.TID 0000.0001) %MON ad_seaice_aduice_sd          =   0.0000000000000E+00
(PID.TID 0000.0001) %MON ad_seaice_aduice_del2        =   0.0000000000000E+00
(PID.TID 0000.0001) %MON ad_seaice_advice_max         =   0.0000000000000E+00
(PID.TID 0000.0001) %MON ad_seaice_advice_min         =   0.0000000000000E+00
(PID.TID 0000.0001) %MON ad_seaice_advice_mean        =   0.0000000000000E+00
(PID.TID 0000.0001) %MON ad_seaice_advice_sd          =   0.0000000000000E+00
(PID.TID 0000.0001) %MON ad_seaice_advice_del2        =   0.0000000000000E+00
(PID.TID 0000.0001) %MON ad_seaice_adarea_max         =   8.0146189839874E-01
(PID.TID 0000.0001) %MON ad_seaice_adarea_min         =  -5.3434683061126E-01
(PID.TID 0000.0001) %MON ad_seaice_adarea_mean        =  -5.5608973857795E-04
(PID.TID 0000.0001) %MON ad_seaice_adarea_sd          =   3.1936819915504E-02
(PID.TID 0000.0001) %MON ad_seaice_adarea_del2        =   1.1371753181806E-03
(PID.TID 0000.0001) %MON ad_seaice_adheff_max         =   2.2486262464930E+01
(PID.TID 0000.0001) %MON ad_seaice_adheff_min         =  -2.2983152367787E+01
(PID.TID 0000.0001) %MON ad_seaice_adheff_mean        =  -1.6116009380273E+00
(PID.TID 0000.0001) %MON ad_seaice_adheff_sd          =   3.8238220970904E+00
(PID.TID 0000.0001) %MON ad_seaice_adheff_del2        =   6.0397486296310E-02
(PID.TID 0000.0001) %MON ad_seaice_adhsnow_max        =   8.1543589158537E+00
(PID.TID 0000.0001) %MON ad_seaice_adhsnow_min        =  -8.3345497597469E+00
(PID.TID 0000.0001) %MON ad_seaice_adhsnow_mean       =  -5.8567191254064E-01
(PID.TID 0000.0001) %MON ad_seaice_adhsnow_sd         =   1.3842445218445E+00
(PID.TID 0000.0001) %MON ad_seaice_adhsnow_del2       =   2.1843885845682E-02
(PID.TID 0000.0001) // =======================================================
(PID.TID 0000.0001) // End AD_MONITOR SEAICE statistics
(PID.TID 0000.0001) // =======================================================
 Calling cg2d from S/R CG2D_SAD
 cg2d: Sum(rhs),rhsMax =  -2.98155597433514E-19  1.07285437496423E-04
(PID.TID 0000.0001) // =======================================================
(PID.TID 0000.0001) // Begin AD_MONITOR EXF statistics for iwhen =  3
(PID.TID 0000.0001) // =======================================================
(PID.TID 0000.0001) %MON ad_exf_tsnumber              =                 72003
(PID.TID 0000.0001) %MON ad_exf_time_sec              =   6.2210592000000E+09
(PID.TID 0000.0001) %MON ad_exf_adfu_max              =   7.7157117039068E-01
(PID.TID 0000.0001) %MON ad_exf_adfu_min              =  -1.4708931888172E+00
(PID.TID 0000.0001) %MON ad_exf_adfu_mean             =   4.9520635217905E-03
(PID.TID 0000.0001) %MON ad_exf_adfu_sd               =   1.2469463210302E-01
(PID.TID 0000.0001) %MON ad_exf_adfu_del2             =   3.7735224706306E-03
(PID.TID 0000.0001) %MON ad_exf_adfv_max              =   9.8820363847306E-01
(PID.TID 0000.0001) %MON ad_exf_adfv_min              =  -7.6743558883733E-01
(PID.TID 0000.0001) %MON ad_exf_adfv_mean             =   3.7017795864148E-03
(PID.TID 0000.0001) %MON ad_exf_adfv_sd               =   1.0683377612702E-01
(PID.TID 0000.0001) %MON ad_exf_adfv_del2             =   3.3505086586059E-03
(PID.TID 0000.0001) %MON ad_exf_adqnet_max            =   3.5178472958381E-02
(PID.TID 0000.0001) %MON ad_exf_adqnet_min            =  -6.5225728014569E-03
(PID.TID 0000.0001) %MON ad_exf_adqnet_mean           =  -4.7955187601768E-04
(PID.TID 0000.0001) %MON ad_exf_adqnet_sd             =   1.2088066414290E-03
(PID.TID 0000.0001) %MON ad_exf_adqnet_del2           =   1.9000155787171E-05
(PID.TID 0000.0001) %MON ad_exf_adempmr_max           =   1.1701615413011E+04
(PID.TID 0000.0001) %MON ad_exf_adempmr_min           =  -1.7430808396106E+03
(PID.TID 0000.0001) %MON ad_exf_adempmr_mean          =  -8.7325569869578E+00
(PID.TID 0000.0001) %MON ad_exf_adempmr_sd            =   1.9061772050689E+02
(PID.TID 0000.0001) %MON ad_exf_adempmr_del2          =   3.3795953011423E+00
(PID.TID 0000.0001) // =======================================================
(PID.TID 0000.0001) // End AD_MONITOR EXF statistics for iwhen =  3
(PID.TID 0000.0001) // =======================================================
(PID.TID 0000.0001) // =======================================================
(PID.TID 0000.0001) // Begin AD_MONITOR EXF statistics for iwhen =  1
(PID.TID 0000.0001) // =======================================================
(PID.TID 0000.0001) %MON ad_exf_tsnumber              =                 72003
(PID.TID 0000.0001) %MON ad_exf_time_sec              =   6.2210592000000E+09
(PID.TID 0000.0001) %MON ad_exf_adustress_max         =   1.2829446140231E+00
(PID.TID 0000.0001) %MON ad_exf_adustress_min         =  -4.6065942715887E+00
(PID.TID 0000.0001) %MON ad_exf_adustress_mean        =  -2.3166257913745E-03
(PID.TID 0000.0001) %MON ad_exf_adustress_sd          =   2.0580752910464E-01
(PID.TID 0000.0001) %MON ad_exf_adustress_del2        =   5.6028923647579E-03
(PID.TID 0000.0001) %MON ad_exf_advstress_max         =   9.8820363847306E-01
(PID.TID 0000.0001) %MON ad_exf_advstress_min         =  -2.8202281985813E+00
(PID.TID 0000.0001) %MON ad_exf_advstress_mean        =  -4.1521375720936E-03
(PID.TID 0000.0001) %MON ad_exf_advstress_sd          =   1.3690416486837E-01
(PID.TID 0000.0001) %MON ad_exf_advstress_del2        =   3.9381552687877E-03
(PID.TID 0000.0001) %MON ad_exf_adhflux_max           =   0.0000000000000E+00
(PID.TID 0000.0001) %MON ad_exf_adhflux_min           =   0.0000000000000E+00
(PID.TID 0000.0001) %MON ad_exf_adhflux_mean          =   0.0000000000000E+00
(PID.TID 0000.0001) %MON ad_exf_adhflux_sd            =   0.0000000000000E+00
(PID.TID 0000.0001) %MON ad_exf_adhflux_del2          =   0.0000000000000E+00
(PID.TID 0000.0001) %MON ad_exf_adsflux_max           =   0.0000000000000E+00
(PID.TID 0000.0001) %MON ad_exf_adsflux_min           =   0.0000000000000E+00
(PID.TID 0000.0001) %MON ad_exf_adsflux_mean          =   0.0000000000000E+00
(PID.TID 0000.0001) %MON ad_exf_adsflux_sd            =   0.0000000000000E+00
(PID.TID 0000.0001) %MON ad_exf_adsflux_del2          =   0.0000000000000E+00
(PID.TID 0000.0001) %MON ad_exf_adwspeed_max          =   1.9738704123937E-04
(PID.TID 0000.0001) %MON ad_exf_adwspeed_min          =  -3.4922844482623E-04
(PID.TID 0000.0001) %MON ad_exf_adwspeed_mean         =  -5.9147490242758E-09
(PID.TID 0000.0001) %MON ad_exf_adwspeed_sd           =   7.5355805736579E-06
(PID.TID 0000.0001) %MON ad_exf_adwspeed_del2         =   1.6883951696648E-07
(PID.TID 0000.0001) // =======================================================
(PID.TID 0000.0001) // End AD_MONITOR EXF statistics for iwhen =  1
(PID.TID 0000.0001) // =======================================================
(PID.TID 0000.0001) // =======================================================
(PID.TID 0000.0001) // Begin AD_MONITOR EXF statistics for iwhen =  2
(PID.TID 0000.0001) // =======================================================
(PID.TID 0000.0001) %MON ad_exf_tsnumber              =                 72003
(PID.TID 0000.0001) %MON ad_exf_time_sec              =   6.2210592000000E+09
(PID.TID 0000.0001) %MON ad_exf_adatemp_max           =   1.0139407900445E-01
(PID.TID 0000.0001) %MON ad_exf_adatemp_min           =  -4.7910688117116E-01
(PID.TID 0000.0001) %MON ad_exf_adatemp_mean          =   5.3144109374270E-03
(PID.TID 0000.0001) %MON ad_exf_adatemp_sd            =   1.5767064200950E-02
(PID.TID 0000.0001) %MON ad_exf_adatemp_del2          =   2.6929809843066E-04
(PID.TID 0000.0001) %MON ad_exf_adaqh_max             =   2.3364058943660E+02
(PID.TID 0000.0001) %MON ad_exf_adaqh_min             =  -9.2387414615584E+02
(PID.TID 0000.0001) %MON ad_exf_adaqh_mean            =   1.1711222474549E+01
(PID.TID 0000.0001) %MON ad_exf_adaqh_sd              =   3.7196042255726E+01
(PID.TID 0000.0001) %MON ad_exf_adaqh_del2            =   6.4743089524016E-01
(PID.TID 0000.0001) %MON ad_exf_adlwflux_max          =   0.0000000000000E+00
(PID.TID 0000.0001) %MON ad_exf_adlwflux_min          =   0.0000000000000E+00
(PID.TID 0000.0001) %MON ad_exf_adlwflux_mean         =   0.0000000000000E+00
(PID.TID 0000.0001) %MON ad_exf_adlwflux_sd           =   0.0000000000000E+00
(PID.TID 0000.0001) %MON ad_exf_adlwflux_del2         =   0.0000000000000E+00
(PID.TID 0000.0001) %MON ad_exf_adprecip_max          =   1.7430808396106E+06
(PID.TID 0000.0001) %MON ad_exf_adprecip_min          =  -1.1701615413011E+07
(PID.TID 0000.0001) %MON ad_exf_adprecip_mean         =   9.0692055638932E+03
(PID.TID 0000.0001) %MON ad_exf_adprecip_sd           =   1.9040097829761E+05
(PID.TID 0000.0001) %MON ad_exf_adprecip_del2         =   3.3786905058370E+03
(PID.TID 0000.0001) %MON ad_exf_adswflux_max          =   0.0000000000000E+00
(PID.TID 0000.0001) %MON ad_exf_adswflux_min          =   0.0000000000000E+00
(PID.TID 0000.0001) %MON ad_exf_adswflux_mean         =   0.0000000000000E+00
(PID.TID 0000.0001) %MON ad_exf_adswflux_sd           =   0.0000000000000E+00
(PID.TID 0000.0001) %MON ad_exf_adswflux_del2         =   0.0000000000000E+00
(PID.TID 0000.0001) %MON ad_exf_adswdown_max          =   6.0920829965607E-03
(PID.TID 0000.0001) %MON ad_exf_adswdown_min          =  -3.1152797114661E-02
(PID.TID 0000.0001) %MON ad_exf_adswdown_mean         =   4.4230491503615E-04
(PID.TID 0000.0001) %MON ad_exf_adswdown_sd           =   1.0946619437651E-03
(PID.TID 0000.0001) %MON ad_exf_adswdown_del2         =   1.7196016847554E-05
(PID.TID 0000.0001) %MON ad_exf_adlwdown_max          =   6.5225728014569E-03
(PID.TID 0000.0001) %MON ad_exf_adlwdown_min          =  -3.5178472958381E-02
(PID.TID 0000.0001) %MON ad_exf_adlwdown_mean         =   4.7856375344189E-04
(PID.TID 0000.0001) %MON ad_exf_adlwdown_sd           =   1.2083649685647E-03
(PID.TID 0000.0001) %MON ad_exf_adlwdown_del2         =   1.8911776147843E-05
(PID.TID 0000.0001) %MON ad_exf_adrunoff_max          =   1.7430808396106E+06
(PID.TID 0000.0001) %MON ad_exf_adrunoff_min          =  -1.1701615413011E+07
(PID.TID 0000.0001) %MON ad_exf_adrunoff_mean         =   8.7325569869578E+03
(PID.TID 0000.0001) %MON ad_exf_adrunoff_sd           =   1.9061772050689E+05
(PID.TID 0000.0001) %MON ad_exf_adrunoff_del2         =   3.3795953011423E+03
(PID.TID 0000.0001) // =======================================================
(PID.TID 0000.0001) // End AD_MONITOR EXF statistics for iwhen =  2
(PID.TID 0000.0001) // =======================================================
 cg2d: Sum(rhs),rhsMax =   2.21266444905752E+03  2.07024426642601E+01
(PID.TID 0000.0001) // =======================================================
(PID.TID 0000.0001) // Begin AD_MONITOR dynamic field statistics
(PID.TID 0000.0001) // =======================================================
(PID.TID 0000.0001) %MON ad_time_tsnumber             =                 72003
(PID.TID 0000.0001) %MON ad_time_secondsf             =   6.2210592000000E+09
(PID.TID 0000.0001) %MON ad_dynstat_adeta_max         =   4.3811676357773E-02
(PID.TID 0000.0001) %MON ad_dynstat_adeta_min         =  -6.0368344540090E-02
(PID.TID 0000.0001) %MON ad_dynstat_adeta_mean        =  -1.2799796773445E-05
(PID.TID 0000.0001) %MON ad_dynstat_adeta_sd          =   2.2044027051332E-03
(PID.TID 0000.0001) %MON ad_dynstat_adeta_del2        =   9.6647581681471E-05
(PID.TID 0000.0001) %MON ad_dynstat_aduvel_max        =   4.7074169856910E+01
(PID.TID 0000.0001) %MON ad_dynstat_aduvel_min        =  -6.4185459363434E+01
(PID.TID 0000.0001) %MON ad_dynstat_aduvel_mean       =   5.6803484613334E-02
(PID.TID 0000.0001) %MON ad_dynstat_aduvel_sd         =   2.3876081292430E+00
(PID.TID 0000.0001) %MON ad_dynstat_aduvel_del2       =   2.1583882692238E-02
(PID.TID 0000.0001) %MON ad_dynstat_advvel_max        =   4.5093072185120E+01
(PID.TID 0000.0001) %MON ad_dynstat_advvel_min        =  -3.1188039552109E+01
(PID.TID 0000.0001) %MON ad_dynstat_advvel_mean       =  -7.2801868618148E-02
(PID.TID 0000.0001) %MON ad_dynstat_advvel_sd         =   2.1909068430425E+00
(PID.TID 0000.0001) %MON ad_dynstat_advvel_del2       =   1.8014488556764E-02
(PID.TID 0000.0001) %MON ad_dynstat_adwvel_max        =   8.5141754695809E+01
(PID.TID 0000.0001) %MON ad_dynstat_adwvel_min        =  -4.4354879576611E+01
(PID.TID 0000.0001) %MON ad_dynstat_adwvel_mean       =   1.5332728337015E-02
(PID.TID 0000.0001) %MON ad_dynstat_adwvel_sd         =   8.5994505894786E-01
(PID.TID 0000.0001) %MON ad_dynstat_adwvel_del2       =   1.1624114010968E-02
(PID.TID 0000.0001) %MON ad_dynstat_adtheta_max       =   4.1678730280267E+01
(PID.TID 0000.0001) %MON ad_dynstat_adtheta_min       =  -3.9846703904110E+01
(PID.TID 0000.0001) %MON ad_dynstat_adtheta_mean      =  -1.0990190623473E+00
(PID.TID 0000.0001) %MON ad_dynstat_adtheta_sd        =   2.3078285319931E+00
(PID.TID 0000.0001) %MON ad_dynstat_adtheta_del2      =   9.5435520928171E-03
(PID.TID 0000.0001) %MON ad_dynstat_adsalt_max        =   9.0893790433005E+01
(PID.TID 0000.0001) %MON ad_dynstat_adsalt_min        =  -9.3962917013079E+01
(PID.TID 0000.0001) %MON ad_dynstat_adsalt_mean       =  -1.6123667278701E-03
(PID.TID 0000.0001) %MON ad_dynstat_adsalt_sd         =   6.1876517957240E-01
(PID.TID 0000.0001) %MON ad_dynstat_adsalt_del2       =   1.6325636358985E-02
(PID.TID 0000.0001) %MON ad_forcing_adqnet_max        =   0.0000000000000E+00
(PID.TID 0000.0001) %MON ad_forcing_adqnet_min        =   0.0000000000000E+00
(PID.TID 0000.0001) %MON ad_forcing_adqnet_mean       =   0.0000000000000E+00
(PID.TID 0000.0001) %MON ad_forcing_adqnet_sd         =   0.0000000000000E+00
(PID.TID 0000.0001) %MON ad_forcing_adqnet_del2       =   0.0000000000000E+00
(PID.TID 0000.0001) %MON ad_forcing_adqsw_max         =   0.0000000000000E+00
(PID.TID 0000.0001) %MON ad_forcing_adqsw_min         =   0.0000000000000E+00
(PID.TID 0000.0001) %MON ad_forcing_adqsw_mean        =   0.0000000000000E+00
(PID.TID 0000.0001) %MON ad_forcing_adqsw_sd          =   0.0000000000000E+00
(PID.TID 0000.0001) %MON ad_forcing_adqsw_del2        =   0.0000000000000E+00
(PID.TID 0000.0001) %MON ad_forcing_adempmr_max       =   0.0000000000000E+00
(PID.TID 0000.0001) %MON ad_forcing_adempmr_min       =   0.0000000000000E+00
(PID.TID 0000.0001) %MON ad_forcing_adempmr_mean      =   0.0000000000000E+00
(PID.TID 0000.0001) %MON ad_forcing_adempmr_sd        =   0.0000000000000E+00
(PID.TID 0000.0001) %MON ad_forcing_adempmr_del2      =   0.0000000000000E+00
(PID.TID 0000.0001) %MON ad_forcing_adfu_max          =   0.0000000000000E+00
(PID.TID 0000.0001) %MON ad_forcing_adfu_min          =   0.0000000000000E+00
(PID.TID 0000.0001) %MON ad_forcing_adfu_mean         =   0.0000000000000E+00
(PID.TID 0000.0001) %MON ad_forcing_adfu_sd           =   0.0000000000000E+00
(PID.TID 0000.0001) %MON ad_forcing_adfu_del2         =   0.0000000000000E+00
(PID.TID 0000.0001) %MON ad_forcing_adfv_max          =   0.0000000000000E+00
(PID.TID 0000.0001) %MON ad_forcing_adfv_min          =   0.0000000000000E+00
(PID.TID 0000.0001) %MON ad_forcing_adfv_mean         =   0.0000000000000E+00
(PID.TID 0000.0001) %MON ad_forcing_adfv_sd           =   0.0000000000000E+00
(PID.TID 0000.0001) %MON ad_forcing_adfv_del2         =   0.0000000000000E+00
(PID.TID 0000.0001) // =======================================================
(PID.TID 0000.0001) // End AD_MONITOR dynamic field statistics
(PID.TID 0000.0001) // =======================================================
(PID.TID 0000.0001) // =======================================================
(PID.TID 0000.0001) // Begin AD_MONITOR SEAICE statistics
(PID.TID 0000.0001) // =======================================================
(PID.TID 0000.0001) %MON ad_seaice_tsnumber           =                 72003
(PID.TID 0000.0001) %MON ad_seaice_time_sec           =   6.2210592000000E+09
(PID.TID 0000.0001) %MON ad_seaice_aduice_max         =   0.0000000000000E+00
(PID.TID 0000.0001) %MON ad_seaice_aduice_min         =   0.0000000000000E+00
(PID.TID 0000.0001) %MON ad_seaice_aduice_mean        =   0.0000000000000E+00
(PID.TID 0000.0001) %MON ad_seaice_aduice_sd          =   0.0000000000000E+00
(PID.TID 0000.0001) %MON ad_seaice_aduice_del2        =   0.0000000000000E+00
(PID.TID 0000.0001) %MON ad_seaice_advice_max         =   0.0000000000000E+00
(PID.TID 0000.0001) %MON ad_seaice_advice_min         =   0.0000000000000E+00
(PID.TID 0000.0001) %MON ad_seaice_advice_mean        =   0.0000000000000E+00
(PID.TID 0000.0001) %MON ad_seaice_advice_sd          =   0.0000000000000E+00
(PID.TID 0000.0001) %MON ad_seaice_advice_del2        =   0.0000000000000E+00
(PID.TID 0000.0001) %MON ad_seaice_adarea_max         =   8.0071427647808E-01
(PID.TID 0000.0001) %MON ad_seaice_adarea_min         =  -5.2134157402975E-01
(PID.TID 0000.0001) %MON ad_seaice_adarea_mean        =  -7.6875165478020E-04
(PID.TID 0000.0001) %MON ad_seaice_adarea_sd          =   3.4124198877264E-02
(PID.TID 0000.0001) %MON ad_seaice_adarea_del2        =   1.1383445116731E-03
(PID.TID 0000.0001) %MON ad_seaice_adheff_max         =   2.2202443874006E+01
(PID.TID 0000.0001) %MON ad_seaice_adheff_min         =  -2.2557447599979E+01
(PID.TID 0000.0001) %MON ad_seaice_adheff_mean        =  -1.5855188057867E+00
(PID.TID 0000.0001) %MON ad_seaice_adheff_sd          =   3.7704632104902E+00
(PID.TID 0000.0001) %MON ad_seaice_adheff_del2        =   5.9313701025946E-02
(PID.TID 0000.0001) %MON ad_seaice_adhsnow_max        =   8.0513175752404E+00
(PID.TID 0000.0001) %MON ad_seaice_adhsnow_min        =  -8.1803256112173E+00
(PID.TID 0000.0001) %MON ad_seaice_adhsnow_mean       =  -5.7663763653169E-01
(PID.TID 0000.0001) %MON ad_seaice_adhsnow_sd         =   1.3645297978339E+00
(PID.TID 0000.0001) %MON ad_seaice_adhsnow_del2       =   2.1646168646174E-02
(PID.TID 0000.0001) // =======================================================
(PID.TID 0000.0001) // End AD_MONITOR SEAICE statistics
(PID.TID 0000.0001) // =======================================================
 Calling cg2d from S/R CG2D_SAD
 cg2d: Sum(rhs),rhsMax =   9.48676900924816E-20  1.08297214437638E-04
(PID.TID 0000.0001) // =======================================================
(PID.TID 0000.0001) // Begin AD_MONITOR EXF statistics for iwhen =  3
(PID.TID 0000.0001) // =======================================================
(PID.TID 0000.0001) %MON ad_exf_tsnumber              =                 72002
(PID.TID 0000.0001) %MON ad_exf_time_sec              =   6.2209728000000E+09
(PID.TID 0000.0001) %MON ad_exf_adfu_max              =   8.8384238122938E-01
(PID.TID 0000.0001) %MON ad_exf_adfu_min              =  -2.1098159968243E+00
(PID.TID 0000.0001) %MON ad_exf_adfu_mean             =   6.2075434600903E-03
(PID.TID 0000.0001) %MON ad_exf_adfu_sd               =   1.8247364059617E-01
(PID.TID 0000.0001) %MON ad_exf_adfu_del2             =   5.3891438272263E-03
(PID.TID 0000.0001) %MON ad_exf_adfv_max              =   1.4317920287541E+00
(PID.TID 0000.0001) %MON ad_exf_adfv_min              =  -1.0851424861082E+00
(PID.TID 0000.0001) %MON ad_exf_adfv_mean             =   2.7799231627231E-03
(PID.TID 0000.0001) %MON ad_exf_adfv_sd               =   1.5446688877608E-01
(PID.TID 0000.0001) %MON ad_exf_adfv_del2             =   4.6759286743906E-03
(PID.TID 0000.0001) %MON ad_exf_adqnet_max            =   1.6047688006856E-02
(PID.TID 0000.0001) %MON ad_exf_adqnet_min            =  -7.3121473199191E-03
(PID.TID 0000.0001) %MON ad_exf_adqnet_mean           =  -4.7838682966855E-04
(PID.TID 0000.0001) %MON ad_exf_adqnet_sd             =   1.1135478400804E-03
(PID.TID 0000.0001) %MON ad_exf_adqnet_del2           =   2.1574960824321E-05
(PID.TID 0000.0001) %MON ad_exf_adempmr_max           =   5.1299871226605E+03
(PID.TID 0000.0001) %MON ad_exf_adempmr_min           =  -2.9426279714167E+03
(PID.TID 0000.0001) %MON ad_exf_adempmr_mean          =  -1.2087587874747E+01
(PID.TID 0000.0001) %MON ad_exf_adempmr_sd            =   1.5123255517266E+02
(PID.TID 0000.0001) %MON ad_exf_adempmr_del2          =   6.2805362058312E+00
(PID.TID 0000.0001) // =======================================================
(PID.TID 0000.0001) // End AD_MONITOR EXF statistics for iwhen =  3
(PID.TID 0000.0001) // =======================================================
(PID.TID 0000.0001) // =======================================================
(PID.TID 0000.0001) // Begin AD_MONITOR EXF statistics for iwhen =  1
(PID.TID 0000.0001) // =======================================================
(PID.TID 0000.0001) %MON ad_exf_tsnumber              =                 72002
(PID.TID 0000.0001) %MON ad_exf_time_sec              =   6.2209728000000E+09
(PID.TID 0000.0001) %MON ad_exf_adustress_max         =   1.3617675955373E+00
(PID.TID 0000.0001) %MON ad_exf_adustress_min         =  -4.5850788462499E+00
(PID.TID 0000.0001) %MON ad_exf_adustress_mean        =  -2.5626456328363E-04
(PID.TID 0000.0001) %MON ad_exf_adustress_sd          =   2.4721049244533E-01
(PID.TID 0000.0001) %MON ad_exf_adustress_del2        =   6.7965446078825E-03
(PID.TID 0000.0001) %MON ad_exf_advstress_max         =   1.4317920287541E+00
(PID.TID 0000.0001) %MON ad_exf_advstress_min         =  -3.0104049991579E+00
(PID.TID 0000.0001) %MON ad_exf_advstress_mean        =  -5.0335867420402E-03
(PID.TID 0000.0001) %MON ad_exf_advstress_sd          =   1.8226172687707E-01
(PID.TID 0000.0001) %MON ad_exf_advstress_del2        =   5.1746226554073E-03
(PID.TID 0000.0001) %MON ad_exf_adhflux_max           =   0.0000000000000E+00
(PID.TID 0000.0001) %MON ad_exf_adhflux_min           =   0.0000000000000E+00
(PID.TID 0000.0001) %MON ad_exf_adhflux_mean          =   0.0000000000000E+00
(PID.TID 0000.0001) %MON ad_exf_adhflux_sd            =   0.0000000000000E+00
(PID.TID 0000.0001) %MON ad_exf_adhflux_del2          =   0.0000000000000E+00
(PID.TID 0000.0001) %MON ad_exf_adsflux_max           =   0.0000000000000E+00
(PID.TID 0000.0001) %MON ad_exf_adsflux_min           =   0.0000000000000E+00
(PID.TID 0000.0001) %MON ad_exf_adsflux_mean          =   0.0000000000000E+00
(PID.TID 0000.0001) %MON ad_exf_adsflux_sd            =   0.0000000000000E+00
(PID.TID 0000.0001) %MON ad_exf_adsflux_del2          =   0.0000000000000E+00
(PID.TID 0000.0001) %MON ad_exf_adwspeed_max          =   7.0824369256066E-05
(PID.TID 0000.0001) %MON ad_exf_adwspeed_min          =  -3.4684875872178E-04
(PID.TID 0000.0001) %MON ad_exf_adwspeed_mean         =  -1.1964385401866E-07
(PID.TID 0000.0001) %MON ad_exf_adwspeed_sd           =   6.9225745940787E-06
(PID.TID 0000.0001) %MON ad_exf_adwspeed_del2         =   1.8641012749084E-07
(PID.TID 0000.0001) // =======================================================
(PID.TID 0000.0001) // End AD_MONITOR EXF statistics for iwhen =  1
(PID.TID 0000.0001) // =======================================================
(PID.TID 0000.0001) // =======================================================
(PID.TID 0000.0001) // Begin AD_MONITOR EXF statistics for iwhen =  2
(PID.TID 0000.0001) // =======================================================
(PID.TID 0000.0001) %MON ad_exf_tsnumber              =                 72002
(PID.TID 0000.0001) %MON ad_exf_time_sec              =   6.2209728000000E+09
(PID.TID 0000.0001) %MON ad_exf_adatemp_max           =   1.0418546720425E-01
(PID.TID 0000.0001) %MON ad_exf_adatemp_min           =  -2.1824195775722E-01
(PID.TID 0000.0001) %MON ad_exf_adatemp_mean          =   5.3750938337868E-03
(PID.TID 0000.0001) %MON ad_exf_adatemp_sd            =   1.4413653555187E-02
(PID.TID 0000.0001) %MON ad_exf_adatemp_del2          =   3.0853817700881E-04
(PID.TID 0000.0001) %MON ad_exf_adaqh_max             =   2.5846822233001E+02
(PID.TID 0000.0001) %MON ad_exf_adaqh_min             =  -4.1961543827397E+02
(PID.TID 0000.0001) %MON ad_exf_adaqh_mean            =   1.1904548381364E+01
(PID.TID 0000.0001) %MON ad_exf_adaqh_sd              =   3.5209130731770E+01
(PID.TID 0000.0001) %MON ad_exf_adaqh_del2            =   7.6652448221790E-01
(PID.TID 0000.0001) %MON ad_exf_adlwflux_max          =   0.0000000000000E+00
(PID.TID 0000.0001) %MON ad_exf_adlwflux_min          =   0.0000000000000E+00
(PID.TID 0000.0001) %MON ad_exf_adlwflux_mean         =   0.0000000000000E+00
(PID.TID 0000.0001) %MON ad_exf_adlwflux_sd           =   0.0000000000000E+00
(PID.TID 0000.0001) %MON ad_exf_adlwflux_del2         =   0.0000000000000E+00
(PID.TID 0000.0001) %MON ad_exf_adprecip_max          =   2.9426279714167E+06
(PID.TID 0000.0001) %MON ad_exf_adprecip_min          =  -5.1299871226605E+06
(PID.TID 0000.0001) %MON ad_exf_adprecip_mean         =   1.2303748926788E+04
(PID.TID 0000.0001) %MON ad_exf_adprecip_sd           =   1.5104306814552E+05
(PID.TID 0000.0001) %MON ad_exf_adprecip_del2         =   6.2805954254909E+03
(PID.TID 0000.0001) %MON ad_exf_adswflux_max          =   0.0000000000000E+00
(PID.TID 0000.0001) %MON ad_exf_adswflux_min          =   0.0000000000000E+00
(PID.TID 0000.0001) %MON ad_exf_adswflux_mean         =   0.0000000000000E+00
(PID.TID 0000.0001) %MON ad_exf_adswflux_sd           =   0.0000000000000E+00
(PID.TID 0000.0001) %MON ad_exf_adswflux_del2         =   0.0000000000000E+00
(PID.TID 0000.0001) %MON ad_exf_adswdown_max          =   6.4824469938267E-03
(PID.TID 0000.0001) %MON ad_exf_adswdown_min          =  -1.4179920344484E-02
(PID.TID 0000.0001) %MON ad_exf_adswdown_mean         =   4.4333912641550E-04
(PID.TID 0000.0001) %MON ad_exf_adswdown_sd           =   1.0102571789388E-03
(PID.TID 0000.0001) %MON ad_exf_adswdown_del2         =   1.9430003966484E-05
(PID.TID 0000.0001) %MON ad_exf_adlwdown_max          =   7.3121473199191E-03
(PID.TID 0000.0001) %MON ad_exf_adlwdown_min          =  -1.6047688006856E-02
(PID.TID 0000.0001) %MON ad_exf_adlwdown_mean         =   4.7989837821249E-04
(PID.TID 0000.0001) %MON ad_exf_adlwdown_sd           =   1.1117982428775E-03
(PID.TID 0000.0001) %MON ad_exf_adlwdown_del2         =   2.1517195292358E-05
(PID.TID 0000.0001) %MON ad_exf_adrunoff_max          =   2.9426279714167E+06
(PID.TID 0000.0001) %MON ad_exf_adrunoff_min          =  -5.1299871226605E+06
(PID.TID 0000.0001) %MON ad_exf_adrunoff_mean         =   1.2087587874747E+04
(PID.TID 0000.0001) %MON ad_exf_adrunoff_sd           =   1.5123255517266E+05
(PID.TID 0000.0001) %MON ad_exf_adrunoff_del2         =   6.2805362058312E+03
(PID.TID 0000.0001) // =======================================================
(PID.TID 0000.0001) // End AD_MONITOR EXF statistics for iwhen =  2
(PID.TID 0000.0001) // =======================================================
(PID.TID 0000.0001) SOLVE_FOR_PRESSURE: putPmEinXvector =    F
 cg2d: Sum(rhs),rhsMax =   2.21290109963722E+03  2.01372753928932E+01
 cg2d: Sum(rhs),rhsMax =   2.21287341846142E+03  2.05340040002758E+01
 cg2d: Sum(rhs),rhsMax =   2.21287341846142E+03  2.05340040002758E+01
(PID.TID 0000.0001) // =======================================================
(PID.TID 0000.0001) // Begin AD_MONITOR dynamic field statistics
(PID.TID 0000.0001) // =======================================================
(PID.TID 0000.0001) %MON ad_time_tsnumber             =                 72002
(PID.TID 0000.0001) %MON ad_time_secondsf             =   6.2209728000000E+09
(PID.TID 0000.0001) %MON ad_dynstat_adeta_max         =   4.4846449009211E-02
(PID.TID 0000.0001) %MON ad_dynstat_adeta_min         =  -5.7148916168279E-02
(PID.TID 0000.0001) %MON ad_dynstat_adeta_mean        =  -1.1684162024105E-05
(PID.TID 0000.0001) %MON ad_dynstat_adeta_sd          =   2.1759106651397E-03
(PID.TID 0000.0001) %MON ad_dynstat_adeta_del2        =   9.5281083732082E-05
(PID.TID 0000.0001) %MON ad_dynstat_aduvel_max        =   6.8720725292054E+01
(PID.TID 0000.0001) %MON ad_dynstat_aduvel_min        =  -8.9236563240006E+01
(PID.TID 0000.0001) %MON ad_dynstat_aduvel_mean       =   1.0560559948958E-01
(PID.TID 0000.0001) %MON ad_dynstat_aduvel_sd         =   3.5272520539028E+00
(PID.TID 0000.0001) %MON ad_dynstat_aduvel_del2       =   3.1417459051330E-02
(PID.TID 0000.0001) %MON ad_dynstat_advvel_max        =   6.4963962107197E+01
(PID.TID 0000.0001) %MON ad_dynstat_advvel_min        =  -4.2995578308709E+01
(PID.TID 0000.0001) %MON ad_dynstat_advvel_mean       =  -5.8053986824369E-02
(PID.TID 0000.0001) %MON ad_dynstat_advvel_sd         =   3.2302902248373E+00
(PID.TID 0000.0001) %MON ad_dynstat_advvel_del2       =   2.6247071610338E-02
(PID.TID 0000.0001) %MON ad_dynstat_adwvel_max        =   1.1612253081688E+02
(PID.TID 0000.0001) %MON ad_dynstat_adwvel_min        =  -6.2601536985394E+01
(PID.TID 0000.0001) %MON ad_dynstat_adwvel_mean       =   2.1240938754097E-02
(PID.TID 0000.0001) %MON ad_dynstat_adwvel_sd         =   1.1770271045591E+00
(PID.TID 0000.0001) %MON ad_dynstat_adwvel_del2       =   1.5825817925730E-02
(PID.TID 0000.0001) %MON ad_dynstat_adtheta_max       =   3.5252306874778E+01
(PID.TID 0000.0001) %MON ad_dynstat_adtheta_min       =  -3.1896313421742E+01
(PID.TID 0000.0001) %MON ad_dynstat_adtheta_mean      =  -1.0993507999632E+00
(PID.TID 0000.0001) %MON ad_dynstat_adtheta_sd        =   2.3052050266729E+00
(PID.TID 0000.0001) %MON ad_dynstat_adtheta_del2      =   9.6842478288235E-03
(PID.TID 0000.0001) %MON ad_dynstat_adsalt_max        =   1.1054838975701E+02
(PID.TID 0000.0001) %MON ad_dynstat_adsalt_min        =  -1.0718131472914E+02
(PID.TID 0000.0001) %MON ad_dynstat_adsalt_mean       =  -2.9889907681331E-03
(PID.TID 0000.0001) %MON ad_dynstat_adsalt_sd         =   8.0762590473047E-01
(PID.TID 0000.0001) %MON ad_dynstat_adsalt_del2       =   1.9992011802515E-02
(PID.TID 0000.0001) %MON ad_forcing_adqnet_max        =   0.0000000000000E+00
(PID.TID 0000.0001) %MON ad_forcing_adqnet_min        =   0.0000000000000E+00
(PID.TID 0000.0001) %MON ad_forcing_adqnet_mean       =   0.0000000000000E+00
(PID.TID 0000.0001) %MON ad_forcing_adqnet_sd         =   0.0000000000000E+00
(PID.TID 0000.0001) %MON ad_forcing_adqnet_del2       =   0.0000000000000E+00
(PID.TID 0000.0001) %MON ad_forcing_adqsw_max         =   0.0000000000000E+00
(PID.TID 0000.0001) %MON ad_forcing_adqsw_min         =   0.0000000000000E+00
(PID.TID 0000.0001) %MON ad_forcing_adqsw_mean        =   0.0000000000000E+00
(PID.TID 0000.0001) %MON ad_forcing_adqsw_sd          =   0.0000000000000E+00
(PID.TID 0000.0001) %MON ad_forcing_adqsw_del2        =   0.0000000000000E+00
(PID.TID 0000.0001) %MON ad_forcing_adempmr_max       =   0.0000000000000E+00
(PID.TID 0000.0001) %MON ad_forcing_adempmr_min       =   0.0000000000000E+00
(PID.TID 0000.0001) %MON ad_forcing_adempmr_mean      =   0.0000000000000E+00
(PID.TID 0000.0001) %MON ad_forcing_adempmr_sd        =   0.0000000000000E+00
(PID.TID 0000.0001) %MON ad_forcing_adempmr_del2      =   0.0000000000000E+00
(PID.TID 0000.0001) %MON ad_forcing_adfu_max          =   0.0000000000000E+00
(PID.TID 0000.0001) %MON ad_forcing_adfu_min          =   0.0000000000000E+00
(PID.TID 0000.0001) %MON ad_forcing_adfu_mean         =   0.0000000000000E+00
(PID.TID 0000.0001) %MON ad_forcing_adfu_sd           =   0.0000000000000E+00
(PID.TID 0000.0001) %MON ad_forcing_adfu_del2         =   0.0000000000000E+00
(PID.TID 0000.0001) %MON ad_forcing_adfv_max          =   0.0000000000000E+00
(PID.TID 0000.0001) %MON ad_forcing_adfv_min          =   0.0000000000000E+00
(PID.TID 0000.0001) %MON ad_forcing_adfv_mean         =   0.0000000000000E+00
(PID.TID 0000.0001) %MON ad_forcing_adfv_sd           =   0.0000000000000E+00
(PID.TID 0000.0001) %MON ad_forcing_adfv_del2         =   0.0000000000000E+00
(PID.TID 0000.0001) // =======================================================
(PID.TID 0000.0001) // End AD_MONITOR dynamic field statistics
(PID.TID 0000.0001) // =======================================================
(PID.TID 0000.0001) // =======================================================
(PID.TID 0000.0001) // Begin AD_MONITOR SEAICE statistics
(PID.TID 0000.0001) // =======================================================
(PID.TID 0000.0001) %MON ad_seaice_tsnumber           =                 72002
(PID.TID 0000.0001) %MON ad_seaice_time_sec           =   6.2209728000000E+09
(PID.TID 0000.0001) %MON ad_seaice_aduice_max         =   0.0000000000000E+00
(PID.TID 0000.0001) %MON ad_seaice_aduice_min         =   0.0000000000000E+00
(PID.TID 0000.0001) %MON ad_seaice_aduice_mean        =   0.0000000000000E+00
(PID.TID 0000.0001) %MON ad_seaice_aduice_sd          =   0.0000000000000E+00
(PID.TID 0000.0001) %MON ad_seaice_aduice_del2        =   0.0000000000000E+00
(PID.TID 0000.0001) %MON ad_seaice_advice_max         =   0.0000000000000E+00
(PID.TID 0000.0001) %MON ad_seaice_advice_min         =   0.0000000000000E+00
(PID.TID 0000.0001) %MON ad_seaice_advice_mean        =   0.0000000000000E+00
(PID.TID 0000.0001) %MON ad_seaice_advice_sd          =   0.0000000000000E+00
(PID.TID 0000.0001) %MON ad_seaice_advice_del2        =   0.0000000000000E+00
(PID.TID 0000.0001) %MON ad_seaice_adarea_max         =   8.1666343069920E-01
(PID.TID 0000.0001) %MON ad_seaice_adarea_min         =  -4.6462193045223E-01
(PID.TID 0000.0001) %MON ad_seaice_adarea_mean        =  -6.6091109652288E-04
(PID.TID 0000.0001) %MON ad_seaice_adarea_sd          =   3.6307840129869E-02
(PID.TID 0000.0001) %MON ad_seaice_adarea_del2        =   1.2011585813712E-03
(PID.TID 0000.0001) %MON ad_seaice_adheff_max         =   2.1686678825028E+01
(PID.TID 0000.0001) %MON ad_seaice_adheff_min         =  -2.2268951780716E+01
(PID.TID 0000.0001) %MON ad_seaice_adheff_mean        =  -1.5599163391944E+00
(PID.TID 0000.0001) %MON ad_seaice_adheff_sd          =   3.7211900285853E+00
(PID.TID 0000.0001) %MON ad_seaice_adheff_del2        =   5.9439976880578E-02
(PID.TID 0000.0001) %MON ad_seaice_adhsnow_max        =   7.8644356406375E+00
(PID.TID 0000.0001) %MON ad_seaice_adhsnow_min        =  -8.0758704450764E+00
(PID.TID 0000.0001) %MON ad_seaice_adhsnow_mean       =  -5.6673860985295E-01
(PID.TID 0000.0001) %MON ad_seaice_adhsnow_sd         =   1.3527260033187E+00
(PID.TID 0000.0001) %MON ad_seaice_adhsnow_del2       =   2.2254188601126E-02
(PID.TID 0000.0001) // =======================================================
(PID.TID 0000.0001) // End AD_MONITOR SEAICE statistics
(PID.TID 0000.0001) // =======================================================
 Calling cg2d from S/R CG2D_SAD
 cg2d: Sum(rhs),rhsMax =   3.38813178901720E-20  9.91014653563465E-05
(PID.TID 0000.0001) // =======================================================
(PID.TID 0000.0001) // Begin AD_MONITOR EXF statistics for iwhen =  3
(PID.TID 0000.0001) // =======================================================
(PID.TID 0000.0001) %MON ad_exf_tsnumber              =                 72001
(PID.TID 0000.0001) %MON ad_exf_time_sec              =   6.2208864000000E+09
(PID.TID 0000.0001) %MON ad_exf_adfu_max              =   1.2503113283547E+00
(PID.TID 0000.0001) %MON ad_exf_adfu_min              =  -2.7384013596878E+00
(PID.TID 0000.0001) %MON ad_exf_adfu_mean             =   7.1806333447493E-03
(PID.TID 0000.0001) %MON ad_exf_adfu_sd               =   2.3851605025896E-01
(PID.TID 0000.0001) %MON ad_exf_adfu_del2             =   6.9444585828680E-03
(PID.TID 0000.0001) %MON ad_exf_adfv_max              =   1.8339943922231E+00
(PID.TID 0000.0001) %MON ad_exf_adfv_min              =  -1.3597124222842E+00
(PID.TID 0000.0001) %MON ad_exf_adfv_mean             =   1.3606104060332E-03
(PID.TID 0000.0001) %MON ad_exf_adfv_sd               =   2.0154033359210E-01
(PID.TID 0000.0001) %MON ad_exf_adfv_del2             =   5.9824524240421E-03
(PID.TID 0000.0001) %MON ad_exf_adqnet_max            =   1.3198981026647E-02
(PID.TID 0000.0001) %MON ad_exf_adqnet_min            =  -6.4058410934025E-03
(PID.TID 0000.0001) %MON ad_exf_adqnet_mean           =  -4.7262649200291E-04
(PID.TID 0000.0001) %MON ad_exf_adqnet_sd             =   1.0978266500397E-03
(PID.TID 0000.0001) %MON ad_exf_adqnet_del2           =   2.2198412324692E-05
(PID.TID 0000.0001) %MON ad_exf_adempmr_max           =   4.2960212349045E+03
(PID.TID 0000.0001) %MON ad_exf_adempmr_min           =  -3.8289214541289E+03
(PID.TID 0000.0001) %MON ad_exf_adempmr_mean          =  -1.2486257152883E+01
(PID.TID 0000.0001) %MON ad_exf_adempmr_sd            =   1.7422184138826E+02
(PID.TID 0000.0001) %MON ad_exf_adempmr_del2          =   7.6828471484402E+00
(PID.TID 0000.0001) // =======================================================
(PID.TID 0000.0001) // End AD_MONITOR EXF statistics for iwhen =  3
(PID.TID 0000.0001) // =======================================================
(PID.TID 0000.0001) // =======================================================
(PID.TID 0000.0001) // Begin AD_MONITOR EXF statistics for iwhen =  1
(PID.TID 0000.0001) // =======================================================
(PID.TID 0000.0001) %MON ad_exf_tsnumber              =                 72001
(PID.TID 0000.0001) %MON ad_exf_time_sec              =   6.2208864000000E+09
(PID.TID 0000.0001) %MON ad_exf_adustress_max         =   1.4443385842955E+00
(PID.TID 0000.0001) %MON ad_exf_adustress_min         =  -4.5667058174765E+00
(PID.TID 0000.0001) %MON ad_exf_adustress_mean        =   1.4540861992190E-03
(PID.TID 0000.0001) %MON ad_exf_adustress_sd          =   2.9289898558472E-01
(PID.TID 0000.0001) %MON ad_exf_adustress_del2        =   8.0879009665009E-03
(PID.TID 0000.0001) %MON ad_exf_advstress_max         =   1.8339943922231E+00
(PID.TID 0000.0001) %MON ad_exf_advstress_min         =  -3.2114100251217E+00
(PID.TID 0000.0001) %MON ad_exf_advstress_mean        =  -6.4744087682101E-03
(PID.TID 0000.0001) %MON ad_exf_advstress_sd          =   2.2826244579807E-01
(PID.TID 0000.0001) %MON ad_exf_advstress_del2        =   6.4258294800608E-03
(PID.TID 0000.0001) %MON ad_exf_adhflux_max           =   0.0000000000000E+00
(PID.TID 0000.0001) %MON ad_exf_adhflux_min           =   0.0000000000000E+00
(PID.TID 0000.0001) %MON ad_exf_adhflux_mean          =   0.0000000000000E+00
(PID.TID 0000.0001) %MON ad_exf_adhflux_sd            =   0.0000000000000E+00
(PID.TID 0000.0001) %MON ad_exf_adhflux_del2          =   0.0000000000000E+00
(PID.TID 0000.0001) %MON ad_exf_adsflux_max           =   0.0000000000000E+00
(PID.TID 0000.0001) %MON ad_exf_adsflux_min           =   0.0000000000000E+00
(PID.TID 0000.0001) %MON ad_exf_adsflux_mean          =   0.0000000000000E+00
(PID.TID 0000.0001) %MON ad_exf_adsflux_sd            =   0.0000000000000E+00
(PID.TID 0000.0001) %MON ad_exf_adsflux_del2          =   0.0000000000000E+00
(PID.TID 0000.0001) %MON ad_exf_adwspeed_max          =   8.8505041101019E-05
(PID.TID 0000.0001) %MON ad_exf_adwspeed_min          =  -2.4579324422750E-04
(PID.TID 0000.0001) %MON ad_exf_adwspeed_mean         =  -1.1883296318437E-07
(PID.TID 0000.0001) %MON ad_exf_adwspeed_sd           =   6.7631149941081E-06
(PID.TID 0000.0001) %MON ad_exf_adwspeed_del2         =   2.2803496524384E-07
(PID.TID 0000.0001) // =======================================================
(PID.TID 0000.0001) // End AD_MONITOR EXF statistics for iwhen =  1
(PID.TID 0000.0001) // =======================================================
(PID.TID 0000.0001) // =======================================================
(PID.TID 0000.0001) // Begin AD_MONITOR EXF statistics for iwhen =  2
(PID.TID 0000.0001) // =======================================================
(PID.TID 0000.0001) %MON ad_exf_tsnumber              =                 72001
(PID.TID 0000.0001) %MON ad_exf_time_sec              =   6.2208864000000E+09
(PID.TID 0000.0001) %MON ad_exf_adatemp_max           =   1.0917956192265E-01
(PID.TID 0000.0001) %MON ad_exf_adatemp_min           =  -1.7952068389496E-01
(PID.TID 0000.0001) %MON ad_exf_adatemp_mean          =   5.3197631618478E-03
(PID.TID 0000.0001) %MON ad_exf_adatemp_sd            =   1.4219337969578E-02
(PID.TID 0000.0001) %MON ad_exf_adatemp_del2          =   3.1968375923636E-04
(PID.TID 0000.0001) %MON ad_exf_adaqh_max             =   3.2437173054592E+02
(PID.TID 0000.0001) %MON ad_exf_adaqh_min             =  -3.4543992987240E+02
(PID.TID 0000.0001) %MON ad_exf_adaqh_mean            =   1.1821448950147E+01
(PID.TID 0000.0001) %MON ad_exf_adaqh_sd              =   3.5003990900995E+01
(PID.TID 0000.0001) %MON ad_exf_adaqh_del2            =   8.1522148123894E-01
(PID.TID 0000.0001) %MON ad_exf_adlwflux_max          =   0.0000000000000E+00
(PID.TID 0000.0001) %MON ad_exf_adlwflux_min          =   0.0000000000000E+00
(PID.TID 0000.0001) %MON ad_exf_adlwflux_mean         =   0.0000000000000E+00
(PID.TID 0000.0001) %MON ad_exf_adlwflux_sd           =   0.0000000000000E+00
(PID.TID 0000.0001) %MON ad_exf_adlwflux_del2         =   0.0000000000000E+00
(PID.TID 0000.0001) %MON ad_exf_adprecip_max          =   3.8289214541289E+06
(PID.TID 0000.0001) %MON ad_exf_adprecip_min          =  -4.2960212349045E+06
(PID.TID 0000.0001) %MON ad_exf_adprecip_mean         =   1.2721019385014E+04
(PID.TID 0000.0001) %MON ad_exf_adprecip_sd           =   1.7404016730880E+05
(PID.TID 0000.0001) %MON ad_exf_adprecip_del2         =   7.6831377705000E+03
(PID.TID 0000.0001) %MON ad_exf_adswflux_max          =   0.0000000000000E+00
(PID.TID 0000.0001) %MON ad_exf_adswflux_min          =   0.0000000000000E+00
(PID.TID 0000.0001) %MON ad_exf_adswflux_mean         =   0.0000000000000E+00
(PID.TID 0000.0001) %MON ad_exf_adswflux_sd           =   0.0000000000000E+00
(PID.TID 0000.0001) %MON ad_exf_adswflux_del2         =   0.0000000000000E+00
(PID.TID 0000.0001) %MON ad_exf_adswdown_max          =   5.9830555812380E-03
(PID.TID 0000.0001) %MON ad_exf_adswdown_min          =  -1.1646624419666E-02
(PID.TID 0000.0001) %MON ad_exf_adswdown_mean         =   4.3782558231766E-04
(PID.TID 0000.0001) %MON ad_exf_adswdown_sd           =   9.9592719452353E-04
(PID.TID 0000.0001) %MON ad_exf_adswdown_del2         =   1.9951860990885E-05
(PID.TID 0000.0001) %MON ad_exf_adlwdown_max          =   6.4058410934025E-03
(PID.TID 0000.0001) %MON ad_exf_adlwdown_min          =  -1.3198981026647E-02
(PID.TID 0000.0001) %MON ad_exf_adlwdown_mean         =   4.7380698269846E-04
(PID.TID 0000.0001) %MON ad_exf_adlwdown_sd           =   1.0961226540953E-03
(PID.TID 0000.0001) %MON ad_exf_adlwdown_del2         =   2.2140083999961E-05
(PID.TID 0000.0001) %MON ad_exf_adrunoff_max          =   3.8289214541289E+06
(PID.TID 0000.0001) %MON ad_exf_adrunoff_min          =  -4.2960212349045E+06
(PID.TID 0000.0001) %MON ad_exf_adrunoff_mean         =   1.2486257152883E+04
(PID.TID 0000.0001) %MON ad_exf_adrunoff_sd           =   1.7422184138826E+05
(PID.TID 0000.0001) %MON ad_exf_adrunoff_del2         =   7.6828471484402E+03
(PID.TID 0000.0001) // =======================================================
(PID.TID 0000.0001) // End AD_MONITOR EXF statistics for iwhen =  2
(PID.TID 0000.0001) // =======================================================
(PID.TID 0000.0001) SOLVE_FOR_PRESSURE: putPmEinXvector =    F
 cg2d: Sum(rhs),rhsMax =   2.21290109963722E+03  2.01372753928932E+01
(PID.TID 0000.0001) // =======================================================
(PID.TID 0000.0001) // Begin AD_MONITOR dynamic field statistics
(PID.TID 0000.0001) // =======================================================
(PID.TID 0000.0001) %MON ad_time_tsnumber             =                 72001
(PID.TID 0000.0001) %MON ad_time_secondsf             =   6.2208864000000E+09
(PID.TID 0000.0001) %MON ad_dynstat_adeta_max         =   4.4843900208504E-02
(PID.TID 0000.0001) %MON ad_dynstat_adeta_min         =  -5.3944096035825E-02
(PID.TID 0000.0001) %MON ad_dynstat_adeta_mean        =  -1.0550643178633E-05
(PID.TID 0000.0001) %MON ad_dynstat_adeta_sd          =   2.1526409651620E-03
(PID.TID 0000.0001) %MON ad_dynstat_adeta_del2        =   9.3917660498573E-05
(PID.TID 0000.0001) %MON ad_dynstat_aduvel_max        =   8.8889008468999E+01
(PID.TID 0000.0001) %MON ad_dynstat_aduvel_min        =  -1.1548432553244E+02
(PID.TID 0000.0001) %MON ad_dynstat_aduvel_mean       =   1.4817822333074E-01
(PID.TID 0000.0001) %MON ad_dynstat_aduvel_sd         =   4.6017203093941E+00
(PID.TID 0000.0001) %MON ad_dynstat_aduvel_del2       =   4.0585757604495E-02
(PID.TID 0000.0001) %MON ad_dynstat_advvel_max        =   8.1534661713444E+01
(PID.TID 0000.0001) %MON ad_dynstat_advvel_min        =  -5.4305898835366E+01
(PID.TID 0000.0001) %MON ad_dynstat_advvel_mean       =  -1.4675077698425E-02
(PID.TID 0000.0001) %MON ad_dynstat_advvel_sd         =   4.2219216182907E+00
(PID.TID 0000.0001) %MON ad_dynstat_advvel_del2       =   3.3942474723297E-02
(PID.TID 0000.0001) %MON ad_dynstat_adwvel_max        =   1.4574051622738E+02
(PID.TID 0000.0001) %MON ad_dynstat_adwvel_min        =  -7.9783097815097E+01
(PID.TID 0000.0001) %MON ad_dynstat_adwvel_mean       =   2.7221512139101E-02
(PID.TID 0000.0001) %MON ad_dynstat_adwvel_sd         =   1.4822120456488E+00
(PID.TID 0000.0001) %MON ad_dynstat_adwvel_del2       =   1.9882146533951E-02
(PID.TID 0000.0001) %MON ad_dynstat_adtheta_max       =   3.3164880337108E+01
(PID.TID 0000.0001) %MON ad_dynstat_adtheta_min       =  -2.8992202100848E+01
(PID.TID 0000.0001) %MON ad_dynstat_adtheta_mean      =  -1.0995590600690E+00
(PID.TID 0000.0001) %MON ad_dynstat_adtheta_sd        =   2.3038736533554E+00
(PID.TID 0000.0001) %MON ad_dynstat_adtheta_del2      =   9.8898746699943E-03
(PID.TID 0000.0001) %MON ad_dynstat_adsalt_max        =   1.3305188735842E+02
(PID.TID 0000.0001) %MON ad_dynstat_adsalt_min        =  -1.3172278657954E+02
(PID.TID 0000.0001) %MON ad_dynstat_adsalt_mean       =  -4.5905275634089E-03
(PID.TID 0000.0001) %MON ad_dynstat_adsalt_sd         =   1.0549192539342E+00
(PID.TID 0000.0001) %MON ad_dynstat_adsalt_del2       =   2.3322436114923E-02
(PID.TID 0000.0001) %MON ad_forcing_adqnet_max        =   0.0000000000000E+00
(PID.TID 0000.0001) %MON ad_forcing_adqnet_min        =   0.0000000000000E+00
(PID.TID 0000.0001) %MON ad_forcing_adqnet_mean       =   0.0000000000000E+00
(PID.TID 0000.0001) %MON ad_forcing_adqnet_sd         =   0.0000000000000E+00
(PID.TID 0000.0001) %MON ad_forcing_adqnet_del2       =   0.0000000000000E+00
(PID.TID 0000.0001) %MON ad_forcing_adqsw_max         =   0.0000000000000E+00
(PID.TID 0000.0001) %MON ad_forcing_adqsw_min         =   0.0000000000000E+00
(PID.TID 0000.0001) %MON ad_forcing_adqsw_mean        =   0.0000000000000E+00
(PID.TID 0000.0001) %MON ad_forcing_adqsw_sd          =   0.0000000000000E+00
(PID.TID 0000.0001) %MON ad_forcing_adqsw_del2        =   0.0000000000000E+00
(PID.TID 0000.0001) %MON ad_forcing_adempmr_max       =   0.0000000000000E+00
(PID.TID 0000.0001) %MON ad_forcing_adempmr_min       =   0.0000000000000E+00
(PID.TID 0000.0001) %MON ad_forcing_adempmr_mean      =   0.0000000000000E+00
(PID.TID 0000.0001) %MON ad_forcing_adempmr_sd        =   0.0000000000000E+00
(PID.TID 0000.0001) %MON ad_forcing_adempmr_del2      =   0.0000000000000E+00
(PID.TID 0000.0001) %MON ad_forcing_adfu_max          =   0.0000000000000E+00
(PID.TID 0000.0001) %MON ad_forcing_adfu_min          =   0.0000000000000E+00
(PID.TID 0000.0001) %MON ad_forcing_adfu_mean         =   0.0000000000000E+00
(PID.TID 0000.0001) %MON ad_forcing_adfu_sd           =   0.0000000000000E+00
(PID.TID 0000.0001) %MON ad_forcing_adfu_del2         =   0.0000000000000E+00
(PID.TID 0000.0001) %MON ad_forcing_adfv_max          =   0.0000000000000E+00
(PID.TID 0000.0001) %MON ad_forcing_adfv_min          =   0.0000000000000E+00
(PID.TID 0000.0001) %MON ad_forcing_adfv_mean         =   0.0000000000000E+00
(PID.TID 0000.0001) %MON ad_forcing_adfv_sd           =   0.0000000000000E+00
(PID.TID 0000.0001) %MON ad_forcing_adfv_del2         =   0.0000000000000E+00
(PID.TID 0000.0001) // =======================================================
(PID.TID 0000.0001) // End AD_MONITOR dynamic field statistics
(PID.TID 0000.0001) // =======================================================
(PID.TID 0000.0001) // =======================================================
(PID.TID 0000.0001) // Begin AD_MONITOR SEAICE statistics
(PID.TID 0000.0001) // =======================================================
(PID.TID 0000.0001) %MON ad_seaice_tsnumber           =                 72001
(PID.TID 0000.0001) %MON ad_seaice_time_sec           =   6.2208864000000E+09
(PID.TID 0000.0001) %MON ad_seaice_aduice_max         =   0.0000000000000E+00
(PID.TID 0000.0001) %MON ad_seaice_aduice_min         =   0.0000000000000E+00
(PID.TID 0000.0001) %MON ad_seaice_aduice_mean        =   0.0000000000000E+00
(PID.TID 0000.0001) %MON ad_seaice_aduice_sd          =   0.0000000000000E+00
(PID.TID 0000.0001) %MON ad_seaice_aduice_del2        =   0.0000000000000E+00
(PID.TID 0000.0001) %MON ad_seaice_advice_max         =   0.0000000000000E+00
(PID.TID 0000.0001) %MON ad_seaice_advice_min         =   0.0000000000000E+00
(PID.TID 0000.0001) %MON ad_seaice_advice_mean        =   0.0000000000000E+00
(PID.TID 0000.0001) %MON ad_seaice_advice_sd          =   0.0000000000000E+00
(PID.TID 0000.0001) %MON ad_seaice_advice_del2        =   0.0000000000000E+00
(PID.TID 0000.0001) %MON ad_seaice_adarea_max         =   1.1988605972396E+00
(PID.TID 0000.0001) %MON ad_seaice_adarea_min         =  -4.6548554956498E-01
(PID.TID 0000.0001) %MON ad_seaice_adarea_mean        =  -7.4326085122596E-04
(PID.TID 0000.0001) %MON ad_seaice_adarea_sd          =   4.1970181466095E-02
(PID.TID 0000.0001) %MON ad_seaice_adarea_del2        =   1.3369730025246E-03
(PID.TID 0000.0001) %MON ad_seaice_adheff_max         =   2.1054521513730E+01
(PID.TID 0000.0001) %MON ad_seaice_adheff_min         =  -2.2127621981004E+01
(PID.TID 0000.0001) %MON ad_seaice_adheff_mean        =  -1.5347068428798E+00
(PID.TID 0000.0001) %MON ad_seaice_adheff_sd          =   3.6814207500753E+00
(PID.TID 0000.0001) %MON ad_seaice_adheff_del2        =   6.0513084021326E-02
(PID.TID 0000.0001) %MON ad_seaice_adhsnow_max        =   7.6356698857607E+00
(PID.TID 0000.0001) %MON ad_seaice_adhsnow_min        =  -9.1024017050996E+00
(PID.TID 0000.0001) %MON ad_seaice_adhsnow_mean       =  -5.5801944002149E-01
(PID.TID 0000.0001) %MON ad_seaice_adhsnow_sd         =   1.3458127849362E+00
(PID.TID 0000.0001) %MON ad_seaice_adhsnow_del2       =   2.3425369099195E-02
(PID.TID 0000.0001) // =======================================================
(PID.TID 0000.0001) // End AD_MONITOR SEAICE statistics
(PID.TID 0000.0001) // =======================================================
 Calling cg2d from S/R CG2D_SAD
 cg2d: Sum(rhs),rhsMax =   8.47032947254300E-20  9.34094825091746E-05
(PID.TID 0000.0001) // =======================================================
(PID.TID 0000.0001) // Begin AD_MONITOR EXF statistics for iwhen =  3
(PID.TID 0000.0001) // =======================================================
(PID.TID 0000.0001) %MON ad_exf_tsnumber              =                 72000
(PID.TID 0000.0001) %MON ad_exf_time_sec              =   6.2208000000000E+09
(PID.TID 0000.0001) %MON ad_exf_adfu_max              =   1.6525178476532E+00
(PID.TID 0000.0001) %MON ad_exf_adfu_min              =  -3.3208329682300E+00
(PID.TID 0000.0001) %MON ad_exf_adfu_mean             =   7.8777956371572E-03
(PID.TID 0000.0001) %MON ad_exf_adfu_sd               =   2.9242401534473E-01
(PID.TID 0000.0001) %MON ad_exf_adfu_del2             =   8.4210149733793E-03
(PID.TID 0000.0001) %MON ad_exf_adfv_max              =   2.1905815531078E+00
(PID.TID 0000.0001) %MON ad_exf_adfv_min              =  -1.5887523649690E+00
(PID.TID 0000.0001) %MON ad_exf_adfv_mean             =  -5.7005778984677E-04
(PID.TID 0000.0001) %MON ad_exf_adfv_sd               =   2.4725734584641E-01
(PID.TID 0000.0001) %MON ad_exf_adfv_del2             =   7.2235800596492E-03
(PID.TID 0000.0001) %MON ad_exf_adqnet_max            =   1.2122644954768E-02
(PID.TID 0000.0001) %MON ad_exf_adqnet_min            =  -7.3090900781225E-03
(PID.TID 0000.0001) %MON ad_exf_adqnet_mean           =  -4.6817125722034E-04
(PID.TID 0000.0001) %MON ad_exf_adqnet_sd             =   1.0884292465007E-03
(PID.TID 0000.0001) %MON ad_exf_adqnet_del2           =   2.3042971559577E-05
(PID.TID 0000.0001) %MON ad_exf_adempmr_max           =   5.3286784785118E+03
(PID.TID 0000.0001) %MON ad_exf_adempmr_min           =  -4.5473794723942E+03
(PID.TID 0000.0001) %MON ad_exf_adempmr_mean          =  -1.3277431006207E+01
(PID.TID 0000.0001) %MON ad_exf_adempmr_sd            =   1.9736142010972E+02
(PID.TID 0000.0001) %MON ad_exf_adempmr_del2          =   8.8398548548407E+00
(PID.TID 0000.0001) // =======================================================
(PID.TID 0000.0001) // End AD_MONITOR EXF statistics for iwhen =  3
(PID.TID 0000.0001) // =======================================================
(PID.TID 0000.0001) // =======================================================
(PID.TID 0000.0001) // Begin AD_MONITOR EXF statistics for iwhen =  1
(PID.TID 0000.0001) // =======================================================
(PID.TID 0000.0001) %MON ad_exf_tsnumber              =                 72000
(PID.TID 0000.0001) %MON ad_exf_time_sec              =   6.2208000000000E+09
(PID.TID 0000.0001) %MON ad_exf_adustress_max         =   2.2317829495955E+00
(PID.TID 0000.0001) %MON ad_exf_adustress_min         =  -4.5384891722009E+00
(PID.TID 0000.0001) %MON ad_exf_adustress_mean        =   5.4393303782729E-03
(PID.TID 0000.0001) %MON ad_exf_adustress_sd          =   3.5348256619976E-01
(PID.TID 0000.0001) %MON ad_exf_adustress_del2        =   9.7171103410220E-03
(PID.TID 0000.0001) %MON ad_exf_advstress_max         =   2.1905815531078E+00
(PID.TID 0000.0001) %MON ad_exf_advstress_min         =  -3.4413757071865E+00
(PID.TID 0000.0001) %MON ad_exf_advstress_mean        =  -9.9634799889807E-03
(PID.TID 0000.0001) %MON ad_exf_advstress_sd          =   2.9219403427590E-01
(PID.TID 0000.0001) %MON ad_exf_advstress_del2        =   7.9219599039801E-03
(PID.TID 0000.0001) %MON ad_exf_adhflux_max           =   0.0000000000000E+00
(PID.TID 0000.0001) %MON ad_exf_adhflux_min           =   0.0000000000000E+00
(PID.TID 0000.0001) %MON ad_exf_adhflux_mean          =   0.0000000000000E+00
(PID.TID 0000.0001) %MON ad_exf_adhflux_sd            =   0.0000000000000E+00
(PID.TID 0000.0001) %MON ad_exf_adhflux_del2          =   0.0000000000000E+00
(PID.TID 0000.0001) %MON ad_exf_adsflux_max           =   0.0000000000000E+00
(PID.TID 0000.0001) %MON ad_exf_adsflux_min           =   0.0000000000000E+00
(PID.TID 0000.0001) %MON ad_exf_adsflux_mean          =   0.0000000000000E+00
(PID.TID 0000.0001) %MON ad_exf_adsflux_sd            =   0.0000000000000E+00
(PID.TID 0000.0001) %MON ad_exf_adsflux_del2          =   0.0000000000000E+00
(PID.TID 0000.0001) %MON ad_exf_adwspeed_max          =   1.3135207396094E-03
(PID.TID 0000.0001) %MON ad_exf_adwspeed_min          =  -6.6534599340431E-04
(PID.TID 0000.0001) %MON ad_exf_adwspeed_mean         =  -9.8290751936130E-07
(PID.TID 0000.0001) %MON ad_exf_adwspeed_sd           =   4.2333661609721E-05
(PID.TID 0000.0001) %MON ad_exf_adwspeed_del2         =   1.6962859731633E-06
(PID.TID 0000.0001) // =======================================================
(PID.TID 0000.0001) // End AD_MONITOR EXF statistics for iwhen =  1
(PID.TID 0000.0001) // =======================================================
(PID.TID 0000.0001) // =======================================================
(PID.TID 0000.0001) // Begin AD_MONITOR EXF statistics for iwhen =  2
(PID.TID 0000.0001) // =======================================================
(PID.TID 0000.0001) %MON ad_exf_tsnumber              =                 72000
(PID.TID 0000.0001) %MON ad_exf_time_sec              =   6.2208000000000E+09
(PID.TID 0000.0001) %MON ad_exf_adatemp_max           =   1.2750362089711E-01
(PID.TID 0000.0001) %MON ad_exf_adatemp_min           =  -1.6496391629715E-01
(PID.TID 0000.0001) %MON ad_exf_adatemp_mean          =   5.2825407877122E-03
(PID.TID 0000.0001) %MON ad_exf_adatemp_sd            =   1.4110140856229E-02
(PID.TID 0000.0001) %MON ad_exf_adatemp_del2          =   3.3198424952529E-04
(PID.TID 0000.0001) %MON ad_exf_adaqh_max             =   3.8022283461653E+02
(PID.TID 0000.0001) %MON ad_exf_adaqh_min             =  -3.6816228356371E+02
(PID.TID 0000.0001) %MON ad_exf_adaqh_mean            =   1.1773214850677E+01
(PID.TID 0000.0001) %MON ad_exf_adaqh_sd              =   3.4910705790661E+01
(PID.TID 0000.0001) %MON ad_exf_adaqh_del2            =   8.6022312119378E-01
(PID.TID 0000.0001) %MON ad_exf_adlwflux_max          =   0.0000000000000E+00
(PID.TID 0000.0001) %MON ad_exf_adlwflux_min          =   0.0000000000000E+00
(PID.TID 0000.0001) %MON ad_exf_adlwflux_mean         =   0.0000000000000E+00
(PID.TID 0000.0001) %MON ad_exf_adlwflux_sd           =   0.0000000000000E+00
(PID.TID 0000.0001) %MON ad_exf_adlwflux_del2         =   0.0000000000000E+00
(PID.TID 0000.0001) %MON ad_exf_adprecip_max          =   4.5473794723942E+06
(PID.TID 0000.0001) %MON ad_exf_adprecip_min          =  -5.3286784785118E+06
(PID.TID 0000.0001) %MON ad_exf_adprecip_mean         =   1.3618412639596E+04
(PID.TID 0000.0001) %MON ad_exf_adprecip_sd           =   1.9740755904197E+05
(PID.TID 0000.0001) %MON ad_exf_adprecip_del2         =   8.8461698953530E+03
(PID.TID 0000.0001) %MON ad_exf_adswflux_max          =   0.0000000000000E+00
(PID.TID 0000.0001) %MON ad_exf_adswflux_min          =   0.0000000000000E+00
(PID.TID 0000.0001) %MON ad_exf_adswflux_mean         =   0.0000000000000E+00
(PID.TID 0000.0001) %MON ad_exf_adswflux_sd           =   0.0000000000000E+00
(PID.TID 0000.0001) %MON ad_exf_adswflux_del2         =   0.0000000000000E+00
(PID.TID 0000.0001) %MON ad_exf_adswdown_max          =   6.4635587390014E-03
(PID.TID 0000.0001) %MON ad_exf_adswdown_min          =  -1.0687399440245E-02
(PID.TID 0000.0001) %MON ad_exf_adswdown_mean         =   4.3255885073996E-04
(PID.TID 0000.0001) %MON ad_exf_adswdown_sd           =   9.8473611632254E-04
(PID.TID 0000.0001) %MON ad_exf_adswdown_del2         =   2.0565386759481E-05
(PID.TID 0000.0001) %MON ad_exf_adlwdown_max          =   7.3090900781225E-03
(PID.TID 0000.0001) %MON ad_exf_adlwdown_min          =  -1.2122644954768E-02
(PID.TID 0000.0001) %MON ad_exf_adlwdown_mean         =   4.6862132097092E-04
(PID.TID 0000.0001) %MON ad_exf_adlwdown_sd           =   1.0847939933237E-03
(PID.TID 0000.0001) %MON ad_exf_adlwdown_del2         =   2.2876696041714E-05
(PID.TID 0000.0001) %MON ad_exf_adrunoff_max          =   4.5473794723942E+06
(PID.TID 0000.0001) %MON ad_exf_adrunoff_min          =  -5.3286784785118E+06
(PID.TID 0000.0001) %MON ad_exf_adrunoff_mean         =   1.3277431006207E+04
(PID.TID 0000.0001) %MON ad_exf_adrunoff_sd           =   1.9736142010972E+05
(PID.TID 0000.0001) %MON ad_exf_adrunoff_del2         =   8.8398548548407E+03
(PID.TID 0000.0001) // =======================================================
(PID.TID 0000.0001) // End AD_MONITOR EXF statistics for iwhen =  2
(PID.TID 0000.0001) // =======================================================
(PID.TID 0000.0001)  nRecords = 123 ; filePrec =  64 ; fileIter =     72000
(PID.TID 0000.0001)     nDims =   2 , dims:
(PID.TID 0000.0001)    1: 192   1 192
(PID.TID 0000.0001)    2:  32   1  32
(PID.TID 0000.0001)     nFlds =  11 , nFl3D =   8 , fields:
(PID.TID 0000.0001)  >Uvel    < >GuNm1   < >Vvel    < >GvNm1   < >Theta   < >GtNm1   < >Salt    < >GsNm1   < >EtaN    < >dEtaHdt < >EtaH    <
(PID.TID 0000.0001) missingVal=  1.00000000000000E+00 ; nTimRec =   0 , timeList:
(PID.TID 0000.0001) READ_MFLDS_3D_RL: read field: "Uvel    ", #   1 in fldList, rec=   1
(PID.TID 0000.0001) READ_MFLDS_3D_RL: read field: "Vvel    ", #   3 in fldList, rec=   3
(PID.TID 0000.0001) READ_MFLDS_3D_RL: read field: "Theta   ", #   5 in fldList, rec=   5
(PID.TID 0000.0001) READ_MFLDS_3D_RL: read field: "Salt    ", #   7 in fldList, rec=   7
(PID.TID 0000.0001) READ_MFLDS_3D_RL: read field: "GuNm1   ", #   2 in fldList, rec=   2
(PID.TID 0000.0001) READ_MFLDS_3D_RL: read field: "GvNm1   ", #   4 in fldList, rec=   4
(PID.TID 0000.0001) READ_MFLDS_3D_RL: read field: "EtaN    ", #   9 in fldList, rec= 121
(PID.TID 0000.0001) READ_MFLDS_3D_RL: read field: "dEtaHdt ", #  10 in fldList, rec= 122
(PID.TID 0000.0001) READ_MFLDS_3D_RL: read field: "EtaH    ", #  11 in fldList, rec= 123
(PID.TID 0000.0001) READ_MFLDS_CHECK: - normal end ; reset MFLDS file-name: pickup.0000072000
(PID.TID 0000.0001) // =======================================================
(PID.TID 0000.0001) // Begin AD_MONITOR dynamic field statistics
(PID.TID 0000.0001) // =======================================================
(PID.TID 0000.0001) %MON ad_time_tsnumber             =                 72000
(PID.TID 0000.0001) %MON ad_time_secondsf             =   6.2208000000000E+09
(PID.TID 0000.0001) %MON ad_dynstat_adeta_max         =   4.4245452368328E-02
(PID.TID 0000.0001) %MON ad_dynstat_adeta_min         =  -5.7555592595452E-02
(PID.TID 0000.0001) %MON ad_dynstat_adeta_mean        =  -8.6997541665504E-06
(PID.TID 0000.0001) %MON ad_dynstat_adeta_sd          =   2.8144590467069E-03
(PID.TID 0000.0001) %MON ad_dynstat_adeta_del2        =   1.2346764211860E-04
(PID.TID 0000.0001) %MON ad_dynstat_aduvel_max        =   1.0875293902759E+02
(PID.TID 0000.0001) %MON ad_dynstat_aduvel_min        =  -1.3965663424729E+02
(PID.TID 0000.0001) %MON ad_dynstat_aduvel_mean       =   1.8099866725407E-01
(PID.TID 0000.0001) %MON ad_dynstat_aduvel_sd         =   5.6028390658337E+00
(PID.TID 0000.0001) %MON ad_dynstat_aduvel_del2       =   4.9105789665538E-02
(PID.TID 0000.0001) %MON ad_dynstat_advvel_max        =   9.7309271223980E+01
(PID.TID 0000.0001) %MON ad_dynstat_advvel_min        =  -6.4106245533512E+01
(PID.TID 0000.0001) %MON ad_dynstat_advvel_mean       =   4.0565298308337E-02
(PID.TID 0000.0001) %MON ad_dynstat_advvel_sd         =   5.1626230137087E+00
(PID.TID 0000.0001) %MON ad_dynstat_advvel_del2       =   4.1075926548839E-02
(PID.TID 0000.0001) %MON ad_dynstat_adwvel_max        =   1.7384285406241E+02
(PID.TID 0000.0001) %MON ad_dynstat_adwvel_min        =  -9.6563509936817E+01
(PID.TID 0000.0001) %MON ad_dynstat_adwvel_mean       =   3.3089307447223E-02
(PID.TID 0000.0001) %MON ad_dynstat_adwvel_sd         =   1.7815778413512E+00
(PID.TID 0000.0001) %MON ad_dynstat_adwvel_del2       =   2.3670596728321E-02
(PID.TID 0000.0001) %MON ad_dynstat_adtheta_max       =   3.5491394477344E+01
(PID.TID 0000.0001) %MON ad_dynstat_adtheta_min       =  -3.2056077057389E+01
(PID.TID 0000.0001) %MON ad_dynstat_adtheta_mean      =  -1.0997744916694E+00
(PID.TID 0000.0001) %MON ad_dynstat_adtheta_sd        =   2.3045101931120E+00
(PID.TID 0000.0001) %MON ad_dynstat_adtheta_del2      =   1.0161066621910E-02
(PID.TID 0000.0001) %MON ad_dynstat_adsalt_max        =   1.7136998742137E+02
(PID.TID 0000.0001) %MON ad_dynstat_adsalt_min        =  -1.6885247208876E+02
(PID.TID 0000.0001) %MON ad_dynstat_adsalt_mean       =  -6.4476022905578E-03
(PID.TID 0000.0001) %MON ad_dynstat_adsalt_sd         =   1.3697456884224E+00
(PID.TID 0000.0001) %MON ad_dynstat_adsalt_del2       =   2.7153048736697E-02
(PID.TID 0000.0001) %MON ad_forcing_adqnet_max        =   0.0000000000000E+00
(PID.TID 0000.0001) %MON ad_forcing_adqnet_min        =   0.0000000000000E+00
(PID.TID 0000.0001) %MON ad_forcing_adqnet_mean       =   0.0000000000000E+00
(PID.TID 0000.0001) %MON ad_forcing_adqnet_sd         =   0.0000000000000E+00
(PID.TID 0000.0001) %MON ad_forcing_adqnet_del2       =   0.0000000000000E+00
(PID.TID 0000.0001) %MON ad_forcing_adqsw_max         =   0.0000000000000E+00
(PID.TID 0000.0001) %MON ad_forcing_adqsw_min         =   0.0000000000000E+00
(PID.TID 0000.0001) %MON ad_forcing_adqsw_mean        =   0.0000000000000E+00
(PID.TID 0000.0001) %MON ad_forcing_adqsw_sd          =   0.0000000000000E+00
(PID.TID 0000.0001) %MON ad_forcing_adqsw_del2        =   0.0000000000000E+00
(PID.TID 0000.0001) %MON ad_forcing_adempmr_max       =   0.0000000000000E+00
(PID.TID 0000.0001) %MON ad_forcing_adempmr_min       =   0.0000000000000E+00
(PID.TID 0000.0001) %MON ad_forcing_adempmr_mean      =   0.0000000000000E+00
(PID.TID 0000.0001) %MON ad_forcing_adempmr_sd        =   0.0000000000000E+00
(PID.TID 0000.0001) %MON ad_forcing_adempmr_del2      =   0.0000000000000E+00
(PID.TID 0000.0001) %MON ad_forcing_adfu_max          =   0.0000000000000E+00
(PID.TID 0000.0001) %MON ad_forcing_adfu_min          =   0.0000000000000E+00
(PID.TID 0000.0001) %MON ad_forcing_adfu_mean         =   0.0000000000000E+00
(PID.TID 0000.0001) %MON ad_forcing_adfu_sd           =   0.0000000000000E+00
(PID.TID 0000.0001) %MON ad_forcing_adfu_del2         =   0.0000000000000E+00
(PID.TID 0000.0001) %MON ad_forcing_adfv_max          =   0.0000000000000E+00
(PID.TID 0000.0001) %MON ad_forcing_adfv_min          =   0.0000000000000E+00
(PID.TID 0000.0001) %MON ad_forcing_adfv_mean         =   0.0000000000000E+00
(PID.TID 0000.0001) %MON ad_forcing_adfv_sd           =   0.0000000000000E+00
(PID.TID 0000.0001) %MON ad_forcing_adfv_del2         =   0.0000000000000E+00
(PID.TID 0000.0001) // =======================================================
(PID.TID 0000.0001) // End AD_MONITOR dynamic field statistics
(PID.TID 0000.0001) // =======================================================
(PID.TID 0000.0001) // =======================================================
(PID.TID 0000.0001) // Begin AD_MONITOR SEAICE statistics
(PID.TID 0000.0001) // =======================================================
(PID.TID 0000.0001) %MON ad_seaice_tsnumber           =                 72000
(PID.TID 0000.0001) %MON ad_seaice_time_sec           =   6.2208000000000E+09
(PID.TID 0000.0001) %MON ad_seaice_aduice_max         =   0.0000000000000E+00
(PID.TID 0000.0001) %MON ad_seaice_aduice_min         =   0.0000000000000E+00
(PID.TID 0000.0001) %MON ad_seaice_aduice_mean        =   0.0000000000000E+00
(PID.TID 0000.0001) %MON ad_seaice_aduice_sd          =   0.0000000000000E+00
(PID.TID 0000.0001) %MON ad_seaice_aduice_del2        =   0.0000000000000E+00
(PID.TID 0000.0001) %MON ad_seaice_advice_max         =   0.0000000000000E+00
(PID.TID 0000.0001) %MON ad_seaice_advice_min         =   0.0000000000000E+00
(PID.TID 0000.0001) %MON ad_seaice_advice_mean        =   0.0000000000000E+00
(PID.TID 0000.0001) %MON ad_seaice_advice_sd          =   0.0000000000000E+00
(PID.TID 0000.0001) %MON ad_seaice_advice_del2        =   0.0000000000000E+00
(PID.TID 0000.0001) %MON ad_seaice_adarea_max         =   1.5307261329160E+00
(PID.TID 0000.0001) %MON ad_seaice_adarea_min         =  -6.1093946420427E-01
(PID.TID 0000.0001) %MON ad_seaice_adarea_mean        =  -3.5615956254340E-03
(PID.TID 0000.0001) %MON ad_seaice_adarea_sd          =   5.0098935714169E-02
(PID.TID 0000.0001) %MON ad_seaice_adarea_del2        =   1.4745328530394E-03
(PID.TID 0000.0001) %MON ad_seaice_adheff_max         =   2.0416765448527E+01
(PID.TID 0000.0001) %MON ad_seaice_adheff_min         =  -2.3579277684313E+01
(PID.TID 0000.0001) %MON ad_seaice_adheff_mean        =  -1.5116312511346E+00
(PID.TID 0000.0001) %MON ad_seaice_adheff_sd          =   3.6427145658545E+00
(PID.TID 0000.0001) %MON ad_seaice_adheff_del2        =   6.1840750809188E-02
(PID.TID 0000.0001) %MON ad_seaice_adhsnow_max        =   7.5755034781971E+00
(PID.TID 0000.0001) %MON ad_seaice_adhsnow_min        =  -1.0774253019191E+01
(PID.TID 0000.0001) %MON ad_seaice_adhsnow_mean       =  -5.5279307815836E-01
(PID.TID 0000.0001) %MON ad_seaice_adhsnow_sd         =   1.3389610782127E+00
(PID.TID 0000.0001) %MON ad_seaice_adhsnow_del2       =   2.4479605787185E-02
(PID.TID 0000.0001) // =======================================================
(PID.TID 0000.0001) // End AD_MONITOR SEAICE statistics
(PID.TID 0000.0001) // =======================================================
(PID.TID 0000.0001) // =======================================================
(PID.TID 0000.0001) // Gradient-check starts (grdchk_main)
(PID.TID 0000.0001) // =======================================================
(PID.TID 0000.0001) grdchk reference fc: fcref       =  1.10845870143117E+05
grad-res -------------------------------
 grad-res  proc    #    i    j    k   bi   bj iobc       fc ref            fc + eps           fc - eps
 grad-res  proc    #    i    j    k   bi   bj iobc      adj grad            fd grad          1 - fd/adj
(PID.TID 0000.0001) ====== Starts gradient-check number   1 (=ichknum) =======
 ph-test icomp, ncvarcomp, ichknum            1       55522           1
 ph-grd _loc: bi, bj, icomptest, ichknum            1           1           0           1
 ph-grd -->hit<--            1           1           1           1
(PID.TID 0000.0001) grdchk pos: i,j,k=    1    1    1 ; bi,bj=   1   1 ; iobc=  1 ; rec=   1
(PID.TID 0000.0001)  nRecords = 123 ; filePrec =  64 ; fileIter =     72000
(PID.TID 0000.0001)     nDims =   2 , dims:
(PID.TID 0000.0001)    1: 192   1 192
(PID.TID 0000.0001)    2:  32   1  32
(PID.TID 0000.0001)     nFlds =  11 , nFl3D =   8 , fields:
(PID.TID 0000.0001)  >Uvel    < >GuNm1   < >Vvel    < >GvNm1   < >Theta   < >GtNm1   < >Salt    < >GsNm1   < >EtaN    < >dEtaHdt < >EtaH    <
(PID.TID 0000.0001) missingVal=  1.00000000000000E+00 ; nTimRec =   0 , timeList:
(PID.TID 0000.0001) READ_MFLDS_3D_RL: read field: "Uvel    ", #   1 in fldList, rec=   1
(PID.TID 0000.0001) READ_MFLDS_3D_RL: read field: "Vvel    ", #   3 in fldList, rec=   3
(PID.TID 0000.0001) READ_MFLDS_3D_RL: read field: "Theta   ", #   5 in fldList, rec=   5
(PID.TID 0000.0001) READ_MFLDS_3D_RL: read field: "Salt    ", #   7 in fldList, rec=   7
(PID.TID 0000.0001) READ_MFLDS_3D_RL: read field: "GuNm1   ", #   2 in fldList, rec=   2
(PID.TID 0000.0001) READ_MFLDS_3D_RL: read field: "GvNm1   ", #   4 in fldList, rec=   4
(PID.TID 0000.0001) READ_MFLDS_3D_RL: read field: "EtaN    ", #   9 in fldList, rec= 121
(PID.TID 0000.0001) READ_MFLDS_3D_RL: read field: "dEtaHdt ", #  10 in fldList, rec= 122
(PID.TID 0000.0001) READ_MFLDS_3D_RL: read field: "EtaH    ", #  11 in fldList, rec= 123
(PID.TID 0000.0001) READ_MFLDS_CHECK: - normal end ; reset MFLDS file-name: pickup.0000072000
(PID.TID 0000.0001)  nRecords =  15 ; filePrec =  64 ; fileIter =     72000
(PID.TID 0000.0001)     nDims =   2 , dims:
(PID.TID 0000.0001)    1: 192   1 192
(PID.TID 0000.0001)    2:  32   1  32
(PID.TID 0000.0001)     nFlds =  15 , nFl3D =   0 , fields:
(PID.TID 0000.0001)  >siTICE  < >siYNEG  < >siHSNOW < >siUICE  < >siUICE_2< >siUICE_3< >siVICE  < >siVICE_2< >siVICE_3< >siHEFF  < >siHEFF_2< >siHEFF_3< >siAREA  < >siAREA_2< >siAREA_3<
(PID.TID 0000.0001) missingVal=  1.00000000000000E+00 ; nTimRec =   0 , timeList:
(PID.TID 0000.0001) READ_MFLDS_LEV_RL: read field: "siTICE  ", #   1 in fldList, rec=   1
(PID.TID 0000.0001) READ_MFLDS_3D_RL: read field: "siAREA  ", #  13 in fldList, rec=  13
(PID.TID 0000.0001) READ_MFLDS_3D_RL: read field: "siHEFF  ", #  10 in fldList, rec=  10
(PID.TID 0000.0001) READ_MFLDS_3D_RL: read field: "siHSNOW ", #   3 in fldList, rec=   3
(PID.TID 0000.0001) READ_MFLDS_3D_RL: read field: "siUICE  ", #   4 in fldList, rec=   4
(PID.TID 0000.0001) READ_MFLDS_3D_RL: read field: "siVICE  ", #   7 in fldList, rec=   7
(PID.TID 0000.0001) READ_MFLDS_CHECK: - normal end ; reset MFLDS file-name: pickup_seaice.0000072000
(PID.TID 0000.0001) // =======================================================
(PID.TID 0000.0001) // Model current state
(PID.TID 0000.0001) // =======================================================
(PID.TID 0000.0001) 
(PID.TID 0000.0001) SOLVE_FOR_PRESSURE: putPmEinXvector =    F
 cg2d: Sum(rhs),rhsMax =   2.21291478476371E+03  2.01372753928932E+01
 cg2d: Sum(rhs),rhsMax =   2.21288691558707E+03  2.05338887553343E+01
 cg2d: Sum(rhs),rhsMax =   2.21267837851560E+03  2.07023141469158E+01
 cg2d: Sum(rhs),rhsMax =   2.21246317565716E+03  2.08570978494175E+01
 cg2d: Sum(rhs),rhsMax =   2.21223975258875E+03  2.09779531474990E+01
(PID.TID 0000.0001) Did not write pickup because writePickupAtEnd = FALSE
(PID.TID 0000.0001)   early fc =  0.000000000000000D+00
 --> objf_test(bi,bj)   =  0.971423646950730D+04
 --> objf_test(bi,bj)   =  0.743444246918396D+04
 --> objf_test(bi,bj)   =  0.916061123401046D+04
 --> objf_test(bi,bj)   =  0.776111598463343D+04
 --> objf_test(bi,bj)   =  0.645188365332502D+04
 --> objf_test(bi,bj)   =  0.121082946427275D+05
 --> objf_test(bi,bj)   =  0.130205818019604D+05
 --> objf_test(bi,bj)   =  0.134004371122149D+05
 --> objf_test(bi,bj)   =  0.704975746330787D+04
 --> objf_test(bi,bj)   =  0.654290309790949D+04
 --> objf_test(bi,bj)   =  0.974952441766972D+04
 --> objf_test(bi,bj)   =  0.845212528302448D+04
(PID.TID 0000.0001)   local fc =  0.110845913629474D+06
(PID.TID 0000.0001)  global fc =  0.110845913629474D+06
(PID.TID 0000.0001) grdchk perturb(+)fc: fcpertplus  =  1.10845913629474E+05
(PID.TID 0000.0001)  nRecords = 123 ; filePrec =  64 ; fileIter =     72000
(PID.TID 0000.0001)     nDims =   2 , dims:
(PID.TID 0000.0001)    1: 192   1 192
(PID.TID 0000.0001)    2:  32   1  32
(PID.TID 0000.0001)     nFlds =  11 , nFl3D =   8 , fields:
(PID.TID 0000.0001)  >Uvel    < >GuNm1   < >Vvel    < >GvNm1   < >Theta   < >GtNm1   < >Salt    < >GsNm1   < >EtaN    < >dEtaHdt < >EtaH    <
(PID.TID 0000.0001) missingVal=  1.00000000000000E+00 ; nTimRec =   0 , timeList:
(PID.TID 0000.0001) READ_MFLDS_3D_RL: read field: "Uvel    ", #   1 in fldList, rec=   1
(PID.TID 0000.0001) READ_MFLDS_3D_RL: read field: "Vvel    ", #   3 in fldList, rec=   3
(PID.TID 0000.0001) READ_MFLDS_3D_RL: read field: "Theta   ", #   5 in fldList, rec=   5
(PID.TID 0000.0001) READ_MFLDS_3D_RL: read field: "Salt    ", #   7 in fldList, rec=   7
(PID.TID 0000.0001) READ_MFLDS_3D_RL: read field: "GuNm1   ", #   2 in fldList, rec=   2
(PID.TID 0000.0001) READ_MFLDS_3D_RL: read field: "GvNm1   ", #   4 in fldList, rec=   4
(PID.TID 0000.0001) READ_MFLDS_3D_RL: read field: "EtaN    ", #   9 in fldList, rec= 121
(PID.TID 0000.0001) READ_MFLDS_3D_RL: read field: "dEtaHdt ", #  10 in fldList, rec= 122
(PID.TID 0000.0001) READ_MFLDS_3D_RL: read field: "EtaH    ", #  11 in fldList, rec= 123
(PID.TID 0000.0001) READ_MFLDS_CHECK: - normal end ; reset MFLDS file-name: pickup.0000072000
(PID.TID 0000.0001)  nRecords =  15 ; filePrec =  64 ; fileIter =     72000
(PID.TID 0000.0001)     nDims =   2 , dims:
(PID.TID 0000.0001)    1: 192   1 192
(PID.TID 0000.0001)    2:  32   1  32
(PID.TID 0000.0001)     nFlds =  15 , nFl3D =   0 , fields:
(PID.TID 0000.0001)  >siTICE  < >siYNEG  < >siHSNOW < >siUICE  < >siUICE_2< >siUICE_3< >siVICE  < >siVICE_2< >siVICE_3< >siHEFF  < >siHEFF_2< >siHEFF_3< >siAREA  < >siAREA_2< >siAREA_3<
(PID.TID 0000.0001) missingVal=  1.00000000000000E+00 ; nTimRec =   0 , timeList:
(PID.TID 0000.0001) READ_MFLDS_LEV_RL: read field: "siTICE  ", #   1 in fldList, rec=   1
(PID.TID 0000.0001) READ_MFLDS_3D_RL: read field: "siAREA  ", #  13 in fldList, rec=  13
(PID.TID 0000.0001) READ_MFLDS_3D_RL: read field: "siHEFF  ", #  10 in fldList, rec=  10
(PID.TID 0000.0001) READ_MFLDS_3D_RL: read field: "siHSNOW ", #   3 in fldList, rec=   3
(PID.TID 0000.0001) READ_MFLDS_3D_RL: read field: "siUICE  ", #   4 in fldList, rec=   4
(PID.TID 0000.0001) READ_MFLDS_3D_RL: read field: "siVICE  ", #   7 in fldList, rec=   7
(PID.TID 0000.0001) READ_MFLDS_CHECK: - normal end ; reset MFLDS file-name: pickup_seaice.0000072000
(PID.TID 0000.0001) // =======================================================
(PID.TID 0000.0001) // Model current state
(PID.TID 0000.0001) // =======================================================
(PID.TID 0000.0001) 
(PID.TID 0000.0001) SOLVE_FOR_PRESSURE: putPmEinXvector =    F
 cg2d: Sum(rhs),rhsMax =   2.21291478450160E+03  2.01372753928932E+01
 cg2d: Sum(rhs),rhsMax =   2.21288691506478E+03  2.05338887347084E+01
 cg2d: Sum(rhs),rhsMax =   2.21267837762353E+03  2.07023141215040E+01
 cg2d: Sum(rhs),rhsMax =   2.21246317450771E+03  2.08570978341824E+01
 cg2d: Sum(rhs),rhsMax =   2.21223975116120E+03  2.09779531389197E+01
(PID.TID 0000.0001) Did not write pickup because writePickupAtEnd = FALSE
(PID.TID 0000.0001)   early fc =  0.000000000000000D+00
 --> objf_test(bi,bj)   =  0.971415772253970D+04
 --> objf_test(bi,bj)   =  0.743444246924280D+04
 --> objf_test(bi,bj)   =  0.916061123392993D+04
 --> objf_test(bi,bj)   =  0.776111598451326D+04
 --> objf_test(bi,bj)   =  0.645188365332142D+04
 --> objf_test(bi,bj)   =  0.121082946429354D+05
 --> objf_test(bi,bj)   =  0.130205818020087D+05
 --> objf_test(bi,bj)   =  0.134004371121814D+05
 --> objf_test(bi,bj)   =  0.704975746326407D+04
 --> objf_test(bi,bj)   =  0.654289970787900D+04
 --> objf_test(bi,bj)   =  0.974952429739913D+04
 --> objf_test(bi,bj)   =  0.845212069458988D+04
(PID.TID 0000.0001)   local fc =  0.110845826783805D+06
(PID.TID 0000.0001)  global fc =  0.110845826783805D+06
(PID.TID 0000.0001) grdchk perturb(-)fc: fcpertminus =  1.10845826783805E+05
grad-res -------------------------------
 grad-res     0    1    1    1    1    1    1    1   1.10845870143E+05  1.10845913629E+05  1.10845826784E+05
 grad-res     0    1    1    1    0    1    1    1   4.33604869744E+00  4.34228348895E+00 -1.43789702104E-03
(PID.TID 0000.0001)  ADM  ref_cost_function      =  1.10845870143117E+05
(PID.TID 0000.0001)  ADM  adjoint_gradient       =  4.33604869744463E+00
(PID.TID 0000.0001)  ADM  finite-diff_grad       =  4.34228348894976E+00
(PID.TID 0000.0001) ====== End of gradient-check number   1 (ierr=  0) =======
(PID.TID 0000.0001) ====== Starts gradient-check number   2 (=ichknum) =======
 ph-test icomp, ncvarcomp, ichknum            2       55522           2
 ph-grd _loc: bi, bj, icomptest, ichknum            1           1           1           2
 ph-grd -->hit<--            2           1           1           1
(PID.TID 0000.0001) grdchk pos: i,j,k=    2    1    1 ; bi,bj=   1   1 ; iobc=  1 ; rec=   1
(PID.TID 0000.0001)  nRecords = 123 ; filePrec =  64 ; fileIter =     72000
(PID.TID 0000.0001)     nDims =   2 , dims:
(PID.TID 0000.0001)    1: 192   1 192
(PID.TID 0000.0001)    2:  32   1  32
(PID.TID 0000.0001)     nFlds =  11 , nFl3D =   8 , fields:
(PID.TID 0000.0001)  >Uvel    < >GuNm1   < >Vvel    < >GvNm1   < >Theta   < >GtNm1   < >Salt    < >GsNm1   < >EtaN    < >dEtaHdt < >EtaH    <
(PID.TID 0000.0001) missingVal=  1.00000000000000E+00 ; nTimRec =   0 , timeList:
(PID.TID 0000.0001) READ_MFLDS_3D_RL: read field: "Uvel    ", #   1 in fldList, rec=   1
(PID.TID 0000.0001) READ_MFLDS_3D_RL: read field: "Vvel    ", #   3 in fldList, rec=   3
(PID.TID 0000.0001) READ_MFLDS_3D_RL: read field: "Theta   ", #   5 in fldList, rec=   5
(PID.TID 0000.0001) READ_MFLDS_3D_RL: read field: "Salt    ", #   7 in fldList, rec=   7
(PID.TID 0000.0001) READ_MFLDS_3D_RL: read field: "GuNm1   ", #   2 in fldList, rec=   2
(PID.TID 0000.0001) READ_MFLDS_3D_RL: read field: "GvNm1   ", #   4 in fldList, rec=   4
(PID.TID 0000.0001) READ_MFLDS_3D_RL: read field: "EtaN    ", #   9 in fldList, rec= 121
(PID.TID 0000.0001) READ_MFLDS_3D_RL: read field: "dEtaHdt ", #  10 in fldList, rec= 122
(PID.TID 0000.0001) READ_MFLDS_3D_RL: read field: "EtaH    ", #  11 in fldList, rec= 123
(PID.TID 0000.0001) READ_MFLDS_CHECK: - normal end ; reset MFLDS file-name: pickup.0000072000
(PID.TID 0000.0001)  nRecords =  15 ; filePrec =  64 ; fileIter =     72000
(PID.TID 0000.0001)     nDims =   2 , dims:
(PID.TID 0000.0001)    1: 192   1 192
(PID.TID 0000.0001)    2:  32   1  32
(PID.TID 0000.0001)     nFlds =  15 , nFl3D =   0 , fields:
(PID.TID 0000.0001)  >siTICE  < >siYNEG  < >siHSNOW < >siUICE  < >siUICE_2< >siUICE_3< >siVICE  < >siVICE_2< >siVICE_3< >siHEFF  < >siHEFF_2< >siHEFF_3< >siAREA  < >siAREA_2< >siAREA_3<
(PID.TID 0000.0001) missingVal=  1.00000000000000E+00 ; nTimRec =   0 , timeList:
(PID.TID 0000.0001) READ_MFLDS_LEV_RL: read field: "siTICE  ", #   1 in fldList, rec=   1
(PID.TID 0000.0001) READ_MFLDS_3D_RL: read field: "siAREA  ", #  13 in fldList, rec=  13
(PID.TID 0000.0001) READ_MFLDS_3D_RL: read field: "siHEFF  ", #  10 in fldList, rec=  10
(PID.TID 0000.0001) READ_MFLDS_3D_RL: read field: "siHSNOW ", #   3 in fldList, rec=   3
(PID.TID 0000.0001) READ_MFLDS_3D_RL: read field: "siUICE  ", #   4 in fldList, rec=   4
(PID.TID 0000.0001) READ_MFLDS_3D_RL: read field: "siVICE  ", #   7 in fldList, rec=   7
(PID.TID 0000.0001) READ_MFLDS_CHECK: - normal end ; reset MFLDS file-name: pickup_seaice.0000072000
(PID.TID 0000.0001) // =======================================================
(PID.TID 0000.0001) // Model current state
(PID.TID 0000.0001) // =======================================================
(PID.TID 0000.0001) 
(PID.TID 0000.0001) SOLVE_FOR_PRESSURE: putPmEinXvector =    F
 cg2d: Sum(rhs),rhsMax =   2.21291478484988E+03  2.01372753928932E+01
 cg2d: Sum(rhs),rhsMax =   2.21288691575900E+03  2.05338887627414E+01
 cg2d: Sum(rhs),rhsMax =   2.21267837866140E+03  2.07023141554888E+01
 cg2d: Sum(rhs),rhsMax =   2.21246319871866E+03  2.08570978542323E+01
 cg2d: Sum(rhs),rhsMax =   2.21223974874701E+03  2.09779531496408E+01
(PID.TID 0000.0001) Did not write pickup because writePickupAtEnd = FALSE
(PID.TID 0000.0001)   early fc =  0.000000000000000D+00
 --> objf_test(bi,bj)   =  0.971423709938509D+04
 --> objf_test(bi,bj)   =  0.743444246916164D+04
 --> objf_test(bi,bj)   =  0.916061123399173D+04
 --> objf_test(bi,bj)   =  0.776111598467575D+04
 --> objf_test(bi,bj)   =  0.645188365332747D+04
 --> objf_test(bi,bj)   =  0.121082946426513D+05
 --> objf_test(bi,bj)   =  0.130205818020422D+05
 --> objf_test(bi,bj)   =  0.134004371121735D+05
 --> objf_test(bi,bj)   =  0.704975746331356D+04
 --> objf_test(bi,bj)   =  0.654290152989221D+04
 --> objf_test(bi,bj)   =  0.974952513860381D+04
 --> objf_test(bi,bj)   =  0.845212416594211D+04
(PID.TID 0000.0001)   local fc =  0.110845912295160D+06
(PID.TID 0000.0001)  global fc =  0.110845912295160D+06
(PID.TID 0000.0001) grdchk perturb(+)fc: fcpertplus  =  1.10845912295160E+05
(PID.TID 0000.0001)  nRecords = 123 ; filePrec =  64 ; fileIter =     72000
(PID.TID 0000.0001)     nDims =   2 , dims:
(PID.TID 0000.0001)    1: 192   1 192
(PID.TID 0000.0001)    2:  32   1  32
(PID.TID 0000.0001)     nFlds =  11 , nFl3D =   8 , fields:
(PID.TID 0000.0001)  >Uvel    < >GuNm1   < >Vvel    < >GvNm1   < >Theta   < >GtNm1   < >Salt    < >GsNm1   < >EtaN    < >dEtaHdt < >EtaH    <
(PID.TID 0000.0001) missingVal=  1.00000000000000E+00 ; nTimRec =   0 , timeList:
(PID.TID 0000.0001) READ_MFLDS_3D_RL: read field: "Uvel    ", #   1 in fldList, rec=   1
(PID.TID 0000.0001) READ_MFLDS_3D_RL: read field: "Vvel    ", #   3 in fldList, rec=   3
(PID.TID 0000.0001) READ_MFLDS_3D_RL: read field: "Theta   ", #   5 in fldList, rec=   5
(PID.TID 0000.0001) READ_MFLDS_3D_RL: read field: "Salt    ", #   7 in fldList, rec=   7
(PID.TID 0000.0001) READ_MFLDS_3D_RL: read field: "GuNm1   ", #   2 in fldList, rec=   2
(PID.TID 0000.0001) READ_MFLDS_3D_RL: read field: "GvNm1   ", #   4 in fldList, rec=   4
(PID.TID 0000.0001) READ_MFLDS_3D_RL: read field: "EtaN    ", #   9 in fldList, rec= 121
(PID.TID 0000.0001) READ_MFLDS_3D_RL: read field: "dEtaHdt ", #  10 in fldList, rec= 122
(PID.TID 0000.0001) READ_MFLDS_3D_RL: read field: "EtaH    ", #  11 in fldList, rec= 123
(PID.TID 0000.0001) READ_MFLDS_CHECK: - normal end ; reset MFLDS file-name: pickup.0000072000
(PID.TID 0000.0001)  nRecords =  15 ; filePrec =  64 ; fileIter =     72000
(PID.TID 0000.0001)     nDims =   2 , dims:
(PID.TID 0000.0001)    1: 192   1 192
(PID.TID 0000.0001)    2:  32   1  32
(PID.TID 0000.0001)     nFlds =  15 , nFl3D =   0 , fields:
(PID.TID 0000.0001)  >siTICE  < >siYNEG  < >siHSNOW < >siUICE  < >siUICE_2< >siUICE_3< >siVICE  < >siVICE_2< >siVICE_3< >siHEFF  < >siHEFF_2< >siHEFF_3< >siAREA  < >siAREA_2< >siAREA_3<
(PID.TID 0000.0001) missingVal=  1.00000000000000E+00 ; nTimRec =   0 , timeList:
(PID.TID 0000.0001) READ_MFLDS_LEV_RL: read field: "siTICE  ", #   1 in fldList, rec=   1
(PID.TID 0000.0001) READ_MFLDS_3D_RL: read field: "siAREA  ", #  13 in fldList, rec=  13
(PID.TID 0000.0001) READ_MFLDS_3D_RL: read field: "siHEFF  ", #  10 in fldList, rec=  10
(PID.TID 0000.0001) READ_MFLDS_3D_RL: read field: "siHSNOW ", #   3 in fldList, rec=   3
(PID.TID 0000.0001) READ_MFLDS_3D_RL: read field: "siUICE  ", #   4 in fldList, rec=   4
(PID.TID 0000.0001) READ_MFLDS_3D_RL: read field: "siVICE  ", #   7 in fldList, rec=   7
(PID.TID 0000.0001) READ_MFLDS_CHECK: - normal end ; reset MFLDS file-name: pickup_seaice.0000072000
(PID.TID 0000.0001) // =======================================================
(PID.TID 0000.0001) // Model current state
(PID.TID 0000.0001) // =======================================================
(PID.TID 0000.0001) 
(PID.TID 0000.0001) SOLVE_FOR_PRESSURE: putPmEinXvector =    F
 cg2d: Sum(rhs),rhsMax =   2.21291478441542E+03  2.01372753928932E+01
 cg2d: Sum(rhs),rhsMax =   2.21288691489284E+03  2.05338887272938E+01
 cg2d: Sum(rhs),rhsMax =   2.21267837747773E+03  2.07023141129373E+01
 cg2d: Sum(rhs),rhsMax =   2.21246317427792E+03  2.08570978293668E+01
 cg2d: Sum(rhs),rhsMax =   2.21223975087023E+03  2.09779531363493E+01
(PID.TID 0000.0001) Did not write pickup because writePickupAtEnd = FALSE
(PID.TID 0000.0001)   early fc =  0.000000000000000D+00
 --> objf_test(bi,bj)   =  0.971415711566074D+04
 --> objf_test(bi,bj)   =  0.743444246926485D+04
 --> objf_test(bi,bj)   =  0.916061123390451D+04
 --> objf_test(bi,bj)   =  0.776111598447022D+04
 --> objf_test(bi,bj)   =  0.645188365331996D+04
 --> objf_test(bi,bj)   =  0.121082946430107D+05
 --> objf_test(bi,bj)   =  0.130205818020203D+05
 --> objf_test(bi,bj)   =  0.134004371121729D+05
 --> objf_test(bi,bj)   =  0.704975746324907D+04
 --> objf_test(bi,bj)   =  0.654290127379356D+04
 --> objf_test(bi,bj)   =  0.974952441748223D+04
 --> objf_test(bi,bj)   =  0.845212181135378D+04
(PID.TID 0000.0001)   local fc =  0.110845828979703D+06
(PID.TID 0000.0001)  global fc =  0.110845828979703D+06
(PID.TID 0000.0001) grdchk perturb(-)fc: fcpertminus =  1.10845828979703E+05
grad-res -------------------------------
 grad-res     0    2    2    1    1    1    1    1   1.10845870143E+05  1.10845912295E+05  1.10845828980E+05
 grad-res     0    2    2    2    0    1    1    1   4.12975026224E+00  4.16577287615E+00 -8.72270999948E-03
(PID.TID 0000.0001)  ADM  ref_cost_function      =  1.10845870143117E+05
(PID.TID 0000.0001)  ADM  adjoint_gradient       =  4.12975026224146E+00
(PID.TID 0000.0001)  ADM  finite-diff_grad       =  4.16577287614928E+00
(PID.TID 0000.0001) ====== End of gradient-check number   2 (ierr=  0) =======
(PID.TID 0000.0001) ====== Starts gradient-check number   3 (=ichknum) =======
 ph-test icomp, ncvarcomp, ichknum            3       55522           3
 ph-grd _loc: bi, bj, icomptest, ichknum            1           1           2           3
 ph-grd -->hit<--            3           1           1           1
(PID.TID 0000.0001) grdchk pos: i,j,k=    3    1    1 ; bi,bj=   1   1 ; iobc=  1 ; rec=   1
(PID.TID 0000.0001)  nRecords = 123 ; filePrec =  64 ; fileIter =     72000
(PID.TID 0000.0001)     nDims =   2 , dims:
(PID.TID 0000.0001)    1: 192   1 192
(PID.TID 0000.0001)    2:  32   1  32
(PID.TID 0000.0001)     nFlds =  11 , nFl3D =   8 , fields:
(PID.TID 0000.0001)  >Uvel    < >GuNm1   < >Vvel    < >GvNm1   < >Theta   < >GtNm1   < >Salt    < >GsNm1   < >EtaN    < >dEtaHdt < >EtaH    <
(PID.TID 0000.0001) missingVal=  1.00000000000000E+00 ; nTimRec =   0 , timeList:
(PID.TID 0000.0001) READ_MFLDS_3D_RL: read field: "Uvel    ", #   1 in fldList, rec=   1
(PID.TID 0000.0001) READ_MFLDS_3D_RL: read field: "Vvel    ", #   3 in fldList, rec=   3
(PID.TID 0000.0001) READ_MFLDS_3D_RL: read field: "Theta   ", #   5 in fldList, rec=   5
(PID.TID 0000.0001) READ_MFLDS_3D_RL: read field: "Salt    ", #   7 in fldList, rec=   7
(PID.TID 0000.0001) READ_MFLDS_3D_RL: read field: "GuNm1   ", #   2 in fldList, rec=   2
(PID.TID 0000.0001) READ_MFLDS_3D_RL: read field: "GvNm1   ", #   4 in fldList, rec=   4
(PID.TID 0000.0001) READ_MFLDS_3D_RL: read field: "EtaN    ", #   9 in fldList, rec= 121
(PID.TID 0000.0001) READ_MFLDS_3D_RL: read field: "dEtaHdt ", #  10 in fldList, rec= 122
(PID.TID 0000.0001) READ_MFLDS_3D_RL: read field: "EtaH    ", #  11 in fldList, rec= 123
(PID.TID 0000.0001) READ_MFLDS_CHECK: - normal end ; reset MFLDS file-name: pickup.0000072000
(PID.TID 0000.0001)  nRecords =  15 ; filePrec =  64 ; fileIter =     72000
(PID.TID 0000.0001)     nDims =   2 , dims:
(PID.TID 0000.0001)    1: 192   1 192
(PID.TID 0000.0001)    2:  32   1  32
(PID.TID 0000.0001)     nFlds =  15 , nFl3D =   0 , fields:
(PID.TID 0000.0001)  >siTICE  < >siYNEG  < >siHSNOW < >siUICE  < >siUICE_2< >siUICE_3< >siVICE  < >siVICE_2< >siVICE_3< >siHEFF  < >siHEFF_2< >siHEFF_3< >siAREA  < >siAREA_2< >siAREA_3<
(PID.TID 0000.0001) missingVal=  1.00000000000000E+00 ; nTimRec =   0 , timeList:
(PID.TID 0000.0001) READ_MFLDS_LEV_RL: read field: "siTICE  ", #   1 in fldList, rec=   1
(PID.TID 0000.0001) READ_MFLDS_3D_RL: read field: "siAREA  ", #  13 in fldList, rec=  13
(PID.TID 0000.0001) READ_MFLDS_3D_RL: read field: "siHEFF  ", #  10 in fldList, rec=  10
(PID.TID 0000.0001) READ_MFLDS_3D_RL: read field: "siHSNOW ", #   3 in fldList, rec=   3
(PID.TID 0000.0001) READ_MFLDS_3D_RL: read field: "siUICE  ", #   4 in fldList, rec=   4
(PID.TID 0000.0001) READ_MFLDS_3D_RL: read field: "siVICE  ", #   7 in fldList, rec=   7
(PID.TID 0000.0001) READ_MFLDS_CHECK: - normal end ; reset MFLDS file-name: pickup_seaice.0000072000
(PID.TID 0000.0001) // =======================================================
(PID.TID 0000.0001) // Model current state
(PID.TID 0000.0001) // =======================================================
(PID.TID 0000.0001) 
(PID.TID 0000.0001) SOLVE_FOR_PRESSURE: putPmEinXvector =    F
 cg2d: Sum(rhs),rhsMax =   2.21291478494371E+03  2.01372753928932E+01
 cg2d: Sum(rhs),rhsMax =   2.21288691594464E+03  2.05338887690879E+01
 cg2d: Sum(rhs),rhsMax =   2.21267837904829E+03  2.07023141625613E+01
 cg2d: Sum(rhs),rhsMax =   2.21246317628399E+03  2.08570978584384E+01
 cg2d: Sum(rhs),rhsMax =   2.21223975338483E+03  2.09779531528648E+01
(PID.TID 0000.0001) Did not write pickup because writePickupAtEnd = FALSE
(PID.TID 0000.0001)   early fc =  0.000000000000000D+00
 --> objf_test(bi,bj)   =  0.971423050653068D+04
 --> objf_test(bi,bj)   =  0.743444246914347D+04
 --> objf_test(bi,bj)   =  0.916061123406101D+04
 --> objf_test(bi,bj)   =  0.776111598471279D+04
 --> objf_test(bi,bj)   =  0.645188365332752D+04
 --> objf_test(bi,bj)   =  0.121082946425902D+05
 --> objf_test(bi,bj)   =  0.130205818019335D+05
 --> objf_test(bi,bj)   =  0.134004371122334D+05
 --> objf_test(bi,bj)   =  0.704975746333572D+04
 --> objf_test(bi,bj)   =  0.654290140723860D+04
 --> objf_test(bi,bj)   =  0.974952434557166D+04
 --> objf_test(bi,bj)   =  0.845212329527586D+04
(PID.TID 0000.0001)   local fc =  0.110845903915954D+06
(PID.TID 0000.0001)  global fc =  0.110845903915954D+06
(PID.TID 0000.0001) grdchk perturb(+)fc: fcpertplus  =  1.10845903915954E+05
(PID.TID 0000.0001)  nRecords = 123 ; filePrec =  64 ; fileIter =     72000
(PID.TID 0000.0001)     nDims =   2 , dims:
(PID.TID 0000.0001)    1: 192   1 192
(PID.TID 0000.0001)    2:  32   1  32
(PID.TID 0000.0001)     nFlds =  11 , nFl3D =   8 , fields:
(PID.TID 0000.0001)  >Uvel    < >GuNm1   < >Vvel    < >GvNm1   < >Theta   < >GtNm1   < >Salt    < >GsNm1   < >EtaN    < >dEtaHdt < >EtaH    <
(PID.TID 0000.0001) missingVal=  1.00000000000000E+00 ; nTimRec =   0 , timeList:
(PID.TID 0000.0001) READ_MFLDS_3D_RL: read field: "Uvel    ", #   1 in fldList, rec=   1
(PID.TID 0000.0001) READ_MFLDS_3D_RL: read field: "Vvel    ", #   3 in fldList, rec=   3
(PID.TID 0000.0001) READ_MFLDS_3D_RL: read field: "Theta   ", #   5 in fldList, rec=   5
(PID.TID 0000.0001) READ_MFLDS_3D_RL: read field: "Salt    ", #   7 in fldList, rec=   7
(PID.TID 0000.0001) READ_MFLDS_3D_RL: read field: "GuNm1   ", #   2 in fldList, rec=   2
(PID.TID 0000.0001) READ_MFLDS_3D_RL: read field: "GvNm1   ", #   4 in fldList, rec=   4
(PID.TID 0000.0001) READ_MFLDS_3D_RL: read field: "EtaN    ", #   9 in fldList, rec= 121
(PID.TID 0000.0001) READ_MFLDS_3D_RL: read field: "dEtaHdt ", #  10 in fldList, rec= 122
(PID.TID 0000.0001) READ_MFLDS_3D_RL: read field: "EtaH    ", #  11 in fldList, rec= 123
(PID.TID 0000.0001) READ_MFLDS_CHECK: - normal end ; reset MFLDS file-name: pickup.0000072000
(PID.TID 0000.0001)  nRecords =  15 ; filePrec =  64 ; fileIter =     72000
(PID.TID 0000.0001)     nDims =   2 , dims:
(PID.TID 0000.0001)    1: 192   1 192
(PID.TID 0000.0001)    2:  32   1  32
(PID.TID 0000.0001)     nFlds =  15 , nFl3D =   0 , fields:
(PID.TID 0000.0001)  >siTICE  < >siYNEG  < >siHSNOW < >siUICE  < >siUICE_2< >siUICE_3< >siVICE  < >siVICE_2< >siVICE_3< >siHEFF  < >siHEFF_2< >siHEFF_3< >siAREA  < >siAREA_2< >siAREA_3<
(PID.TID 0000.0001) missingVal=  1.00000000000000E+00 ; nTimRec =   0 , timeList:
(PID.TID 0000.0001) READ_MFLDS_LEV_RL: read field: "siTICE  ", #   1 in fldList, rec=   1
(PID.TID 0000.0001) READ_MFLDS_3D_RL: read field: "siAREA  ", #  13 in fldList, rec=  13
(PID.TID 0000.0001) READ_MFLDS_3D_RL: read field: "siHEFF  ", #  10 in fldList, rec=  10
(PID.TID 0000.0001) READ_MFLDS_3D_RL: read field: "siHSNOW ", #   3 in fldList, rec=   3
(PID.TID 0000.0001) READ_MFLDS_3D_RL: read field: "siUICE  ", #   4 in fldList, rec=   4
(PID.TID 0000.0001) READ_MFLDS_3D_RL: read field: "siVICE  ", #   7 in fldList, rec=   7
(PID.TID 0000.0001) READ_MFLDS_CHECK: - normal end ; reset MFLDS file-name: pickup_seaice.0000072000
(PID.TID 0000.0001) // =======================================================
(PID.TID 0000.0001) // Model current state
(PID.TID 0000.0001) // =======================================================
(PID.TID 0000.0001) 
(PID.TID 0000.0001) SOLVE_FOR_PRESSURE: putPmEinXvector =    F
 cg2d: Sum(rhs),rhsMax =   2.21291478432160E+03  2.01372753928932E+01
 cg2d: Sum(rhs),rhsMax =   2.21288691470721E+03  2.05338887209526E+01
 cg2d: Sum(rhs),rhsMax =   2.21267837720224E+03  2.07023141058650E+01
 cg2d: Sum(rhs),rhsMax =   2.21246317391449E+03  2.08570978251723E+01
 cg2d: Sum(rhs),rhsMax =   2.21223975042080E+03  2.09779531335708E+01
(PID.TID 0000.0001) Did not write pickup because writePickupAtEnd = FALSE
(PID.TID 0000.0001)   early fc =  0.000000000000000D+00
 --> objf_test(bi,bj)   =  0.971416370872564D+04
 --> objf_test(bi,bj)   =  0.743444246928326D+04
 --> objf_test(bi,bj)   =  0.916061123388106D+04
 --> objf_test(bi,bj)   =  0.776111598443397D+04
 --> objf_test(bi,bj)   =  0.645188365331895D+04
 --> objf_test(bi,bj)   =  0.121082946430727D+05
 --> objf_test(bi,bj)   =  0.130205818020334D+05
 --> objf_test(bi,bj)   =  0.134004371121643D+05
 --> objf_test(bi,bj)   =  0.704975746323648D+04
 --> objf_test(bi,bj)   =  0.654290139641981D+04
 --> objf_test(bi,bj)   =  0.974952441744250D+04
 --> objf_test(bi,bj)   =  0.845212268148156D+04
(PID.TID 0000.0001)   local fc =  0.110845836565494D+06
(PID.TID 0000.0001)  global fc =  0.110845836565494D+06
(PID.TID 0000.0001) grdchk perturb(-)fc: fcpertminus =  1.10845836565494E+05
grad-res -------------------------------
 grad-res     0    3    3    1    1    1    1    1   1.10845870143E+05  1.10845903916E+05  1.10845836565E+05
 grad-res     0    3    3    3    0    1    1    1   3.37114592626E+00  3.36752303920E+00  1.07467524221E-03
(PID.TID 0000.0001)  ADM  ref_cost_function      =  1.10845870143117E+05
(PID.TID 0000.0001)  ADM  adjoint_gradient       =  3.37114592626120E+00
(PID.TID 0000.0001)  ADM  finite-diff_grad       =  3.36752303919639E+00
(PID.TID 0000.0001) ====== End of gradient-check number   3 (ierr=  0) =======
(PID.TID 0000.0001) ====== Starts gradient-check number   4 (=ichknum) =======
 ph-test icomp, ncvarcomp, ichknum            4       55522           4
 ph-grd _loc: bi, bj, icomptest, ichknum            1           1           3           4
 ph-grd -->hit<--            4           1           1           1
(PID.TID 0000.0001) grdchk pos: i,j,k=    4    1    1 ; bi,bj=   1   1 ; iobc=  1 ; rec=   1
(PID.TID 0000.0001)  nRecords = 123 ; filePrec =  64 ; fileIter =     72000
(PID.TID 0000.0001)     nDims =   2 , dims:
(PID.TID 0000.0001)    1: 192   1 192
(PID.TID 0000.0001)    2:  32   1  32
(PID.TID 0000.0001)     nFlds =  11 , nFl3D =   8 , fields:
(PID.TID 0000.0001)  >Uvel    < >GuNm1   < >Vvel    < >GvNm1   < >Theta   < >GtNm1   < >Salt    < >GsNm1   < >EtaN    < >dEtaHdt < >EtaH    <
(PID.TID 0000.0001) missingVal=  1.00000000000000E+00 ; nTimRec =   0 , timeList:
(PID.TID 0000.0001) READ_MFLDS_3D_RL: read field: "Uvel    ", #   1 in fldList, rec=   1
(PID.TID 0000.0001) READ_MFLDS_3D_RL: read field: "Vvel    ", #   3 in fldList, rec=   3
(PID.TID 0000.0001) READ_MFLDS_3D_RL: read field: "Theta   ", #   5 in fldList, rec=   5
(PID.TID 0000.0001) READ_MFLDS_3D_RL: read field: "Salt    ", #   7 in fldList, rec=   7
(PID.TID 0000.0001) READ_MFLDS_3D_RL: read field: "GuNm1   ", #   2 in fldList, rec=   2
(PID.TID 0000.0001) READ_MFLDS_3D_RL: read field: "GvNm1   ", #   4 in fldList, rec=   4
(PID.TID 0000.0001) READ_MFLDS_3D_RL: read field: "EtaN    ", #   9 in fldList, rec= 121
(PID.TID 0000.0001) READ_MFLDS_3D_RL: read field: "dEtaHdt ", #  10 in fldList, rec= 122
(PID.TID 0000.0001) READ_MFLDS_3D_RL: read field: "EtaH    ", #  11 in fldList, rec= 123
(PID.TID 0000.0001) READ_MFLDS_CHECK: - normal end ; reset MFLDS file-name: pickup.0000072000
(PID.TID 0000.0001)  nRecords =  15 ; filePrec =  64 ; fileIter =     72000
(PID.TID 0000.0001)     nDims =   2 , dims:
(PID.TID 0000.0001)    1: 192   1 192
(PID.TID 0000.0001)    2:  32   1  32
(PID.TID 0000.0001)     nFlds =  15 , nFl3D =   0 , fields:
(PID.TID 0000.0001)  >siTICE  < >siYNEG  < >siHSNOW < >siUICE  < >siUICE_2< >siUICE_3< >siVICE  < >siVICE_2< >siVICE_3< >siHEFF  < >siHEFF_2< >siHEFF_3< >siAREA  < >siAREA_2< >siAREA_3<
(PID.TID 0000.0001) missingVal=  1.00000000000000E+00 ; nTimRec =   0 , timeList:
(PID.TID 0000.0001) READ_MFLDS_LEV_RL: read field: "siTICE  ", #   1 in fldList, rec=   1
(PID.TID 0000.0001) READ_MFLDS_3D_RL: read field: "siAREA  ", #  13 in fldList, rec=  13
(PID.TID 0000.0001) READ_MFLDS_3D_RL: read field: "siHEFF  ", #  10 in fldList, rec=  10
(PID.TID 0000.0001) READ_MFLDS_3D_RL: read field: "siHSNOW ", #   3 in fldList, rec=   3
(PID.TID 0000.0001) READ_MFLDS_3D_RL: read field: "siUICE  ", #   4 in fldList, rec=   4
(PID.TID 0000.0001) READ_MFLDS_3D_RL: read field: "siVICE  ", #   7 in fldList, rec=   7
(PID.TID 0000.0001) READ_MFLDS_CHECK: - normal end ; reset MFLDS file-name: pickup_seaice.0000072000
(PID.TID 0000.0001) // =======================================================
(PID.TID 0000.0001) // Model current state
(PID.TID 0000.0001) // =======================================================
(PID.TID 0000.0001) 
(PID.TID 0000.0001) SOLVE_FOR_PRESSURE: putPmEinXvector =    F
 cg2d: Sum(rhs),rhsMax =   2.21291478505563E+03  2.01372753928932E+01
 cg2d: Sum(rhs),rhsMax =   2.21288691616648E+03  2.05338887749579E+01
 cg2d: Sum(rhs),rhsMax =   2.21267837926669E+03  2.07023141682357E+01
 cg2d: Sum(rhs),rhsMax =   2.21246319951786E+03  2.08570978614466E+01
 cg2d: Sum(rhs),rhsMax =   2.21223974973622E+03  2.09779531544285E+01
(PID.TID 0000.0001) Did not write pickup because writePickupAtEnd = FALSE
(PID.TID 0000.0001)   early fc =  0.000000000000000D+00
 --> objf_test(bi,bj)   =  0.971422725632988D+04
 --> objf_test(bi,bj)   =  0.743444246912830D+04
 --> objf_test(bi,bj)   =  0.916061123403678D+04
 --> objf_test(bi,bj)   =  0.776111598474465D+04
 --> objf_test(bi,bj)   =  0.645188365332939D+04
 --> objf_test(bi,bj)   =  0.121082946425382D+05
 --> objf_test(bi,bj)   =  0.130205818020175D+05
 --> objf_test(bi,bj)   =  0.134004371121896D+05
 --> objf_test(bi,bj)   =  0.704975746333679D+04
 --> objf_test(bi,bj)   =  0.654290140173015D+04
 --> objf_test(bi,bj)   =  0.974952513867861D+04
 --> objf_test(bi,bj)   =  0.845212285568145D+04
(PID.TID 0000.0001)   local fc =  0.110845901013741D+06
(PID.TID 0000.0001)  global fc =  0.110845901013741D+06
(PID.TID 0000.0001) grdchk perturb(+)fc: fcpertplus  =  1.10845901013741E+05
(PID.TID 0000.0001)  nRecords = 123 ; filePrec =  64 ; fileIter =     72000
(PID.TID 0000.0001)     nDims =   2 , dims:
(PID.TID 0000.0001)    1: 192   1 192
(PID.TID 0000.0001)    2:  32   1  32
(PID.TID 0000.0001)     nFlds =  11 , nFl3D =   8 , fields:
(PID.TID 0000.0001)  >Uvel    < >GuNm1   < >Vvel    < >GvNm1   < >Theta   < >GtNm1   < >Salt    < >GsNm1   < >EtaN    < >dEtaHdt < >EtaH    <
(PID.TID 0000.0001) missingVal=  1.00000000000000E+00 ; nTimRec =   0 , timeList:
(PID.TID 0000.0001) READ_MFLDS_3D_RL: read field: "Uvel    ", #   1 in fldList, rec=   1
(PID.TID 0000.0001) READ_MFLDS_3D_RL: read field: "Vvel    ", #   3 in fldList, rec=   3
(PID.TID 0000.0001) READ_MFLDS_3D_RL: read field: "Theta   ", #   5 in fldList, rec=   5
(PID.TID 0000.0001) READ_MFLDS_3D_RL: read field: "Salt    ", #   7 in fldList, rec=   7
(PID.TID 0000.0001) READ_MFLDS_3D_RL: read field: "GuNm1   ", #   2 in fldList, rec=   2
(PID.TID 0000.0001) READ_MFLDS_3D_RL: read field: "GvNm1   ", #   4 in fldList, rec=   4
(PID.TID 0000.0001) READ_MFLDS_3D_RL: read field: "EtaN    ", #   9 in fldList, rec= 121
(PID.TID 0000.0001) READ_MFLDS_3D_RL: read field: "dEtaHdt ", #  10 in fldList, rec= 122
(PID.TID 0000.0001) READ_MFLDS_3D_RL: read field: "EtaH    ", #  11 in fldList, rec= 123
(PID.TID 0000.0001) READ_MFLDS_CHECK: - normal end ; reset MFLDS file-name: pickup.0000072000
(PID.TID 0000.0001)  nRecords =  15 ; filePrec =  64 ; fileIter =     72000
(PID.TID 0000.0001)     nDims =   2 , dims:
(PID.TID 0000.0001)    1: 192   1 192
(PID.TID 0000.0001)    2:  32   1  32
(PID.TID 0000.0001)     nFlds =  15 , nFl3D =   0 , fields:
(PID.TID 0000.0001)  >siTICE  < >siYNEG  < >siHSNOW < >siUICE  < >siUICE_2< >siUICE_3< >siVICE  < >siVICE_2< >siVICE_3< >siHEFF  < >siHEFF_2< >siHEFF_3< >siAREA  < >siAREA_2< >siAREA_3<
(PID.TID 0000.0001) missingVal=  1.00000000000000E+00 ; nTimRec =   0 , timeList:
(PID.TID 0000.0001) READ_MFLDS_LEV_RL: read field: "siTICE  ", #   1 in fldList, rec=   1
(PID.TID 0000.0001) READ_MFLDS_3D_RL: read field: "siAREA  ", #  13 in fldList, rec=  13
(PID.TID 0000.0001) READ_MFLDS_3D_RL: read field: "siHEFF  ", #  10 in fldList, rec=  10
(PID.TID 0000.0001) READ_MFLDS_3D_RL: read field: "siHSNOW ", #   3 in fldList, rec=   3
(PID.TID 0000.0001) READ_MFLDS_3D_RL: read field: "siUICE  ", #   4 in fldList, rec=   4
(PID.TID 0000.0001) READ_MFLDS_3D_RL: read field: "siVICE  ", #   7 in fldList, rec=   7
(PID.TID 0000.0001) READ_MFLDS_CHECK: - normal end ; reset MFLDS file-name: pickup_seaice.0000072000
(PID.TID 0000.0001) // =======================================================
(PID.TID 0000.0001) // Model current state
(PID.TID 0000.0001) // =======================================================
(PID.TID 0000.0001) 
(PID.TID 0000.0001) SOLVE_FOR_PRESSURE: putPmEinXvector =    F
 cg2d: Sum(rhs),rhsMax =   2.21291478420969E+03  2.01372753928932E+01
 cg2d: Sum(rhs),rhsMax =   2.21288691448539E+03  2.05338887150720E+01
 cg2d: Sum(rhs),rhsMax =   2.21267837687247E+03  2.07023141001980E+01
 cg2d: Sum(rhs),rhsMax =   2.21246317347875E+03  2.08570978221443E+01
 cg2d: Sum(rhs),rhsMax =   2.21223974985881E+03  2.09779531315588E+01
(PID.TID 0000.0001) Did not write pickup because writePickupAtEnd = FALSE
(PID.TID 0000.0001)   early fc =  0.000000000000000D+00
 --> objf_test(bi,bj)   =  0.971416695641665D+04
 --> objf_test(bi,bj)   =  0.743444246929831D+04
 --> objf_test(bi,bj)   =  0.916061123385939D+04
 --> objf_test(bi,bj)   =  0.776111598440132D+04
 --> objf_test(bi,bj)   =  0.645188365331806D+04
 --> objf_test(bi,bj)   =  0.121082946431237D+05
 --> objf_test(bi,bj)   =  0.130205818020452D+05
 --> objf_test(bi,bj)   =  0.134004371121568D+05
 --> objf_test(bi,bj)   =  0.704975746322580D+04
 --> objf_test(bi,bj)   =  0.654290140191273D+04
 --> objf_test(bi,bj)   =  0.974952435308940D+04
 --> objf_test(bi,bj)   =  0.845212312079142D+04
(PID.TID 0000.0001)   local fc =  0.110845840193639D+06
(PID.TID 0000.0001)  global fc =  0.110845840193639D+06
(PID.TID 0000.0001) grdchk perturb(-)fc: fcpertminus =  1.10845840193639E+05
grad-res -------------------------------
 grad-res     0    4    4    1    1    1    1    1   1.10845870143E+05  1.10845901014E+05  1.10845840194E+05
 grad-res     0    4    4    4    0    1    1    1   3.00171930553E+00  3.04100512658E+00 -1.30877730559E-02
(PID.TID 0000.0001)  ADM  ref_cost_function      =  1.10845870143117E+05
(PID.TID 0000.0001)  ADM  adjoint_gradient       =  3.00171930553065E+00
(PID.TID 0000.0001)  ADM  finite-diff_grad       =  3.04100512657897E+00
(PID.TID 0000.0001) ====== End of gradient-check number   4 (ierr=  0) =======
(PID.TID 0000.0001) 
(PID.TID 0000.0001) // =======================================================
(PID.TID 0000.0001) // Gradient check results  >>> START <<<
(PID.TID 0000.0001) // =======================================================
(PID.TID 0000.0001) 
(PID.TID 0000.0001)  EPS =   1.000000E-02
(PID.TID 0000.0001) 
(PID.TID 0000.0001) grdchk output h.p:  Id Itile Jtile LAYER   bi   bj   X(Id)           X(Id)+/-EPS
(PID.TID 0000.0001) grdchk output h.c:  Id  FC                   FC1                  FC2
(PID.TID 0000.0001) grdchk output h.g:  Id     FC1-FC2/(2*EPS)      ADJ GRAD(FC)         1-FDGRD/ADGRD
(PID.TID 0000.0001) 
(PID.TID 0000.0001) grdchk output (p):   1     1     1     1    1    1   0.000000000E+00 -1.000000000E-02
(PID.TID 0000.0001) grdchk output (c):   1  1.1084587014312E+05  1.1084591362947E+05  1.1084582678380E+05
(PID.TID 0000.0001) grdchk output (g):   1     4.3422834889498E+00  4.3360486974446E+00 -1.4378970210371E-03
(PID.TID 0000.0001) 
(PID.TID 0000.0001) grdchk output (p):   2     2     1     1    1    1   0.000000000E+00 -1.000000000E-02
(PID.TID 0000.0001) grdchk output (c):   2  1.1084587014312E+05  1.1084591229516E+05  1.1084582897970E+05
(PID.TID 0000.0001) grdchk output (g):   2     4.1657728761493E+00  4.1297502622415E+00 -8.7227099994807E-03
(PID.TID 0000.0001) 
(PID.TID 0000.0001) grdchk output (p):   3     3     1     1    1    1   0.000000000E+00 -1.000000000E-02
(PID.TID 0000.0001) grdchk output (c):   3  1.1084587014312E+05  1.1084590391595E+05  1.1084583656549E+05
(PID.TID 0000.0001) grdchk output (g):   3     3.3675230391964E+00  3.3711459262612E+00  1.0746752422051E-03
(PID.TID 0000.0001) 
(PID.TID 0000.0001) grdchk output (p):   4     4     1     1    1    1   0.000000000E+00 -1.000000000E-02
(PID.TID 0000.0001) grdchk output (c):   4  1.1084587014312E+05  1.1084590101374E+05  1.1084584019364E+05
(PID.TID 0000.0001) grdchk output (g):   4     3.0410051265790E+00  3.0017193055307E+00 -1.3087773055905E-02
(PID.TID 0000.0001) 
(PID.TID 0000.0001) grdchk  summary  :  RMS of    4 ratios =  7.9151428922229E-03
(PID.TID 0000.0001) 
(PID.TID 0000.0001) // =======================================================
(PID.TID 0000.0001) // Gradient check results  >>> END <<<
(PID.TID 0000.0001) // =======================================================
(PID.TID 0000.0001) 
(PID.TID 0000.0001)   Seconds in section "ALL                    [THE_MODEL_MAIN]":
(PID.TID 0000.0001)           User time:   148.78302001953125
(PID.TID 0000.0001)         System time:   1.8683459963649511
(PID.TID 0000.0001)     Wall clock time:   150.67557501792908
(PID.TID 0000.0001)          No. starts:           1
(PID.TID 0000.0001)           No. stops:           1
(PID.TID 0000.0001)   Seconds in section "INITIALISE_FIXED       [THE_MODEL_MAIN]":
(PID.TID 0000.0001)           User time:  0.23079000413417816
(PID.TID 0000.0001)         System time:   9.1896001482382417E-002
(PID.TID 0000.0001)     Wall clock time:  0.32403111457824707
(PID.TID 0000.0001)          No. starts:           1
(PID.TID 0000.0001)           No. stops:           1
(PID.TID 0000.0001)   Seconds in section "ADTHE_MAIN_LOOP          [ADJOINT RUN]":
(PID.TID 0000.0001)           User time:   65.694853544235229
(PID.TID 0000.0001)         System time:   1.5723279938101768
(PID.TID 0000.0001)     Wall clock time:   67.269109010696411
(PID.TID 0000.0001)          No. starts:           1
(PID.TID 0000.0001)           No. stops:           1
(PID.TID 0000.0001)   Seconds in section "FORWARD_STEP        [MAIN_DO_LOOP]":
(PID.TID 0000.0001)           User time:   101.20200705528259
(PID.TID 0000.0001)         System time:   6.5451145172119141E-002
(PID.TID 0000.0001)     Wall clock time:   101.27893662452698
(PID.TID 0000.0001)          No. starts:          50
(PID.TID 0000.0001)           No. stops:          50
(PID.TID 0000.0001)   Seconds in section "UPDATE_R_STAR       [FORWARD_STEP]":
(PID.TID 0000.0001)           User time:   2.0337645411491394
(PID.TID 0000.0001)         System time:   1.2189149856567383E-004
(PID.TID 0000.0001)     Wall clock time:   2.0341472625732422
(PID.TID 0000.0001)          No. starts:         100
(PID.TID 0000.0001)           No. stops:         100
(PID.TID 0000.0001)   Seconds in section "LOAD_FIELDS_DRIVER  [FORWARD_STEP]":
(PID.TID 0000.0001)           User time:  0.66848498582839966
(PID.TID 0000.0001)         System time:   1.6557097434997559E-002
(PID.TID 0000.0001)     Wall clock time:  0.68501973152160645
(PID.TID 0000.0001)          No. starts:          50
(PID.TID 0000.0001)           No. stops:          50
(PID.TID 0000.0001)   Seconds in section "EXF_GETFORCING     [LOAD_FLDS_DRIVER]":
(PID.TID 0000.0001)           User time:  0.73362421989440918
(PID.TID 0000.0001)         System time:   1.6543924808502197E-002
(PID.TID 0000.0001)     Wall clock time:  0.75024580955505371
(PID.TID 0000.0001)          No. starts:          55
(PID.TID 0000.0001)           No. stops:          55
(PID.TID 0000.0001)   Seconds in section "I/O (WRITE)        [ADJOINT LOOP]":
(PID.TID 0000.0001)           User time:  0.14547771215438843
(PID.TID 0000.0001)         System time:   4.8127233982086182E-002
(PID.TID 0000.0001)     Wall clock time:  0.19321775436401367
(PID.TID 0000.0001)          No. starts:         208
(PID.TID 0000.0001)           No. stops:         208
(PID.TID 0000.0001)   Seconds in section "EXTERNAL_FLDS_LOAD [LOAD_FLDS_DRIVER]":
(PID.TID 0000.0001)           User time:   4.6157836914062500E-004
(PID.TID 0000.0001)         System time:   6.0796737670898438E-006
(PID.TID 0000.0001)     Wall clock time:   4.6825408935546875E-004
(PID.TID 0000.0001)          No. starts:          55
(PID.TID 0000.0001)           No. stops:          55
(PID.TID 0000.0001)   Seconds in section "CTRL_MAP_FORCING  [FORWARD_STEP]":
(PID.TID 0000.0001)           User time:   2.5886416435241699E-002
(PID.TID 0000.0001)         System time:   6.6379904747009277E-003
(PID.TID 0000.0001)     Wall clock time:   3.2506704330444336E-002
(PID.TID 0000.0001)          No. starts:          50
(PID.TID 0000.0001)           No. stops:          50
(PID.TID 0000.0001)   Seconds in section "DO_ATMOSPHERIC_PHYS [FORWARD_STEP]":
(PID.TID 0000.0001)           User time:   6.6981494426727295E-002
(PID.TID 0000.0001)         System time:   1.6271471977233887E-003
(PID.TID 0000.0001)     Wall clock time:   6.8661451339721680E-002
(PID.TID 0000.0001)          No. starts:          50
(PID.TID 0000.0001)           No. stops:          50
(PID.TID 0000.0001)   Seconds in section "DO_OCEANIC_PHYS     [FORWARD_STEP]":
(PID.TID 0000.0001)           User time:   49.370415210723877
(PID.TID 0000.0001)         System time:   1.2037128210067749E-002
(PID.TID 0000.0001)     Wall clock time:   49.387300968170166
(PID.TID 0000.0001)          No. starts:          50
(PID.TID 0000.0001)           No. stops:          50
(PID.TID 0000.0001)   Seconds in section "SEAICE_MODEL    [DO_OCEANIC_PHYS]":
(PID.TID 0000.0001)           User time:   44.862831532955170
(PID.TID 0000.0001)         System time:   3.5470724105834961E-004
(PID.TID 0000.0001)     Wall clock time:   44.867718458175659
(PID.TID 0000.0001)          No. starts:          55
(PID.TID 0000.0001)           No. stops:          55
(PID.TID 0000.0001)   Seconds in section "SEAICE_DYNSOLVER   [SEAICE_MODEL]":
(PID.TID 0000.0001)           User time:   43.642116129398346
(PID.TID 0000.0001)         System time:   1.1199712753295898E-004
(PID.TID 0000.0001)     Wall clock time:   43.646864891052246
(PID.TID 0000.0001)          No. starts:          55
(PID.TID 0000.0001)           No. stops:          55
(PID.TID 0000.0001)   Seconds in section "DYNAMICS            [FORWARD_STEP]":
(PID.TID 0000.0001)           User time:   16.383992552757263
(PID.TID 0000.0001)         System time:   2.8404593467712402E-004
(PID.TID 0000.0001)     Wall clock time:   16.390479087829590
(PID.TID 0000.0001)          No. starts:          50
(PID.TID 0000.0001)           No. stops:          50
(PID.TID 0000.0001)   Seconds in section "SOLVE_FOR_PRESSURE  [FORWARD_STEP]":
(PID.TID 0000.0001)           User time:   6.2345249652862549
(PID.TID 0000.0001)         System time:   2.9802322387695312E-006
(PID.TID 0000.0001)     Wall clock time:   6.2347254753112793
(PID.TID 0000.0001)          No. starts:          50
(PID.TID 0000.0001)           No. stops:          50
(PID.TID 0000.0001)   Seconds in section "MOM_CORRECTION_STEP [FORWARD_STEP]":
(PID.TID 0000.0001)           User time:  0.56238412857055664
(PID.TID 0000.0001)         System time:   3.3974647521972656E-005
(PID.TID 0000.0001)     Wall clock time:  0.56248807907104492
(PID.TID 0000.0001)          No. starts:          50
(PID.TID 0000.0001)           No. stops:          50
(PID.TID 0000.0001)   Seconds in section "INTEGR_CONTINUITY   [FORWARD_STEP]":
(PID.TID 0000.0001)           User time:   1.0236442089080811
(PID.TID 0000.0001)         System time:   5.8412551879882812E-006
(PID.TID 0000.0001)     Wall clock time:   1.0237355232238770
(PID.TID 0000.0001)          No. starts:          50
(PID.TID 0000.0001)           No. stops:          50
(PID.TID 0000.0001)   Seconds in section "CALC_R_STAR         [FORWARD_STEP]":
(PID.TID 0000.0001)           User time:  0.19948720932006836
(PID.TID 0000.0001)         System time:   2.1100044250488281E-005
(PID.TID 0000.0001)     Wall clock time:  0.19956970214843750
(PID.TID 0000.0001)          No. starts:          50
(PID.TID 0000.0001)           No. stops:          50
(PID.TID 0000.0001)   Seconds in section "BLOCKING_EXCHANGES  [FORWARD_STEP]":
(PID.TID 0000.0001)           User time:  0.99947929382324219
(PID.TID 0000.0001)         System time:   5.0663948059082031E-006
(PID.TID 0000.0001)     Wall clock time:  0.99962019920349121
(PID.TID 0000.0001)          No. starts:         100
(PID.TID 0000.0001)           No. stops:         100
(PID.TID 0000.0001)   Seconds in section "THERMODYNAMICS      [FORWARD_STEP]":
(PID.TID 0000.0001)           User time:   22.058346033096313
(PID.TID 0000.0001)         System time:   8.0470740795135498E-003
(PID.TID 0000.0001)     Wall clock time:   22.066897153854370
(PID.TID 0000.0001)          No. starts:          50
(PID.TID 0000.0001)           No. stops:          50
(PID.TID 0000.0001)   Seconds in section "TRC_CORRECTION_STEP [FORWARD_STEP]":
(PID.TID 0000.0001)           User time:   3.9911270141601562E-004
(PID.TID 0000.0001)         System time:   9.8347663879394531E-007
(PID.TID 0000.0001)     Wall clock time:   4.0864944458007812E-004
(PID.TID 0000.0001)          No. starts:          50
(PID.TID 0000.0001)           No. stops:          50
(PID.TID 0000.0001)   Seconds in section "MONITOR             [FORWARD_STEP]":
(PID.TID 0000.0001)           User time:  0.52339410781860352
(PID.TID 0000.0001)         System time:   9.5367431640625000E-007
(PID.TID 0000.0001)     Wall clock time:  0.52345538139343262
(PID.TID 0000.0001)          No. starts:          50
(PID.TID 0000.0001)           No. stops:          50
(PID.TID 0000.0001)   Seconds in section "COST_TILE           [FORWARD_STEP]":
(PID.TID 0000.0001)           User time:  0.96586489677429199
(PID.TID 0000.0001)         System time:   4.0829181671142578E-006
(PID.TID 0000.0001)     Wall clock time:  0.96597981452941895
(PID.TID 0000.0001)          No. starts:          50
(PID.TID 0000.0001)           No. stops:          50
(PID.TID 0000.0001)   Seconds in section "DO_THE_MODEL_IO     [FORWARD_STEP]":
(PID.TID 0000.0001)           User time:   4.2451143264770508E-002
(PID.TID 0000.0001)         System time:   1.1958003044128418E-002
(PID.TID 0000.0001)     Wall clock time:   5.4438352584838867E-002
(PID.TID 0000.0001)          No. starts:          50
(PID.TID 0000.0001)           No. stops:          50
(PID.TID 0000.0001)   Seconds in section "DO_WRITE_PICKUP     [FORWARD_STEP]":
(PID.TID 0000.0001)           User time:   2.9290676116943359E-002
(PID.TID 0000.0001)         System time:   8.0119967460632324E-003
(PID.TID 0000.0001)     Wall clock time:   3.7298917770385742E-002
(PID.TID 0000.0001)          No. starts:          50
(PID.TID 0000.0001)           No. stops:          50
(PID.TID 0000.0001)   Seconds in section "GRDCHK_MAIN         [THE_MODEL_MAIN]":
(PID.TID 0000.0001)           User time:   82.857353210449219
(PID.TID 0000.0001)         System time:  0.20409309864044189
(PID.TID 0000.0001)     Wall clock time:   83.082392930984497
(PID.TID 0000.0001)          No. starts:           1
(PID.TID 0000.0001)           No. stops:           1
(PID.TID 0000.0001)   Seconds in section "INITIALISE_VARIA    [THE_MAIN_LOOP]":
(PID.TID 0000.0001)           User time:   1.7706985473632812
(PID.TID 0000.0001)         System time:  0.11182296276092529
(PID.TID 0000.0001)     Wall clock time:   1.8826882839202881
(PID.TID 0000.0001)          No. starts:           8
(PID.TID 0000.0001)           No. stops:           8
(PID.TID 0000.0001)   Seconds in section "MAIN LOOP           [THE_MAIN_LOOP]":
(PID.TID 0000.0001)           User time:   80.954887390136719
(PID.TID 0000.0001)         System time:   2.8366208076477051E-002
(PID.TID 0000.0001)     Wall clock time:   80.994326353073120
(PID.TID 0000.0001)          No. starts:           8
(PID.TID 0000.0001)           No. stops:           8
(PID.TID 0000.0001)   Seconds in section "MAIN_DO_LOOP        [THE_MAIN_LOOP]":
(PID.TID 0000.0001)           User time:   80.247970581054688
(PID.TID 0000.0001)         System time:   2.4237155914306641E-002
(PID.TID 0000.0001)     Wall clock time:   80.283191442489624
(PID.TID 0000.0001)          No. starts:          40
(PID.TID 0000.0001)           No. stops:          40
(PID.TID 0000.0001)   Seconds in section "COST_FINAL         [ADJOINT SPIN-DOWN]":
(PID.TID 0000.0001)           User time:   5.6015014648437500E-002
(PID.TID 0000.0001)         System time:   3.9830207824707031E-003
(PID.TID 0000.0001)     Wall clock time:   5.9975862503051758E-002
(PID.TID 0000.0001)          No. starts:           8
(PID.TID 0000.0001)           No. stops:           8
(PID.TID 0000.0001) // ======================================================
(PID.TID 0000.0001) // Tile <-> Tile communication statistics
(PID.TID 0000.0001) // ======================================================
(PID.TID 0000.0001) // o Tile number: 000001
(PID.TID 0000.0001) //         No. X exchanges =              0
(PID.TID 0000.0001) //            Max. X spins =              0
(PID.TID 0000.0001) //            Min. X spins =     1000000000
(PID.TID 0000.0001) //          Total. X spins =              0
(PID.TID 0000.0001) //            Avg. X spins =       0.00E+00
(PID.TID 0000.0001) //         No. Y exchanges =              0
(PID.TID 0000.0001) //            Max. Y spins =              0
(PID.TID 0000.0001) //            Min. Y spins =     1000000000
(PID.TID 0000.0001) //          Total. Y spins =              0
(PID.TID 0000.0001) //            Avg. Y spins =       0.00E+00
(PID.TID 0000.0001) // o Tile number: 000002
(PID.TID 0000.0001) //         No. X exchanges =              0
(PID.TID 0000.0001) //            Max. X spins =              0
(PID.TID 0000.0001) //            Min. X spins =     1000000000
(PID.TID 0000.0001) //          Total. X spins =              0
(PID.TID 0000.0001) //            Avg. X spins =       0.00E+00
(PID.TID 0000.0001) //         No. Y exchanges =              0
(PID.TID 0000.0001) //            Max. Y spins =              0
(PID.TID 0000.0001) //            Min. Y spins =     1000000000
(PID.TID 0000.0001) //          Total. Y spins =              0
(PID.TID 0000.0001) //            Avg. Y spins =       0.00E+00
(PID.TID 0000.0001) // o Tile number: 000003
(PID.TID 0000.0001) //         No. X exchanges =              0
(PID.TID 0000.0001) //            Max. X spins =              0
(PID.TID 0000.0001) //            Min. X spins =     1000000000
(PID.TID 0000.0001) //          Total. X spins =              0
(PID.TID 0000.0001) //            Avg. X spins =       0.00E+00
(PID.TID 0000.0001) //         No. Y exchanges =              0
(PID.TID 0000.0001) //            Max. Y spins =              0
(PID.TID 0000.0001) //            Min. Y spins =     1000000000
(PID.TID 0000.0001) //          Total. Y spins =              0
(PID.TID 0000.0001) //            Avg. Y spins =       0.00E+00
(PID.TID 0000.0001) // o Tile number: 000004
(PID.TID 0000.0001) //         No. X exchanges =              0
(PID.TID 0000.0001) //            Max. X spins =              0
(PID.TID 0000.0001) //            Min. X spins =     1000000000
(PID.TID 0000.0001) //          Total. X spins =              0
(PID.TID 0000.0001) //            Avg. X spins =       0.00E+00
(PID.TID 0000.0001) //         No. Y exchanges =              0
(PID.TID 0000.0001) //            Max. Y spins =              0
(PID.TID 0000.0001) //            Min. Y spins =     1000000000
(PID.TID 0000.0001) //          Total. Y spins =              0
(PID.TID 0000.0001) //            Avg. Y spins =       0.00E+00
(PID.TID 0000.0001) // o Tile number: 000005
(PID.TID 0000.0001) //         No. X exchanges =              0
(PID.TID 0000.0001) //            Max. X spins =              0
(PID.TID 0000.0001) //            Min. X spins =     1000000000
(PID.TID 0000.0001) //          Total. X spins =              0
(PID.TID 0000.0001) //            Avg. X spins =       0.00E+00
(PID.TID 0000.0001) //         No. Y exchanges =              0
(PID.TID 0000.0001) //            Max. Y spins =              0
(PID.TID 0000.0001) //            Min. Y spins =     1000000000
(PID.TID 0000.0001) //          Total. Y spins =              0
(PID.TID 0000.0001) //            Avg. Y spins =       0.00E+00
(PID.TID 0000.0001) // o Tile number: 000006
(PID.TID 0000.0001) //         No. X exchanges =              0
(PID.TID 0000.0001) //            Max. X spins =              0
(PID.TID 0000.0001) //            Min. X spins =     1000000000
(PID.TID 0000.0001) //          Total. X spins =              0
(PID.TID 0000.0001) //            Avg. X spins =       0.00E+00
(PID.TID 0000.0001) //         No. Y exchanges =              0
(PID.TID 0000.0001) //            Max. Y spins =              0
(PID.TID 0000.0001) //            Min. Y spins =     1000000000
(PID.TID 0000.0001) //          Total. Y spins =              0
(PID.TID 0000.0001) //            Avg. Y spins =       0.00E+00
(PID.TID 0000.0001) // o Tile number: 000007
(PID.TID 0000.0001) //         No. X exchanges =              0
(PID.TID 0000.0001) //            Max. X spins =              0
(PID.TID 0000.0001) //            Min. X spins =     1000000000
(PID.TID 0000.0001) //          Total. X spins =              0
(PID.TID 0000.0001) //            Avg. X spins =       0.00E+00
(PID.TID 0000.0001) //         No. Y exchanges =              0
(PID.TID 0000.0001) //            Max. Y spins =              0
(PID.TID 0000.0001) //            Min. Y spins =     1000000000
(PID.TID 0000.0001) //          Total. Y spins =              0
(PID.TID 0000.0001) //            Avg. Y spins =       0.00E+00
(PID.TID 0000.0001) // o Tile number: 000008
(PID.TID 0000.0001) //         No. X exchanges =              0
(PID.TID 0000.0001) //            Max. X spins =              0
(PID.TID 0000.0001) //            Min. X spins =     1000000000
(PID.TID 0000.0001) //          Total. X spins =              0
(PID.TID 0000.0001) //            Avg. X spins =       0.00E+00
(PID.TID 0000.0001) //         No. Y exchanges =              0
(PID.TID 0000.0001) //            Max. Y spins =              0
(PID.TID 0000.0001) //            Min. Y spins =     1000000000
(PID.TID 0000.0001) //          Total. Y spins =              0
(PID.TID 0000.0001) //            Avg. Y spins =       0.00E+00
(PID.TID 0000.0001) // o Tile number: 000009
(PID.TID 0000.0001) //         No. X exchanges =              0
(PID.TID 0000.0001) //            Max. X spins =              0
(PID.TID 0000.0001) //            Min. X spins =     1000000000
(PID.TID 0000.0001) //          Total. X spins =              0
(PID.TID 0000.0001) //            Avg. X spins =       0.00E+00
(PID.TID 0000.0001) //         No. Y exchanges =              0
(PID.TID 0000.0001) //            Max. Y spins =              0
(PID.TID 0000.0001) //            Min. Y spins =     1000000000
(PID.TID 0000.0001) //          Total. Y spins =              0
(PID.TID 0000.0001) //            Avg. Y spins =       0.00E+00
(PID.TID 0000.0001) // o Tile number: 000010
(PID.TID 0000.0001) //         No. X exchanges =              0
(PID.TID 0000.0001) //            Max. X spins =              0
(PID.TID 0000.0001) //            Min. X spins =     1000000000
(PID.TID 0000.0001) //          Total. X spins =              0
(PID.TID 0000.0001) //            Avg. X spins =       0.00E+00
(PID.TID 0000.0001) //         No. Y exchanges =              0
(PID.TID 0000.0001) //            Max. Y spins =              0
(PID.TID 0000.0001) //            Min. Y spins =     1000000000
(PID.TID 0000.0001) //          Total. Y spins =              0
(PID.TID 0000.0001) //            Avg. Y spins =       0.00E+00
(PID.TID 0000.0001) // o Tile number: 000011
(PID.TID 0000.0001) //         No. X exchanges =              0
(PID.TID 0000.0001) //            Max. X spins =              0
(PID.TID 0000.0001) //            Min. X spins =     1000000000
(PID.TID 0000.0001) //          Total. X spins =              0
(PID.TID 0000.0001) //            Avg. X spins =       0.00E+00
(PID.TID 0000.0001) //         No. Y exchanges =              0
(PID.TID 0000.0001) //            Max. Y spins =              0
(PID.TID 0000.0001) //            Min. Y spins =     1000000000
(PID.TID 0000.0001) //          Total. Y spins =              0
(PID.TID 0000.0001) //            Avg. Y spins =       0.00E+00
(PID.TID 0000.0001) // o Tile number: 000012
(PID.TID 0000.0001) //         No. X exchanges =              0
(PID.TID 0000.0001) //            Max. X spins =              0
(PID.TID 0000.0001) //            Min. X spins =     1000000000
(PID.TID 0000.0001) //          Total. X spins =              0
(PID.TID 0000.0001) //            Avg. X spins =       0.00E+00
(PID.TID 0000.0001) //         No. Y exchanges =              0
(PID.TID 0000.0001) //            Max. Y spins =              0
(PID.TID 0000.0001) //            Min. Y spins =     1000000000
(PID.TID 0000.0001) //          Total. Y spins =              0
(PID.TID 0000.0001) //            Avg. Y spins =       0.00E+00
(PID.TID 0000.0001) // o Thread number: 000001
(PID.TID 0000.0001) //            No. barriers =         171424
(PID.TID 0000.0001) //      Max. barrier spins =              1
(PID.TID 0000.0001) //      Min. barrier spins =              1
(PID.TID 0000.0001) //     Total barrier spins =         171424
(PID.TID 0000.0001) //      Avg. barrier spins =       1.00E+00
PROGRAM MAIN: Execution ended Normally
