(PID.TID 0000.0001) 
(PID.TID 0000.0001) // ======================================================
(PID.TID 0000.0001) //                      MITgcm UV
(PID.TID 0000.0001) //                      =========
(PID.TID 0000.0001) // ======================================================
(PID.TID 0000.0001) // execution environment starting up...
(PID.TID 0000.0001) 
(PID.TID 0000.0001) // MITgcmUV version:  checkpoint68r
(PID.TID 0000.0001) // Build user:        mlosch
(PID.TID 0000.0001) // Build host:        bkli04l026
(PID.TID 0000.0001) // Build date:        Wed 15 Nov 2023 03:31:03 PM CET
(PID.TID 0000.0001) 
(PID.TID 0000.0001) // =======================================================
(PID.TID 0000.0001) // Execution Environment parameter file "eedata"
(PID.TID 0000.0001) // =======================================================
(PID.TID 0000.0001) ># Example "eedata" file
(PID.TID 0000.0001) ># Lines beginning "#" are comments
(PID.TID 0000.0001) >#  nTx      :: No. threads per process in X
(PID.TID 0000.0001) >#  nTy      :: No. threads per process in Y
(PID.TID 0000.0001) ># debugMode :: print debug msg (sequence of S/R calls)
(PID.TID 0000.0001) > &EEPARMS
(PID.TID 0000.0001) > useCubedSphereExchange=.TRUE.,
(PID.TID 0000.0001) > nTx=1,
(PID.TID 0000.0001) > nTy=1,
(PID.TID 0000.0001) > /
(PID.TID 0000.0001) ># Note: Some systems use & as the namelist terminator (as shown here).
(PID.TID 0000.0001) >#       Other systems use a / character.
(PID.TID 0000.0001) 
(PID.TID 0000.0001) // =======================================================
(PID.TID 0000.0001) // Computational Grid Specification ( see files "SIZE.h" )
(PID.TID 0000.0001) //                                  ( and "eedata"       )
(PID.TID 0000.0001) // =======================================================
(PID.TID 0000.0001)      nPx =    1 ; /* No. processes in X */
(PID.TID 0000.0001)      nPy =    1 ; /* No. processes in Y */
(PID.TID 0000.0001)      nSx =   12 ; /* No. tiles in X per process */
(PID.TID 0000.0001)      nSy =    1 ; /* No. tiles in Y per process */
(PID.TID 0000.0001)      sNx =   32 ; /* Tile size in X */
(PID.TID 0000.0001)      sNy =   16 ; /* Tile size in Y */
(PID.TID 0000.0001)      OLx =    4 ; /* Tile overlap distance in X */
(PID.TID 0000.0001)      OLy =    4 ; /* Tile overlap distance in Y */
(PID.TID 0000.0001)      nTx =    1 ; /* No. threads in X per process */
(PID.TID 0000.0001)      nTy =    1 ; /* No. threads in Y per process */
(PID.TID 0000.0001)       Nr =   15 ; /* No. levels in the vertical   */
(PID.TID 0000.0001)       Nx =  384 ; /* Total domain size in X ( = nPx*nSx*sNx ) */
(PID.TID 0000.0001)       Ny =   16 ; /* Total domain size in Y ( = nPy*nSy*sNy ) */
(PID.TID 0000.0001)   nTiles =   12 ; /* Total no. tiles per process ( = nSx*nSy ) */
(PID.TID 0000.0001)   nProcs =    1 ; /* Total no. processes ( = nPx*nPy ) */
(PID.TID 0000.0001) nThreads =    1 ; /* Total no. threads per process ( = nTx*nTy ) */
(PID.TID 0000.0001) usingMPI =    F ; /* Flag used to control whether MPI is in use */
(PID.TID 0000.0001)                   /*  note: To execute a program with MPI calls */
(PID.TID 0000.0001)                   /*  it must be launched appropriately e.g     */
(PID.TID 0000.0001)                   /*  "mpirun -np 64 ......"                    */
(PID.TID 0000.0001) useCoupler=   F ; /* Flag used to control communications with   */
(PID.TID 0000.0001)                   /*  other model components, through a coupler */
(PID.TID 0000.0001) useNest2W_parent =    F ;/* Control 2-W Nesting comm */
(PID.TID 0000.0001) useNest2W_child  =    F ;/* Control 2-W Nesting comm */
(PID.TID 0000.0001) debugMode =    F ; /* print debug msg. (sequence of S/R calls)  */
(PID.TID 0000.0001) printMapIncludesZeros=    F ; /* print zeros in Std.Output maps */
(PID.TID 0000.0001) maxLengthPrt1D=   65 /* maxLength of 1D array printed to StdOut */
(PID.TID 0000.0001) 
(PID.TID 0000.0001) // ======================================================
(PID.TID 0000.0001) // Mapping of tiles to threads
(PID.TID 0000.0001) // ======================================================
(PID.TID 0000.0001) // -o- Thread   1, tiles (   1:  12,   1:   1)
(PID.TID 0000.0001) 
(PID.TID 0000.0001) W2_READPARMS: file data.exch2 not found
(PID.TID 0000.0001) => use W2_EXCH2 default: regular 6-facets Cube
(PID.TID 0000.0001) W2_useE2ioLayOut=    T ;/* T: use Exch2 glob IO map; F: use model default */
(PID.TID 0000.0001) W2_mapIO        =  -1 ; /* select option for Exch2 global-IO map */
(PID.TID 0000.0001) W2_printMsg     =  -1 ; /* select option for printing information */
(PID.TID 0000.0001) ===== Start setting W2 TOPOLOGY:
(PID.TID 0000.0001)  write to log-file: w2_tile_topology.0000.log
(PID.TID 0000.0001) =====       setting W2 TOPOLOGY: Done
(PID.TID 0000.0001) 
(PID.TID 0000.0001)  INI_PARMS: opening model parameter file "data"
(PID.TID 0000.0001)  OPEN_COPY_DATA_FILE: opening file data
(PID.TID 0000.0001) // =======================================================
(PID.TID 0000.0001) // Parameter file "data"
(PID.TID 0000.0001) // =======================================================
(PID.TID 0000.0001) ># ====================
(PID.TID 0000.0001) ># | Model parameters |
(PID.TID 0000.0001) ># ====================
(PID.TID 0000.0001) >#
(PID.TID 0000.0001) ># Continuous equation parameters
(PID.TID 0000.0001) > &PARM01
(PID.TID 0000.0001) > tRef=15*20.,
(PID.TID 0000.0001) > sRef=15*35.,
(PID.TID 0000.0001) > viscAh =3.E5,
(PID.TID 0000.0001) > viscAr =1.E-3,
(PID.TID 0000.0001) > diffKrT=3.E-5,
(PID.TID 0000.0001) > diffKrS=3.E-5,
(PID.TID 0000.0001) > ivdc_kappa=10.,
(PID.TID 0000.0001) > implicitDiffusion=.TRUE.,
(PID.TID 0000.0001) > gravity=9.81,
(PID.TID 0000.0001) > rhoConst=1035.,
(PID.TID 0000.0001) > rhoConstFresh=1000.,
(PID.TID 0000.0001) > eosType='JMD95Z',
(PID.TID 0000.0001) > staggerTimeStep=.TRUE.,
(PID.TID 0000.0001) > vectorInvariantMomentum=.TRUE.,
(PID.TID 0000.0001) > implicitFreeSurface=.TRUE.,
(PID.TID 0000.0001) > exactConserv=.TRUE.,
(PID.TID 0000.0001) > select_rStar=2,
(PID.TID 0000.0001) > nonlinFreeSurf=4,
(PID.TID 0000.0001) > hFacInf=0.2,
(PID.TID 0000.0001) > hFacSup=2.0,
(PID.TID 0000.0001) > useRealFreshWaterFlux=.TRUE.,
(PID.TID 0000.0001) >#- set Energy Reference Level to liq. water @ 0 degC:
(PID.TID 0000.0001) > temp_EvPrRn=0.,
(PID.TID 0000.0001) > hFacMin=.1,
(PID.TID 0000.0001) > hFacMinDr=20.,
(PID.TID 0000.0001) >#tempAdvScheme=77,
(PID.TID 0000.0001) >#saltAdvScheme=77,
(PID.TID 0000.0001) > readBinaryPrec=64,
(PID.TID 0000.0001) > writeBinaryPrec=64,
(PID.TID 0000.0001) > useSingleCpuIO=.TRUE.,
(PID.TID 0000.0001) >#debugLevel = 2,
(PID.TID 0000.0001) > plotLevel=0,
(PID.TID 0000.0001) > /
(PID.TID 0000.0001) >
(PID.TID 0000.0001) ># Elliptic solver parameters
(PID.TID 0000.0001) > &PARM02
(PID.TID 0000.0001) > cg2dMaxIters=200,
(PID.TID 0000.0001) >#cg2dTargetResidual=1.E-9,
(PID.TID 0000.0001) > cg2dTargetResWunit=1.E-14,
(PID.TID 0000.0001) > /
(PID.TID 0000.0001) >
(PID.TID 0000.0001) ># Time stepping parameters
(PID.TID 0000.0001) > &PARM03
(PID.TID 0000.0001) > nIter0=72000,
(PID.TID 0000.0001) > nTimeSteps=10,
(PID.TID 0000.0001) >#endTime=31104000.,
(PID.TID 0000.0001) > deltaTMom   =1200.,
(PID.TID 0000.0001) > deltaTtracer=86400.,
(PID.TID 0000.0001) > deltaTFreeSurf=86400.,
(PID.TID 0000.0001) > deltaTClock =86400.,
(PID.TID 0000.0001) > abEps = 0.1,
(PID.TID 0000.0001) > forcing_In_AB=.FALSE.,
(PID.TID 0000.0001) > pChkptFreq   =3110400000.,
(PID.TID 0000.0001) > chkptFreq    = 155520000.,
(PID.TID 0000.0001) >#tave_lastIter=0.,
(PID.TID 0000.0001) >#taveFreq     = 2592000.,
(PID.TID 0000.0001) >#dumpFreq     =  864000.,
(PID.TID 0000.0001) > monitorFreq  = 15552000.,
(PID.TID 0000.0001) > periodicExternalForcing=.TRUE.,
(PID.TID 0000.0001) > externForcingPeriod=2592000.,
(PID.TID 0000.0001) > externForcingCycle=31104000.,
(PID.TID 0000.0001) ># 6 months restoring timescale for temperature
(PID.TID 0000.0001) >#tauThetaClimRelax = 15552000.,
(PID.TID 0000.0001) ># 2 months restoring timescale for tsalinity
(PID.TID 0000.0001) >#tauSaltClimRelax = 5184000.,
(PID.TID 0000.0001) >#latBandClimRelax=60.,
(PID.TID 0000.0001) > monitorFreq =1.,
(PID.TID 0000.0001) > /
(PID.TID 0000.0001) >
(PID.TID 0000.0001) ># Gridding parameters
(PID.TID 0000.0001) > &PARM04
(PID.TID 0000.0001) > usingCurvilinearGrid=.TRUE.,
(PID.TID 0000.0001) > horizGridFile='grid_cs32',
(PID.TID 0000.0001) > radius_fromHorizGrid=6370.E3,
(PID.TID 0000.0001) > delR= 50., 70., 100., 140., 190.,
(PID.TID 0000.0001) >       240., 290., 340., 390., 440.,
(PID.TID 0000.0001) >       490., 540., 590., 640., 690.,
(PID.TID 0000.0001) > /
(PID.TID 0000.0001) >
(PID.TID 0000.0001) ># Input datasets
(PID.TID 0000.0001) > &PARM05
(PID.TID 0000.0001) > bathyFile      ='bathy_Hmin50.bin',
(PID.TID 0000.0001) > hydrogThetaFile='lev_T_cs_15k.bin',
(PID.TID 0000.0001) > hydrogSaltFile ='lev_S_cs_15k.bin',
(PID.TID 0000.0001) > /
(PID.TID 0000.0001) 
(PID.TID 0000.0001)  INI_PARMS ; starts to read PARM01
(PID.TID 0000.0001)  INI_PARMS ; read PARM01 : OK
(PID.TID 0000.0001)  INI_PARMS ; starts to read PARM02
(PID.TID 0000.0001)  INI_PARMS ; read PARM02 : OK
(PID.TID 0000.0001)  INI_PARMS ; starts to read PARM03
(PID.TID 0000.0001)  INI_PARMS ; read PARM03 : OK
(PID.TID 0000.0001)  INI_PARMS ; starts to read PARM04
(PID.TID 0000.0001)  INI_PARMS ; read PARM04 : OK
(PID.TID 0000.0001)  INI_PARMS ; starts to read PARM05
(PID.TID 0000.0001)  INI_PARMS ; read PARM05 : OK
(PID.TID 0000.0001)  INI_PARMS: finished reading file "data"
(PID.TID 0000.0001)  PACKAGES_BOOT: opening data.pkg
(PID.TID 0000.0001)  OPEN_COPY_DATA_FILE: opening file data.pkg
(PID.TID 0000.0001) // =======================================================
(PID.TID 0000.0001) // Parameter file "data.pkg"
(PID.TID 0000.0001) // =======================================================
(PID.TID 0000.0001) ># Packages
(PID.TID 0000.0001) > &PACKAGES
(PID.TID 0000.0001) > useGMRedi=.TRUE.,
(PID.TID 0000.0001) > useEXF   =.TRUE.,
(PID.TID 0000.0001) >#useCAL   =.TRUE.,
(PID.TID 0000.0001) > useSEAICE=.TRUE.,
(PID.TID 0000.0001) > useThSIce=.TRUE.,
(PID.TID 0000.0001) > useDiagnostics=.TRUE.,
(PID.TID 0000.0001) >#useMNC = .TRUE.,
(PID.TID 0000.0001) > /
(PID.TID 0000.0001) 
(PID.TID 0000.0001)  PACKAGES_BOOT: finished reading data.pkg
(PID.TID 0000.0001) ** WARNING ** PACKAGES_BOOT: useCAL no longer set to T when using EXF (useEXF=T)
(PID.TID 0000.0001) ** WARNING ** PACKAGES_BOOT:  as it used to be before checkpoint66d (2017/02/13)
(PID.TID 0000.0001)  PACKAGES_BOOT: On/Off package Summary
 --------  pkgs with a standard "usePKG" On/Off switch in "data.pkg":  --------
 pkg/ggl90                compiled but not used ( useGGL90                 = F )
 pkg/gmredi               compiled   and   used ( useGMRedi                = T )
 pkg/cal                  compiled but not used ( useCAL                   = F )
 pkg/exf                  compiled   and   used ( useEXF                   = T )
 pkg/bulk_force           compiled but not used ( useBulkForce             = F )
 pkg/seaice               compiled   and   used ( useSEAICE                = T )
 pkg/thsice               compiled   and   used ( useThSIce                = T )
 pkg/diagnostics          compiled   and   used ( useDiagnostics           = T )
 pkg/mnc                  compiled but not used ( useMNC                   = F )
 -------- pkgs without standard "usePKG" On/Off switch in "data.pkg":  --------
 pkg/generic_advdiff      compiled   and   used ( useGAD                   = T )
 pkg/mom_common           compiled   and   used ( momStepping              = T )
 pkg/mom_vecinv           compiled   and   used ( +vectorInvariantMomentum = T )
 pkg/mom_fluxform         compiled but not used ( & not vectorInvariantMom = F )
 pkg/monitor              compiled   and   used ( monitorFreq > 0.         = T )
 pkg/timeave              compiled but not used ( taveFreq > 0.            = F )
 pkg/debug                compiled but not used ( debugMode                = F )
 pkg/exch2                compiled   and   used
 pkg/rw                   compiled   and   used
 pkg/mdsio                compiled   and   used
(PID.TID 0000.0001)  PACKAGES_BOOT: End of package Summary
(PID.TID 0000.0001) 
(PID.TID 0000.0001) EXF_READPARMS: opening data.exf
(PID.TID 0000.0001)  OPEN_COPY_DATA_FILE: opening file data.exf
(PID.TID 0000.0001) // =======================================================
(PID.TID 0000.0001) // Parameter file "data.exf"
(PID.TID 0000.0001) // =======================================================
(PID.TID 0000.0001) ># *********************
(PID.TID 0000.0001) ># External Forcing Data
(PID.TID 0000.0001) ># *********************
(PID.TID 0000.0001) > &EXF_NML_01
(PID.TID 0000.0001) >#exf_debugLev      = 3,
(PID.TID 0000.0001) >#useExfCheckRange  = .TRUE.,
(PID.TID 0000.0001) >#useStabilityFct_overIce=.TRUE.,
(PID.TID 0000.0001) >#snow_emissivity   = 0.98,
(PID.TID 0000.0001) >#ice_emissivity    = 0.98,
(PID.TID 0000.0001) > ocean_emissivity  = 1.,
(PID.TID 0000.0001) > atmrho            = 1.22,
(PID.TID 0000.0001) > humid_fac         = .608,
(PID.TID 0000.0001) > ht                = 10.,
(PID.TID 0000.0001) > exf_albedo        = 0.066,
(PID.TID 0000.0001) >#readStressOnAgrid = .TRUE.,
(PID.TID 0000.0001) > readStressOnCgrid = .TRUE.,
(PID.TID 0000.0001) > exf_monFreq       = 0.,
(PID.TID 0000.0001) > repeatPeriod      = 31104000.,
(PID.TID 0000.0001) > exf_iprec         = 64,
(PID.TID 0000.0001) >#exf_debugLev      = 4,
(PID.TID 0000.0001) > /
(PID.TID 0000.0001) >
(PID.TID 0000.0001) ># *********************
(PID.TID 0000.0001) > &EXF_NML_02
(PID.TID 0000.0001) >#atempstartdate1   = 00010116,
(PID.TID 0000.0001) > atempStartTime    = 1296000.,
(PID.TID 0000.0001) > atempperiod       = 2592000.0,
(PID.TID 0000.0001) >#
(PID.TID 0000.0001) >#aqhstartdate1     = 00010116,
(PID.TID 0000.0001) > aqhStartTime      = 1296000.,
(PID.TID 0000.0001) > aqhperiod         = 2592000.0,
(PID.TID 0000.0001) >#
(PID.TID 0000.0001) >#precipstartdate1  = 00010116,
(PID.TID 0000.0001) > precipStartTime   = 1296000.,
(PID.TID 0000.0001) > precipperiod      = 2592000.0,
(PID.TID 0000.0001) >#
(PID.TID 0000.0001) >#snowprecipstartdate1= 00010116,
(PID.TID 0000.0001) > snowprecipStartTime = 1296000.,
(PID.TID 0000.0001) > snowprecipperiod    = 2592000.,
(PID.TID 0000.0001) >#
(PID.TID 0000.0001) >#runoffstartdate1  = 00010116,
(PID.TID 0000.0001) > runoffStartTime   = 1296000.,
(PID.TID 0000.0001) > runoffperiod      = 2592000.0,
(PID.TID 0000.0001) >#
(PID.TID 0000.0001) >#uwindstartdate1   = 00010116,
(PID.TID 0000.0001) > uwindStartTime    = 1296000.,
(PID.TID 0000.0001) > uwindperiod       = 2592000.0,
(PID.TID 0000.0001) >#
(PID.TID 0000.0001) >#vwindstartdate1   = 00010116,
(PID.TID 0000.0001) > vwindStartTime    = 1296000.,
(PID.TID 0000.0001) > vwindperiod       = 2592000.0,
(PID.TID 0000.0001) >#
(PID.TID 0000.0001) >#ustressstartdate1 = 00010116,
(PID.TID 0000.0001) > ustressStartTime  = 1296000.,
(PID.TID 0000.0001) > ustressperiod     = 2592000.0,
(PID.TID 0000.0001) >#
(PID.TID 0000.0001) >#vstressstartdate1 = 00010116,
(PID.TID 0000.0001) > vstressStartTime  = 1296000.,
(PID.TID 0000.0001) > vstressperiod     = 2592000.0,
(PID.TID 0000.0001) >#
(PID.TID 0000.0001) >#wspeedstartdate1  = 00010116,
(PID.TID 0000.0001) > wspeedStartTime   = 1296000.,
(PID.TID 0000.0001) > wspeedperiod      = 2592000.0,
(PID.TID 0000.0001) >#
(PID.TID 0000.0001) >#swdownstartdate1  = 00010116,
(PID.TID 0000.0001) > swdownStartTime   = 1296000.,
(PID.TID 0000.0001) > swdownperiod      = 2592000.0,
(PID.TID 0000.0001) >#
(PID.TID 0000.0001) >#lwdownstartdate1  = 00010116,
(PID.TID 0000.0001) > lwdownStartTime   = 1296000.,
(PID.TID 0000.0001) > lwdownperiod      = 2592000.0,
(PID.TID 0000.0001) >#
(PID.TID 0000.0001) > climsssStartTime   = 1296000.,
(PID.TID 0000.0001) >#climsssstartdate1  = 00010116,
(PID.TID 0000.0001) > climsssperiod      = 2592000.0,
(PID.TID 0000.0001) >#
(PID.TID 0000.0001) >#climsststartdate1  = 00010116,
(PID.TID 0000.0001) > climsstStartTime   = 1296000.,
(PID.TID 0000.0001) > climsstperiod      = 2592000.0,
(PID.TID 0000.0001) >#
(PID.TID 0000.0001) > atempfile         = 'core_t_Air_cs32.bin',
(PID.TID 0000.0001) > aqhfile           = 'core_q_air_cs32.bin',
(PID.TID 0000.0001) > ustressfile       = 'trenberth_taux.bin',
(PID.TID 0000.0001) > vstressfile       = 'trenberth_tauy.bin',
(PID.TID 0000.0001) >#uwindfile         = 'core_u_wind_cs32.bin',
(PID.TID 0000.0001) >#vwindfile         = 'core_v_wind_cs32.bin',
(PID.TID 0000.0001) > wspeedfile        = 'core_wndSpd_cs32.bin',
(PID.TID 0000.0001) > precipfile        = 'core_prec_1_cs32.bin',
(PID.TID 0000.0001) > snowprecipfile    = 'core_snwP_1_cs32.bin',
(PID.TID 0000.0001) > lwdownfile        = 'core_dwnLw_cs32.bin',
(PID.TID 0000.0001) > swdownfile        = 'core_dwnSw_cs32.bin',
(PID.TID 0000.0001) > runoffFile        = 'core_rnof_1_cs32.bin'
(PID.TID 0000.0001) > climsstfile       = 'lev_surfT_cs_12m.bin',
(PID.TID 0000.0001) > climsssfile       = 'lev_surfS_cs_12m.bin',
(PID.TID 0000.0001) >#
(PID.TID 0000.0001) > /
(PID.TID 0000.0001) >
(PID.TID 0000.0001) ># *********************
(PID.TID 0000.0001) > &EXF_NML_03
(PID.TID 0000.0001) > /
(PID.TID 0000.0001) >
(PID.TID 0000.0001) ># *********************
(PID.TID 0000.0001) > &EXF_NML_04
(PID.TID 0000.0001) > /
(PID.TID 0000.0001) 
(PID.TID 0000.0001) EXF_READPARMS: reading EXF_NML_01
(PID.TID 0000.0001) EXF_READPARMS: reading EXF_NML_02
(PID.TID 0000.0001) EXF_READPARMS: reading EXF_NML_03
(PID.TID 0000.0001) EXF_READPARMS: finished reading data.exf
(PID.TID 0000.0001)  GM_READPARMS: opening data.gmredi
(PID.TID 0000.0001)  OPEN_COPY_DATA_FILE: opening file data.gmredi
(PID.TID 0000.0001) // =======================================================
(PID.TID 0000.0001) // Parameter file "data.gmredi"
(PID.TID 0000.0001) // =======================================================
(PID.TID 0000.0001) ># GM+Redi package parameters:
(PID.TID 0000.0001) >
(PID.TID 0000.0001) >#-from MOM :
(PID.TID 0000.0001) ># GM_background_K: 	G & Mc.W  diffusion coefficient
(PID.TID 0000.0001) ># GM_maxSlope    :	max slope of isopycnals
(PID.TID 0000.0001) ># GM_Scrit       :	transition for scaling diffusion coefficient
(PID.TID 0000.0001) ># GM_Sd          :	half width scaling for diffusion coefficient
(PID.TID 0000.0001) ># GM_taper_scheme:	slope clipping or one of the tapering schemes
(PID.TID 0000.0001) ># GM_Kmin_horiz  :	horizontal diffusion minimum value
(PID.TID 0000.0001) >
(PID.TID 0000.0001) >#-Option parameters (needs to "define" options in GMREDI_OPTIONS.h")
(PID.TID 0000.0001) ># GM_isopycK     :	isopycnal diffusion coefficient (default=GM_background_K)
(PID.TID 0000.0001) ># GM_AdvForm     :	turn on GM Advective form       (default=Skew flux form)
(PID.TID 0000.0001) >
(PID.TID 0000.0001) > &GM_PARM01
(PID.TID 0000.0001) >  GM_Visbeck_alpha   = 0.,
(PID.TID 0000.0001) >  GM_background_K    = 800.,
(PID.TID 0000.0001) ># GM_AdvForm         = .TRUE.,
(PID.TID 0000.0001) ># GM_background_K    = 10.,
(PID.TID 0000.0001) ># GM_Visbeck_alpha   = 1.e-2,
(PID.TID 0000.0001) >  GM_Visbeck_length  = 2.e+5,
(PID.TID 0000.0001) >  GM_Visbeck_depth   = 1.e+3,
(PID.TID 0000.0001) >  GM_Visbeck_maxval_K= 2.5e+3,
(PID.TID 0000.0001) >  GM_taper_scheme    = 'gkw91',
(PID.TID 0000.0001) ># GM_Small_Number    = 1.e-18,
(PID.TID 0000.0001) >  GM_maxSlope        = 1.e-2,
(PID.TID 0000.0001) >  GM_Kmin_horiz      = 50.,
(PID.TID 0000.0001) >  GM_Scrit           = 4.e-3,
(PID.TID 0000.0001) >  GM_Sd              = 1.e-3,
(PID.TID 0000.0001) > /
(PID.TID 0000.0001) >
(PID.TID 0000.0001) 
(PID.TID 0000.0001)  GM_READPARMS: finished reading data.gmredi
(PID.TID 0000.0001) 
(PID.TID 0000.0001)  SEAICE_READPARMS: opening data.seaice
(PID.TID 0000.0001)  OPEN_COPY_DATA_FILE: opening file data.seaice
(PID.TID 0000.0001) // =======================================================
(PID.TID 0000.0001) // Parameter file "data.seaice"
(PID.TID 0000.0001) // =======================================================
(PID.TID 0000.0001) ># SEAICE parameters
(PID.TID 0000.0001) > &SEAICE_PARM01
(PID.TID 0000.0001) >#SEAICE_monFreq = 2592000.,
(PID.TID 0000.0001) >#SEAICEwriteState   = .TRUE.,
(PID.TID 0000.0001) >#SEAICE_clipVelocities=.FALSE.,
(PID.TID 0000.0001) >#SEAICE_maskRHS   = .TRUE.,
(PID.TID 0000.0001) > SEAICEuseLSRflex = .TRUE.,
(PID.TID 0000.0001) > SEAICEnonLinIterMax = 10,
(PID.TID 0000.0001) > SEAICEnonLinTol     = 1.e-2,
(PID.TID 0000.0001) >#SEAICE_deltaTevp = 60.,
(PID.TID 0000.0001) >#SEAICEuseDynamics = .FALSE.,
(PID.TID 0000.0001) ># for backward compatibility only
(PID.TID 0000.0001) > SEAICE_clipVelocities = .TRUE.,
(PID.TID 0000.0001) > SEAICEuseFlooding  = .FALSE.,
(PID.TID 0000.0001) > /
(PID.TID 0000.0001) 
(PID.TID 0000.0001)  SEAICE_READPARMS: finished reading data.seaice
(PID.TID 0000.0001)  THSICE_READPARMS: opening data.ice
(PID.TID 0000.0001)  OPEN_COPY_DATA_FILE: opening file data.ice
(PID.TID 0000.0001) // =======================================================
(PID.TID 0000.0001) // Parameter file "data.ice"
(PID.TID 0000.0001) // =======================================================
(PID.TID 0000.0001) > &THSICE_CONST
(PID.TID 0000.0001) > Tf0kel  = 273.15,
(PID.TID 0000.0001) >#- with LANL albedo:
(PID.TID 0000.0001) >#albWarmSnow= 0.75,
(PID.TID 0000.0001) >#- for full ice-fraction :
(PID.TID 0000.0001) >#iceMaskMin = 1.,
(PID.TID 0000.0001) >#hThinIce   = 0.01,
(PID.TID 0000.0001) >#fracEnMelt = 0.,
(PID.TID 0000.0001) >#hThickIce  = 100.,
(PID.TID 0000.0001) >#- with fractional ice:
(PID.TID 0000.0001) > iceMaskMin = 0.05,
(PID.TID 0000.0001) > hiMax      = 10.,
(PID.TID 0000.0001) > hsMax      = 10.,
(PID.TID 0000.0001) > dhSnowLin  = 0.1,
(PID.TID 0000.0001) > fracEnFreez= 0.4,
(PID.TID 0000.0001) > hNewIceMax = 1.,
(PID.TID 0000.0001) >#albIceMax  = 0.7,
(PID.TID 0000.0001) >#albIceMin  = 0.7,
(PID.TID 0000.0001) >#albColdSnow= 0.85,
(PID.TID 0000.0001) > albWarmSnow= 0.60,
(PID.TID 0000.0001) > tempSnowAlb= -5.,
(PID.TID 0000.0001) > albOldSnow = 0.60,
(PID.TID 0000.0001) >#hNewSnowAge= 2.e-3,
(PID.TID 0000.0001) >#snowAgTime = 4320000.,
(PID.TID 0000.0001) > albIceMax  = 0.60,
(PID.TID 0000.0001) >#albIceMin  = 0.20,
(PID.TID 0000.0001) > hAlbIce    = 0.44,
(PID.TID 0000.0001) > hAlbSnow   = 0.15,
(PID.TID 0000.0001) > /
(PID.TID 0000.0001) >
(PID.TID 0000.0001) > &THSICE_PARM01
(PID.TID 0000.0001) >#StartIceModel=1,
(PID.TID 0000.0001) > thSIceAdvScheme=77,
(PID.TID 0000.0001) >#thSIce_diffK   =800.,
(PID.TID 0000.0001) > stressReduction=0.,
(PID.TID 0000.0001) >#thSIce_taveFreq=2592000.,
(PID.TID 0000.0001) >#thSIce_diagFreq=2592000.,
(PID.TID 0000.0001) >#thSIce_monFreq =2592000.,
(PID.TID 0000.0001) > /
(PID.TID 0000.0001) >
(PID.TID 0000.0001) 
(PID.TID 0000.0001)  THSICE_READPARMS: read THSICE_CONST
(PID.TID 0000.0001)  THSICE_READPARMS: read THSICE_PARM01
 ThSI:       rhos        =  3.3000000000000E+02
 ThSI:       rhoi        =  9.0000000000000E+02
 ThSI:       rhosw       =  1.0350000000000E+03
 ThSI:       rhofw       =  1.0000000000000E+03
 ThSI:       floodFac    =  4.0909090909091E-01
 ThSI:       cpIce       =  2.1060000000000E+03
 ThSI:       cpWater     =  3.9940000000000E+03
 ThSI:       kIce        =  2.0300000000000E+00
 ThSI:       kSnow       =  3.0000000000000E-01
 ThSI:       bMeltCoef   =  6.0000000000000E-03
 ThSI:       Lfresh      =  3.3400000000000E+05
 ThSI:       qsnow       =  3.3400000000000E+05
 ThSI:       albColdSnow =  8.5000000000000E-01
 ThSI:       albWarmSnow =  6.0000000000000E-01
 ThSI:       tempSnowAlb = -5.0000000000000E+00
 ThSI:       albOldSnow  =  6.0000000000000E-01
 ThSI:       hNewSnowAge =  2.0000000000000E-03
 ThSI:       snowAgTime  =  4.3200000000000E+06
 ThSI:       albIceMax   =  6.0000000000000E-01
 ThSI:       albIceMin   =  2.0000000000000E-01
 ThSI:       hAlbIce     =  4.4000000000000E-01
 ThSI:       hAlbSnow    =  1.5000000000000E-01
 ThSI:       i0swFrac    =  3.0000000000000E-01
 ThSI:       ksolar      =  1.5000000000000E+00
 ThSI:       dhSnowLin   =  1.0000000000000E-01
 ThSI:       saltIce     =  4.0000000000000E+00
 ThSI:       S_winton    =  1.0000000000000E+00
 ThSI:       mu_Tf       =  5.4000000000000E-02
 ThSI:       Tf0kel      =  2.7315000000000E+02
 ThSI:       Tmlt1       = -5.4000000000000E-02
 ThSI:       Terrmax     =  5.0000000000000E-01
 ThSI:       nitMaxTsf   =        20
 ThSI:       hIceMin     =  1.0000000000000E-02
 ThSI:       hiMax       =  1.0000000000000E+01
 ThSI:       hsMax       =  1.0000000000000E+01
 ThSI:       iceMaskMax  =  1.0000000000000E+00
 ThSI:       iceMaskMin  =  5.0000000000000E-02
 ThSI:       fracEnMelt  =  4.0000000000000E-01
 ThSI:       fracEnFreez =  4.0000000000000E-01
 ThSI:       hThinIce    =  2.0000000000000E-01
 ThSI:       hThickIce   =  2.5000000000000E+00
 ThSI:       hNewIceMax  =  1.0000000000000E+00
 ThSI: stressReduction   =  0.0000000000000E+00
 ThSI: thSIce_skipThermo =         F
 ThSI: thSIceAdvScheme   =        77
 ThSI: thSIceBalanceAtmFW=         0
 ThSI: thSIce_diffK      =  0.0000000000000E+00
 ThSI: thSIce_deltaT     =  8.6400000000000E+04
 ThSI: ocean_deltaT      =  8.6400000000000E+04
 ThSI: stepFwd_oceMxL    =         F
 ThSI: tauRelax_MxL      =  0.0000000000000E+00
 ThSI: tauRelax_MxL_salt =  0.0000000000000E+00
 ThSI: hMxL_default      =  5.0000000000000E+01
 ThSI: sMxL_default      =  3.5000000000000E+01
 ThSI: vMxL_default      =  5.0000000000000E-02
 ThSI: thSIce_taveFreq   =  0.0000000000000E+00
 ThSI: thSIce_diagFreq   =  0.0000000000000E+00
 ThSI: thSIce_monFreq    =  1.0000000000000E+00
 ThSI: startIceModel     =         0
(PID.TID 0000.0001)  DIAGNOSTICS_READPARMS: opening data.diagnostics
(PID.TID 0000.0001)  OPEN_COPY_DATA_FILE: opening file data.diagnostics
(PID.TID 0000.0001) // =======================================================
(PID.TID 0000.0001) // Parameter file "data.diagnostics"
(PID.TID 0000.0001) // =======================================================
(PID.TID 0000.0001) ># Diagnostic Package Choices
(PID.TID 0000.0001) >#--------------------
(PID.TID 0000.0001) >#  dumpAtLast (logical): always write output at the end of simulation (default=F)
(PID.TID 0000.0001) >#  diag_mnc   (logical): write to NetCDF files (default=useMNC)
(PID.TID 0000.0001) >#--for each output-stream:
(PID.TID 0000.0001) >#  fileName(n) : prefix of the output file name (max 80c long) for outp.stream n
(PID.TID 0000.0001) >#  frequency(n):< 0 : write snap-shot output every |frequency| seconds
(PID.TID 0000.0001) >#               > 0 : write time-average output every frequency seconds
(PID.TID 0000.0001) >#  timePhase(n)     : write at time = timePhase + multiple of |frequency|
(PID.TID 0000.0001) >#    averagingFreq  : frequency (in s) for periodic averaging interval
(PID.TID 0000.0001) >#    averagingPhase : phase     (in s) for periodic averaging interval
(PID.TID 0000.0001) >#    repeatCycle    : number of averaging intervals in 1 cycle
(PID.TID 0000.0001) >#  levels(:,n) : list of levels to write to file (Notes: declared as REAL)
(PID.TID 0000.0001) >#                when this entry is missing, select all common levels of this list
(PID.TID 0000.0001) >#  fields(:,n) : list of selected diagnostics fields (8.c) in outp.stream n
(PID.TID 0000.0001) >#                (see "available_diagnostics.log" file for the full list of diags)
(PID.TID 0000.0001) >#  missing_value(n) : missing value for real-type fields in output file "n"
(PID.TID 0000.0001) >#  fileFlags(n)     : specific code (8c string) for output file "n"
(PID.TID 0000.0001) >#--------------------
(PID.TID 0000.0001) > &DIAGNOSTICS_LIST
(PID.TID 0000.0001) ># diag_mnc     = .FALSE.,
(PID.TID 0000.0001) ># dumpAtLast   = .TRUE.,
(PID.TID 0000.0001) >#--
(PID.TID 0000.0001) >  fields(1:12,1) = 'ETAN    ','ETANSQ  ','DETADT2 ','PHIBOT  ','PHIBOTSQ',
(PID.TID 0000.0001) >                   'oceTAUX ','oceTAUY ',
(PID.TID 0000.0001) >                   'oceQnet ','oceSflux','oceFWflx',
(PID.TID 0000.0001) >#                  'surForcT','surForcS','TFLUX   ','SFLUX   ','oceFreez',
(PID.TID 0000.0001) >                   'TRELAX  ','SRELAX  ',
(PID.TID 0000.0001) >#                  'GM_VisbK',
(PID.TID 0000.0001) >   fileName(1) = 'surfDiag',
(PID.TID 0000.0001) >  frequency(1) = 1555200000.,
(PID.TID 0000.0001) >
(PID.TID 0000.0001) >  fields(1:15,2) = 'UVEL    ','VVEL    ','WVEL    ','PHIHYD  ',
(PID.TID 0000.0001) >                   'VVELMASS','UVELMASS','WVELSQ  ',
(PID.TID 0000.0001) >                   'THETA   ','UTHMASS ','VTHMASS ','WTHMASS ',
(PID.TID 0000.0001) >                   'SALT    ','USLTMASS','VSLTMASS','WSLTMASS',
(PID.TID 0000.0001) ># do not specify levels => all levels are selected
(PID.TID 0000.0001) >#  fileName(2) = 'dynDiag',
(PID.TID 0000.0001) >  frequency(2) = 1555200000.,
(PID.TID 0000.0001) >
(PID.TID 0000.0001) >  fields(1:8,3)  = 'DRHODR  ','RHOAnoma','CONVADJ ',
(PID.TID 0000.0001) >#                  'GM_PsiX ','GM_PsiY ',
(PID.TID 0000.0001) >                   'GM_Kwx  ','GM_Kwy  ','GM_Kwz  ',
(PID.TID 0000.0001) >                   'GM_Kux  ','GM_Kvy  ',
(PID.TID 0000.0001) >#                  'GM_Kuz  ','GM_Kvz  ',
(PID.TID 0000.0001) >#- disable this output list by commenting out the file name
(PID.TID 0000.0001) >#  fileName(3) = 'oceDiag',
(PID.TID 0000.0001) >  frequency(3) = 1555200000.,
(PID.TID 0000.0001) >
(PID.TID 0000.0001) >  fields(1:7,4)  = 'ADVx_TH ','ADVy_TH ','ADVr_TH ',
(PID.TID 0000.0001) >                   'DIFx_TH ','DIFy_TH ','DFrE_TH ',
(PID.TID 0000.0001) >                   'DFrI_TH ',
(PID.TID 0000.0001) >#                  'ADVx_SLT',
(PID.TID 0000.0001) >#  fileName(4) = 'flxDiag',
(PID.TID 0000.0001) >  frequency(4) = 1728000.,
(PID.TID 0000.0001) >
(PID.TID 0000.0001) >  fields(1:18,5) = 'SI_Fract','SI_Thick','SI_SnowH',
(PID.TID 0000.0001) >                   'SI_Tsrf ','SI_Tice1','SI_Tice2',
(PID.TID 0000.0001) >                   'SI_Qice1','SI_Qice2','SIsnwAge',
(PID.TID 0000.0001) >                   'SIsnwPrc','SIalbedo',
(PID.TID 0000.0001) >                   'SIflx2oc','SIfrw2oc','SIsaltFx',
(PID.TID 0000.0001) >                   'SIflxAtm','SIfrwAtm',
(PID.TID 0000.0001) >#                  'SItOcMxL','SIsOcMxL',
(PID.TID 0000.0001) >                   'THETA   ','SALT    ',
(PID.TID 0000.0001) >   levels(1,5) = 1.,
(PID.TID 0000.0001) >#  fileName(5) = 'thSIceDiag',
(PID.TID 0000.0001) >  frequency(5) = 1555200000.,
(PID.TID 0000.0001) > averagingFreq(5) = 2592000.,
(PID.TID 0000.0001) >   repeatCycle(5) = 12,
(PID.TID 0000.0001) >
(PID.TID 0000.0001) >#-- just to test small frequency in long simulations:
(PID.TID 0000.0001) >  fields(1:1,6) =  'ETANSQ  ',
(PID.TID 0000.0001) >#  fileName(6) = 'check_Diag_aver',
(PID.TID 0000.0001) >  frequency(6) = 1.,
(PID.TID 0000.0001) >
(PID.TID 0000.0001) >  fields(1:1,7) =  'RSURF   ',
(PID.TID 0000.0001) >#  fileName(7) = 'check_Diag_snap',
(PID.TID 0000.0001) >  frequency(7) = -1.,
(PID.TID 0000.0001) > /
(PID.TID 0000.0001) >
(PID.TID 0000.0001) >#--------------------
(PID.TID 0000.0001) ># Parameter for Diagnostics of per level statistics:
(PID.TID 0000.0001) >#--------------------
(PID.TID 0000.0001) >#  diagSt_mnc (logical): write stat-diags to NetCDF files (default=diag_mnc)
(PID.TID 0000.0001) >#  diagSt_regMaskFile : file containing the region-mask to read-in
(PID.TID 0000.0001) >#  nSetRegMskFile   : number of region-mask sets within the region-mask file
(PID.TID 0000.0001) >#  set_regMask(i)   : region-mask set-index that identifies the region "i"
(PID.TID 0000.0001) >#  val_regMask(i)   : region "i" identifier value in the region mask
(PID.TID 0000.0001) >#--for each output-stream:
(PID.TID 0000.0001) >#  stat_fName(n) : prefix of the output file name (max 80c long) for outp.stream n
(PID.TID 0000.0001) >#  stat_freq(n):< 0 : write snap-shot output every |stat_freq| seconds
(PID.TID 0000.0001) >#               > 0 : write time-average output every stat_freq seconds
(PID.TID 0000.0001) >#  stat_phase(n)    : write at time = stat_phase + multiple of |stat_freq|
(PID.TID 0000.0001) >#  stat_region(:,n) : list of "regions" (default: 1 region only=global)
(PID.TID 0000.0001) >#  stat_fields(:,n) : list of selected diagnostics fields (8.c) in outp.stream n
(PID.TID 0000.0001) >#                (see "available_diagnostics.log" file for the full list of diags)
(PID.TID 0000.0001) >#--------------------
(PID.TID 0000.0001) > &DIAG_STATIS_PARMS
(PID.TID 0000.0001) >#- regional mask: 3 lat. band: 1 : y <= -24 ; 2 : -24<y<24 ; 3 : 24 <= y
(PID.TID 0000.0001) > diagSt_regMaskFile='regMask_lat24.bin',
(PID.TID 0000.0001) > nSetRegMskFile = 1,
(PID.TID 0000.0001) > set_regMask(1:3) = 1,  1,  1,
(PID.TID 0000.0001) > val_regMask(1:3) = 1., 2., 3.,
(PID.TID 0000.0001) >#---
(PID.TID 0000.0001) > stat_fields(1:8,1)  = 'ETAN    ','UVEL    ','VVEL    ','WVEL    ',
(PID.TID 0000.0001) >                       'THETA   ','SALT    ','CONVADJ ','DETADT2 ',
(PID.TID 0000.0001) >  stat_fName(1) = 'dynStDiag',
(PID.TID 0000.0001) >   stat_freq(1) = 864000.,
(PID.TID 0000.0001) > stat_fields(1:16,5) = 'SI_Fract','SI_Thick','SI_SnowH',
(PID.TID 0000.0001) >                       'SI_Tsrf ','SI_Tice1','SI_Tice2',
(PID.TID 0000.0001) >                       'SI_Qice1','SI_Qice2',
(PID.TID 0000.0001) >                       'SIsnwPrc','SIalbedo','SIsnwAge',
(PID.TID 0000.0001) >                       'SIflx2oc','SIfrw2oc','SIsaltFx',
(PID.TID 0000.0001) >                       'SIflxAtm','SIfrwAtm',
(PID.TID 0000.0001) >#                      'SItOcMxL','SIsOcMxL',
(PID.TID 0000.0001) > stat_region(1:3,5)  = 1, 3, 0,
(PID.TID 0000.0001) >  stat_fName(5) = 'thSIceStDiag',
(PID.TID 0000.0001) >   stat_freq(5) = 864000.,
(PID.TID 0000.0001) >
(PID.TID 0000.0001) >#-- just to test small frequency in long simulations:
(PID.TID 0000.0001) > stat_fields(1:1,3)  = 'ETANSQ  ',
(PID.TID 0000.0001) ># stat_fName(3) = 'check_StD_aver',
(PID.TID 0000.0001) >   stat_freq(3) = 1.,
(PID.TID 0000.0001) > stat_fields(1:1,4)  = 'RSURF   ',
(PID.TID 0000.0001) ># stat_fName(4) = 'check_StD_snap',
(PID.TID 0000.0001) >   stat_freq(4) = -1.,
(PID.TID 0000.0001) > /
(PID.TID 0000.0001) >
(PID.TID 0000.0001) 
(PID.TID 0000.0001) S/R DIAGNOSTICS_READPARMS, read namelist "diagnostics_list": start
(PID.TID 0000.0001) S/R DIAGNOSTICS_READPARMS, read namelist "diagnostics_list": OK
(PID.TID 0000.0001) S/R DIAGNOSTICS_READPARMS, read namelist "DIAG_STATIS_PARMS": start
(PID.TID 0000.0001) S/R DIAGNOSTICS_READPARMS, read namelist "DIAG_STATIS_PARMS": OK
(PID.TID 0000.0001)  DIAGNOSTICS_READPARMS: global parameter summary:
(PID.TID 0000.0001)  dumpAtLast = /* always write time-ave diags at the end */
(PID.TID 0000.0001)                   F
(PID.TID 0000.0001)     ;
(PID.TID 0000.0001)  diag_mnc =   /* write NetCDF output files */
(PID.TID 0000.0001)                   F
(PID.TID 0000.0001)     ;
(PID.TID 0000.0001)  useMissingValue = /* put MissingValue where mask = 0 */
(PID.TID 0000.0001)                   F
(PID.TID 0000.0001)     ;
(PID.TID 0000.0001)  diagCG_maxIters = /* max number of iters in diag_cg2d */
(PID.TID 0000.0001)                     200
(PID.TID 0000.0001)     ;
(PID.TID 0000.0001)  diagCG_resTarget = /* residual target for diag_cg2d */
(PID.TID 0000.0001)                 1.000000000000000E-07
(PID.TID 0000.0001)     ;
(PID.TID 0000.0001)  diagCG_pcOffDFac = /* preconditioner off-diagonal factor */
(PID.TID 0000.0001)                 9.611687812379854E-01
(PID.TID 0000.0001)     ;
(PID.TID 0000.0001) -----------------------------------------------------
(PID.TID 0000.0001)  DIAGNOSTICS_READPARMS: active diagnostics summary:
(PID.TID 0000.0001) -----------------------------------------------------
(PID.TID 0000.0001) Creating Output Stream: surfDiag
(PID.TID 0000.0001) Output Frequency: 1555200000.000000 ; Phase:           0.000000
(PID.TID 0000.0001)  Averaging Freq.: 1555200000.000000 , Phase:           0.000000 , Cycle:   1
(PID.TID 0000.0001)  missing value: -9.990000000000E+02
(PID.TID 0000.0001)  Levels:    will be set later
(PID.TID 0000.0001)  Fields:    ETAN     ETANSQ   DETADT2  PHIBOT   PHIBOTSQ oceTAUX  oceTAUY  oceQnet  oceSflux oceFWflx
(PID.TID 0000.0001)  Fields:    TRELAX   SRELAX
(PID.TID 0000.0001) -----------------------------------------------------
(PID.TID 0000.0001)  DIAGNOSTICS_READPARMS: statistics diags. summary:
(PID.TID 0000.0001) Creating Stats. Output Stream: dynStDiag
(PID.TID 0000.0001) Output Frequency:     864000.000000 ; Phase:           0.000000
(PID.TID 0000.0001)  Regions:   0
(PID.TID 0000.0001)  Fields:    ETAN     UVEL     VVEL     WVEL     THETA    SALT     CONVADJ  DETADT2
(PID.TID 0000.0001) Creating Stats. Output Stream: thSIceStDiag
(PID.TID 0000.0001) Output Frequency:     864000.000000 ; Phase:           0.000000
(PID.TID 0000.0001)  Regions:   0  1  3
(PID.TID 0000.0001)  Fields:    SI_Fract SI_Thick SI_SnowH SI_Tsrf  SI_Tice1 SI_Tice2 SI_Qice1 SI_Qice2 SIsnwPrc SIalbedo
(PID.TID 0000.0001)  Fields:    SIsnwAge SIflx2oc SIfrw2oc SIsaltFx SIflxAtm SIfrwAtm
(PID.TID 0000.0001) -----------------------------------------------------
(PID.TID 0000.0001) 
(PID.TID 0000.0001) SET_PARMS: done
(PID.TID 0000.0001) Enter INI_VERTICAL_GRID: setInterFDr=    T ; setCenterDr=    F
(PID.TID 0000.0001) tile:   1 ; Read from file grid_cs32.face001.bin
(PID.TID 0000.0001)   => xC yC dxF dyF rA xG yG dxV dyU rAz dxC dyC rAw rAs dxG dyG AngleCS AngleSN
(PID.TID 0000.0001) tile:   2 ; Read from file grid_cs32.face001.bin
(PID.TID 0000.0001)   => xC yC dxF dyF rA xG yG dxV dyU rAz dxC dyC rAw rAs dxG dyG AngleCS AngleSN
(PID.TID 0000.0001) tile:   3 ; Read from file grid_cs32.face002.bin
(PID.TID 0000.0001)   => xC yC dxF dyF rA xG yG dxV dyU rAz dxC dyC rAw rAs dxG dyG AngleCS AngleSN
(PID.TID 0000.0001) tile:   4 ; Read from file grid_cs32.face002.bin
(PID.TID 0000.0001)   => xC yC dxF dyF rA xG yG dxV dyU rAz dxC dyC rAw rAs dxG dyG AngleCS AngleSN
(PID.TID 0000.0001) tile:   5 ; Read from file grid_cs32.face003.bin
(PID.TID 0000.0001)   => xC yC dxF dyF rA xG yG dxV dyU rAz dxC dyC rAw rAs dxG dyG AngleCS AngleSN
(PID.TID 0000.0001) tile:   6 ; Read from file grid_cs32.face003.bin
(PID.TID 0000.0001)   => xC yC dxF dyF rA xG yG dxV dyU rAz dxC dyC rAw rAs dxG dyG AngleCS AngleSN
(PID.TID 0000.0001) tile:   7 ; Read from file grid_cs32.face004.bin
(PID.TID 0000.0001)   => xC yC dxF dyF rA xG yG dxV dyU rAz dxC dyC rAw rAs dxG dyG AngleCS AngleSN
(PID.TID 0000.0001) tile:   8 ; Read from file grid_cs32.face004.bin
(PID.TID 0000.0001)   => xC yC dxF dyF rA xG yG dxV dyU rAz dxC dyC rAw rAs dxG dyG AngleCS AngleSN
(PID.TID 0000.0001) tile:   9 ; Read from file grid_cs32.face005.bin
(PID.TID 0000.0001)   => xC yC dxF dyF rA xG yG dxV dyU rAz dxC dyC rAw rAs dxG dyG AngleCS AngleSN
(PID.TID 0000.0001) tile:  10 ; Read from file grid_cs32.face005.bin
(PID.TID 0000.0001)   => xC yC dxF dyF rA xG yG dxV dyU rAz dxC dyC rAw rAs dxG dyG AngleCS AngleSN
(PID.TID 0000.0001) tile:  11 ; Read from file grid_cs32.face006.bin
(PID.TID 0000.0001)   => xC yC dxF dyF rA xG yG dxV dyU rAz dxC dyC rAw rAs dxG dyG AngleCS AngleSN
(PID.TID 0000.0001) tile:  12 ; Read from file grid_cs32.face006.bin
(PID.TID 0000.0001)   => xC yC dxF dyF rA xG yG dxV dyU rAz dxC dyC rAw rAs dxG dyG AngleCS AngleSN
(PID.TID 0000.0001) %MON XC_max                       =   1.7854351589505E+02
(PID.TID 0000.0001) %MON XC_min                       =  -1.7854351589505E+02
(PID.TID 0000.0001) %MON XC_mean                      =  -1.4199289892029E-14
(PID.TID 0000.0001) %MON XC_sd                        =   1.0355545336287E+02
(PID.TID 0000.0001) %MON XG_max                       =   1.8000000000000E+02
(PID.TID 0000.0001) %MON XG_min                       =  -1.7708797161002E+02
(PID.TID 0000.0001) %MON XG_mean                      =   1.8603515625000E+00
(PID.TID 0000.0001) %MON XG_sd                        =   1.0357130300504E+02
(PID.TID 0000.0001) %MON DXC_max                      =   3.2375185836900E+05
(PID.TID 0000.0001) %MON DXC_min                      =   1.1142031410131E+05
(PID.TID 0000.0001) %MON DXC_mean                     =   2.8605689051214E+05
(PID.TID 0000.0001) %MON DXC_sd                       =   3.4042087138252E+04
(PID.TID 0000.0001) %MON DXF_max                      =   3.2369947500827E+05
(PID.TID 0000.0001) %MON DXF_min                      =   1.2020820513318E+05
(PID.TID 0000.0001) %MON DXF_mean                     =   2.8605437324820E+05
(PID.TID 0000.0001) %MON DXF_sd                       =   3.4050524252539E+04
(PID.TID 0000.0001) %MON DXG_max                      =   3.2375195872773E+05
(PID.TID 0000.0001) %MON DXG_min                      =   1.0098378008791E+05
(PID.TID 0000.0001) %MON DXG_mean                     =   2.8603818508931E+05
(PID.TID 0000.0001) %MON DXG_sd                       =   3.4140406908005E+04
(PID.TID 0000.0001) %MON DXV_max                      =   3.2380418162750E+05
(PID.TID 0000.0001) %MON DXV_min                      =   8.0152299824136E+04
(PID.TID 0000.0001) %MON DXV_mean                     =   2.8603970633619E+05
(PID.TID 0000.0001) %MON DXV_sd                       =   3.4145142117723E+04
(PID.TID 0000.0001) %MON YC_max                       =   8.7940663871962E+01
(PID.TID 0000.0001) %MON YC_min                       =  -8.7940663871962E+01
(PID.TID 0000.0001) %MON YC_mean                      =  -2.3684757858670E-15
(PID.TID 0000.0001) %MON YC_sd                        =   3.8676242969072E+01
(PID.TID 0000.0001) %MON YG_max                       =   9.0000000000000E+01
(PID.TID 0000.0001) %MON YG_min                       =  -9.0000000000000E+01
(PID.TID 0000.0001) %MON YG_mean                      =  -4.1448326252673E-15
(PID.TID 0000.0001) %MON YG_sd                        =   3.8676895860710E+01
(PID.TID 0000.0001) %MON DYC_max                      =   3.2375185836900E+05
(PID.TID 0000.0001) %MON DYC_min                      =   1.1142031410131E+05
(PID.TID 0000.0001) %MON DYC_mean                     =   2.8605689051214E+05
(PID.TID 0000.0001) %MON DYC_sd                       =   3.4042087138252E+04
(PID.TID 0000.0001) %MON DYF_max                      =   3.2369947500827E+05
(PID.TID 0000.0001) %MON DYF_min                      =   1.2020820513318E+05
(PID.TID 0000.0001) %MON DYF_mean                     =   2.8605437324820E+05
(PID.TID 0000.0001) %MON DYF_sd                       =   3.4050524252539E+04
(PID.TID 0000.0001) %MON DYG_max                      =   3.2375195872773E+05
(PID.TID 0000.0001) %MON DYG_min                      =   1.0098378008791E+05
(PID.TID 0000.0001) %MON DYG_mean                     =   2.8603818508931E+05
(PID.TID 0000.0001) %MON DYG_sd                       =   3.4140406908005E+04
(PID.TID 0000.0001) %MON DYU_max                      =   3.2380418162750E+05
(PID.TID 0000.0001) %MON DYU_min                      =   8.0152299824136E+04
(PID.TID 0000.0001) %MON DYU_mean                     =   2.8603970633619E+05
(PID.TID 0000.0001) %MON DYU_sd                       =   3.4145142117723E+04
(PID.TID 0000.0001) %MON RA_max                       =   1.0479260248419E+11
(PID.TID 0000.0001) %MON RA_min                       =   1.4019007022556E+10
(PID.TID 0000.0001) %MON RA_mean                      =   8.2992246709265E+10
(PID.TID 0000.0001) %MON RA_sd                        =   1.7509089299457E+10
(PID.TID 0000.0001) %MON RAW_max                      =   1.0480965274559E+11
(PID.TID 0000.0001) %MON RAW_min                      =   1.2166903467143E+10
(PID.TID 0000.0001) %MON RAW_mean                     =   8.2992246709235E+10
(PID.TID 0000.0001) %MON RAW_sd                       =   1.7481917919656E+10
(PID.TID 0000.0001) %MON RAS_max                      =   1.0480965274559E+11
(PID.TID 0000.0001) %MON RAS_min                      =   1.2166903467143E+10
(PID.TID 0000.0001) %MON RAS_mean                     =   8.2992246709235E+10
(PID.TID 0000.0001) %MON RAS_sd                       =   1.7481917919656E+10
(PID.TID 0000.0001) %MON RAZ_max                      =   1.0484349334619E+11
(PID.TID 0000.0001) %MON RAZ_min                      =   8.8317900612505E+09
(PID.TID 0000.0001) %MON RAZ_mean                     =   8.2992246709235E+10
(PID.TID 0000.0001) %MON RAZ_sd                       =   1.7482297311044E+10
(PID.TID 0000.0001) %MON AngleCS_max                  =   9.9999994756719E-01
(PID.TID 0000.0001) %MON AngleCS_min                  =  -9.9968286884824E-01
(PID.TID 0000.0001) %MON AngleCS_mean                 =   3.3078922539000E-01
(PID.TID 0000.0001) %MON AngleCS_sd                   =   6.2496278958502E-01
(PID.TID 0000.0001) %MON AngleSN_max                  =   9.9968286884824E-01
(PID.TID 0000.0001) %MON AngleSN_min                  =  -9.9999994756719E-01
(PID.TID 0000.0001) %MON AngleSN_mean                 =  -3.3078922539000E-01
(PID.TID 0000.0001) %MON AngleSN_sd                   =   6.2496278958502E-01
(PID.TID 0000.0001)  MDS_READ_FIELD: opening global file: bathy_Hmin50.bin
(PID.TID 0000.0001) GAD_INIT_FIXED: GAD_OlMinSize=  1  0  1
(PID.TID 0000.0001) 
(PID.TID 0000.0001) // ===================================
(PID.TID 0000.0001) // GAD parameters :
(PID.TID 0000.0001) // ===================================
(PID.TID 0000.0001) tempAdvScheme =   /* Temp. Horiz.Advection scheme selector */
(PID.TID 0000.0001)                       2
(PID.TID 0000.0001)     ;
(PID.TID 0000.0001) tempVertAdvScheme =   /* Temp. Vert. Advection scheme selector */
(PID.TID 0000.0001)                       2
(PID.TID 0000.0001)     ;
(PID.TID 0000.0001) tempMultiDimAdvec =   /* use Muti-Dim Advec method for Temp */
(PID.TID 0000.0001)                   F
(PID.TID 0000.0001)     ;
(PID.TID 0000.0001) tempSOM_Advection = /* use 2nd Order Moment Advection for Temp */
(PID.TID 0000.0001)                   F
(PID.TID 0000.0001)     ;
(PID.TID 0000.0001) AdamsBashforthGt = /* apply Adams-Bashforth extrapolation on Gt */
(PID.TID 0000.0001)                   T
(PID.TID 0000.0001)     ;
(PID.TID 0000.0001) AdamsBashforth_T = /* apply Adams-Bashforth extrapolation on Temp */
(PID.TID 0000.0001)                   F
(PID.TID 0000.0001)     ;
(PID.TID 0000.0001) saltAdvScheme =   /* Salt. Horiz.advection scheme selector */
(PID.TID 0000.0001)                       2
(PID.TID 0000.0001)     ;
(PID.TID 0000.0001) saltVertAdvScheme =   /* Salt. Vert. Advection scheme selector */
(PID.TID 0000.0001)                       2
(PID.TID 0000.0001)     ;
(PID.TID 0000.0001) saltMultiDimAdvec =   /* use Muti-Dim Advec method for Salt */
(PID.TID 0000.0001)                   F
(PID.TID 0000.0001)     ;
(PID.TID 0000.0001) saltSOM_Advection = /* use 2nd Order Moment Advection for Salt */
(PID.TID 0000.0001)                   F
(PID.TID 0000.0001)     ;
(PID.TID 0000.0001) AdamsBashforthGs = /* apply Adams-Bashforth extrapolation on Gs */
(PID.TID 0000.0001)                   T
(PID.TID 0000.0001)     ;
(PID.TID 0000.0001) AdamsBashforth_S = /* apply Adams-Bashforth extrapolation on Salt */
(PID.TID 0000.0001)                   F
(PID.TID 0000.0001)     ;
(PID.TID 0000.0001) // ===================================
(PID.TID 0000.0001) 
(PID.TID 0000.0001) // =======================================================
(PID.TID 0000.0001) // External forcing (EXF) configuration >>> START <<<
(PID.TID 0000.0001) // =======================================================
(PID.TID 0000.0001) 
(PID.TID 0000.0001)  EXF general parameters:
(PID.TID 0000.0001) 
(PID.TID 0000.0001) exf_iprec = /* exf file precision */
(PID.TID 0000.0001)                      64
(PID.TID 0000.0001)     ;
(PID.TID 0000.0001) useExfYearlyFields = /* add extension _YEAR to input file names */
(PID.TID 0000.0001)                   F
(PID.TID 0000.0001)     ;
(PID.TID 0000.0001) twoDigitYear = /* use 2-digit year extension */
(PID.TID 0000.0001)                   F
(PID.TID 0000.0001)     ;
(PID.TID 0000.0001) useExfCheckRange = /* check for fields range */
(PID.TID 0000.0001)                   T
(PID.TID 0000.0001)     ;
(PID.TID 0000.0001) diags_opOceWeighted = /* weight flux diags by open-ocean fraction */
(PID.TID 0000.0001)                   T
(PID.TID 0000.0001)     ;
(PID.TID 0000.0001) exf_debugLev = /* select EXF-debug printing level */
(PID.TID 0000.0001)                       2
(PID.TID 0000.0001)     ;
(PID.TID 0000.0001) exf_monFreq  = /* EXF monitor frequency [ s ] */
(PID.TID 0000.0001)                 0.000000000000000E+00
(PID.TID 0000.0001)     ;
(PID.TID 0000.0001) exf_adjMonSelect = /* select group of exf AD-variables to monitor */
(PID.TID 0000.0001)                       1
(PID.TID 0000.0001)     ;
(PID.TID 0000.0001) repeatPeriod = /* period for cycling forcing dataset [ s ] */
(PID.TID 0000.0001)                 3.110400000000000E+07
(PID.TID 0000.0001)     ;
(PID.TID 0000.0001) climTempFreeze= /* Minimum climatological temperature [deg.C] */
(PID.TID 0000.0001)                -1.900000000000000E+00
(PID.TID 0000.0001)     ;
(PID.TID 0000.0001) windStressMax = /* Maximum absolute windstress [ Pa ] */
(PID.TID 0000.0001)                 2.000000000000000E+00
(PID.TID 0000.0001)     ;
(PID.TID 0000.0001) stressIsOnCgrid = /* set u,v_stress on Arakawa C-grid */
(PID.TID 0000.0001)                   T
(PID.TID 0000.0001)     ;
(PID.TID 0000.0001) rotateStressOnAgrid = /* rotate u,v_stress on Arakawa A-grid */
(PID.TID 0000.0001)                   F
(PID.TID 0000.0001)     ;
(PID.TID 0000.0001) cen2kel = /* conversion of deg. Centigrade to Kelvin [K] */
(PID.TID 0000.0001)                 2.731500000000000E+02
(PID.TID 0000.0001)     ;
(PID.TID 0000.0001) gravity_mks= /* gravitational acceleration [m/s^2] */
(PID.TID 0000.0001)                 9.810000000000000E+00
(PID.TID 0000.0001)     ;
(PID.TID 0000.0001) atmrho =  /* mean atmospheric density [kg/m^3] */
(PID.TID 0000.0001)                 1.220000000000000E+00
(PID.TID 0000.0001)     ;
(PID.TID 0000.0001) atmcp =  /* mean atmospheric specific heat [J/kg/K] */
(PID.TID 0000.0001)                 1.005000000000000E+03
(PID.TID 0000.0001)     ;
(PID.TID 0000.0001) flamb =  /* latent heat of evaporation [J/kg] */
(PID.TID 0000.0001)                 2.500000000000000E+06
(PID.TID 0000.0001)     ;
(PID.TID 0000.0001) flami =  /* latent heat of pure-ice melting [J/kg] */
(PID.TID 0000.0001)                 3.340000000000000E+05
(PID.TID 0000.0001)     ;
(PID.TID 0000.0001) cvapor_fac = /* const. for Saturation calculation [?] */
(PID.TID 0000.0001)                 6.403800000000000E+05
(PID.TID 0000.0001)     ;
(PID.TID 0000.0001) cvapor_exp = /* const. for Saturation calculation [?] */
(PID.TID 0000.0001)                 5.107400000000000E+03
(PID.TID 0000.0001)     ;
(PID.TID 0000.0001) cvapor_fac_ice= /* const. for Saturation calculation [?] */
(PID.TID 0000.0001)                 1.163780000000000E+07
(PID.TID 0000.0001)     ;
(PID.TID 0000.0001) cvapor_exp_ice= /* const. for Saturation calculation [?] */
(PID.TID 0000.0001)                 5.897800000000000E+03
(PID.TID 0000.0001)     ;
(PID.TID 0000.0001) humid_fac = /* humidity coef. in virtual temp. [(kg/kg)^-1] */
(PID.TID 0000.0001)                 6.080000000000000E-01
(PID.TID 0000.0001)     ;
(PID.TID 0000.0001) gamma_blk = /* adiabatic lapse rate [?] */
(PID.TID 0000.0001)                 1.000000000000000E-02
(PID.TID 0000.0001)     ;
(PID.TID 0000.0001) saltsat = /* reduction of Qsat over salty water [-] */
(PID.TID 0000.0001)                 9.800000000000000E-01
(PID.TID 0000.0001)     ;
(PID.TID 0000.0001) noNegativeEvap = /* prevent negative Evaporation */
(PID.TID 0000.0001)                   F
(PID.TID 0000.0001)     ;
(PID.TID 0000.0001) sstExtrapol = /* extrapolation coeff from lev. 1 & 2 to surf [-] */
(PID.TID 0000.0001)                 0.000000000000000E+00
(PID.TID 0000.0001)     ;
(PID.TID 0000.0001) cDrag_1 = /* coef used in drag calculation [m/s] */
(PID.TID 0000.0001)                 2.700000000000000E-03
(PID.TID 0000.0001)     ;
(PID.TID 0000.0001) cDrag_2 = /* coef used in drag calculation [-] */
(PID.TID 0000.0001)                 1.420000000000000E-04
(PID.TID 0000.0001)     ;
(PID.TID 0000.0001) cDrag_3 = /* coef used in drag calculation [s/m] */
(PID.TID 0000.0001)                 7.640000000000000E-05
(PID.TID 0000.0001)     ;
(PID.TID 0000.0001) cDrag_8 = /* coef used in drag calculation [(s/m)^6] */
(PID.TID 0000.0001)                 1.234567000000000E+05
(PID.TID 0000.0001)     ;
(PID.TID 0000.0001) cDragMax = /* maximum drag (Large and Yeager, 2009) [-] */
(PID.TID 0000.0001)                 1.234567000000000E+05
(PID.TID 0000.0001)     ;
(PID.TID 0000.0001) umax = /* at maximum wind (Large and Yeager, 2009) [m/s] */
(PID.TID 0000.0001)                 1.234567000000000E+05
(PID.TID 0000.0001)     ;
(PID.TID 0000.0001) cStanton_1 = /* coef used in Stanton number calculation [-] */
(PID.TID 0000.0001)                 3.270000000000000E-02
(PID.TID 0000.0001)     ;
(PID.TID 0000.0001) cStanton_2 = /* coef used in Stanton number calculation [-] */
(PID.TID 0000.0001)                 1.800000000000000E-02
(PID.TID 0000.0001)     ;
(PID.TID 0000.0001) cDalton = /* Dalton number [-] */
(PID.TID 0000.0001)                 3.460000000000000E-02
(PID.TID 0000.0001)     ;
(PID.TID 0000.0001) exf_scal_BulkCdn= /* Drag coefficient scaling factor [-] */
(PID.TID 0000.0001)                 1.000000000000000E+00
(PID.TID 0000.0001)     ;
(PID.TID 0000.0001) zolmin = /* minimum stability parameter [?] */
(PID.TID 0000.0001)                -1.000000000000000E+02
(PID.TID 0000.0001)     ;
(PID.TID 0000.0001) psim_fac = /* coef used in turbulent fluxes calculation [-] */
(PID.TID 0000.0001)                 5.000000000000000E+00
(PID.TID 0000.0001)     ;
(PID.TID 0000.0001) zref =  /* reference height [ m ] */
(PID.TID 0000.0001)                 1.000000000000000E+01
(PID.TID 0000.0001)     ;
(PID.TID 0000.0001) hu =  /* height of mean wind [ m ] */
(PID.TID 0000.0001)                 1.000000000000000E+01
(PID.TID 0000.0001)     ;
(PID.TID 0000.0001) ht =  /* height of mean temperature [ m ] */
(PID.TID 0000.0001)                 1.000000000000000E+01
(PID.TID 0000.0001)     ;
(PID.TID 0000.0001) hq =  /* height of mean spec.humidity [ m ] */
(PID.TID 0000.0001)                 1.000000000000000E+01
(PID.TID 0000.0001)     ;
(PID.TID 0000.0001) uMin = /* minimum wind speed [m/s] */
(PID.TID 0000.0001)                 5.000000000000000E-01
(PID.TID 0000.0001)     ;
(PID.TID 0000.0001) useStabilityFct_overIce= /* transfert Coeffs over sea-ice depend on stability */
(PID.TID 0000.0001)                   F
(PID.TID 0000.0001)     ;
(PID.TID 0000.0001) exf_iceCd = /* drag coefficient over sea-ice (fixed) [-] */
(PID.TID 0000.0001)                 1.630000000000000E-03
(PID.TID 0000.0001)     ;
(PID.TID 0000.0001) exf_iceCe = /* transfert coeff. over sea-ice, for Evap (fixed) [-] */
(PID.TID 0000.0001)                 1.630000000000000E-03
(PID.TID 0000.0001)     ;
(PID.TID 0000.0001) exf_iceCh = /* transfert coeff. over sea-ice, Sens.Heat.(fixed)[-] */
(PID.TID 0000.0001)                 1.630000000000000E-03
(PID.TID 0000.0001)     ;
(PID.TID 0000.0001) exf_albedo =  /* Sea-water albedo [-] */
(PID.TID 0000.0001)                 6.600000000000000E-02
(PID.TID 0000.0001)     ;
(PID.TID 0000.0001) useExfZenAlbedo = /* Sea-water albedo varies with zenith angle */
(PID.TID 0000.0001)                   F
(PID.TID 0000.0001)     ;
(PID.TID 0000.0001) select_ZenAlbedo = /* Sea-water albedo computation method */
(PID.TID 0000.0001)                       0
(PID.TID 0000.0001)     ;
(PID.TID 0000.0001) useExfZenIncoming = /* compute incoming solar radiation */
(PID.TID 0000.0001)                   F
(PID.TID 0000.0001)     ;
(PID.TID 0000.0001) ocean_emissivity = /* longwave ocean-surface emissivity [-] */
(PID.TID 0000.0001)                 1.000000000000000E+00
(PID.TID 0000.0001)     ;
(PID.TID 0000.0001) ice_emissivity = /* longwave seaice emissivity [-] */
(PID.TID 0000.0001)                 9.500000000000000E-01
(PID.TID 0000.0001)     ;
(PID.TID 0000.0001) snow_emissivity = /* longwave snow  emissivity [-] */
(PID.TID 0000.0001)                 9.500000000000000E-01
(PID.TID 0000.0001)     ;
(PID.TID 0000.0001) 
(PID.TID 0000.0001)  EXF main CPP flags:
(PID.TID 0000.0001) 
(PID.TID 0000.0001) // USE_EXF_INTERPOLATION:          NOT defined
(PID.TID 0000.0001) // ALLOW_ATM_TEMP:                     defined
(PID.TID 0000.0001) // ALLOW_ATM_WIND (useAtmWind):    NOT defined
(PID.TID 0000.0001) // ALLOW_DOWNWARD_RADIATION:           defined
(PID.TID 0000.0001) // ALLOW_BULKFORMULAE:                 defined
(PID.TID 0000.0001) 
(PID.TID 0000.0001)    Zonal wind stress forcing starts at             1296000.
(PID.TID 0000.0001)    Zonal wind stress forcing period is             2592000.
(PID.TID 0000.0001)    Zonal wind stress forcing repeat-cycle is      31104000.
(PID.TID 0000.0001)    Zonal wind stress forcing is read from file:
(PID.TID 0000.0001)    >> trenberth_taux.bin <<
(PID.TID 0000.0001) 
(PID.TID 0000.0001)    Meridional wind stress forcing starts at        1296000.
(PID.TID 0000.0001)    Meridional wind stress forcing period is        2592000.
(PID.TID 0000.0001)    Meridional wind stress forcing rep-cycle is    31104000.
(PID.TID 0000.0001)    Meridional wind stress forcing is read from file:
(PID.TID 0000.0001)    >> trenberth_tauy.bin <<
(PID.TID 0000.0001) 
(PID.TID 0000.0001)    Surface wind speed starts at                    1296000.
(PID.TID 0000.0001)    Surface wind speed period is                    2592000.
(PID.TID 0000.0001)    Surface wind speed repeat-cycle is             31104000.
(PID.TID 0000.0001)    Surface wind speed is read from file:
(PID.TID 0000.0001)    >> core_wndSpd_cs32.bin <<
(PID.TID 0000.0001) 
(PID.TID 0000.0001)    Atmospheric temperature starts at               1296000.
(PID.TID 0000.0001)    Atmospheric temperature period is               2592000.
(PID.TID 0000.0001)    Atmospheric temperature repeat-cycle is        31104000.
(PID.TID 0000.0001)    Atmospheric temperature is read from file:
(PID.TID 0000.0001)    >> core_t_Air_cs32.bin <<
(PID.TID 0000.0001) 
(PID.TID 0000.0001)    Atmospheric specific humidity starts at         1296000.
(PID.TID 0000.0001)    Atmospheric specific humidity period is         2592000.
(PID.TID 0000.0001)    Atmospheric specific humidity rep-cycle is     31104000.
(PID.TID 0000.0001)    Atmospheric specific humidity is read from file:
(PID.TID 0000.0001)    >> core_q_air_cs32.bin <<
(PID.TID 0000.0001) 
(PID.TID 0000.0001) // ALLOW_READ_TURBFLUXES:          NOT defined
(PID.TID 0000.0001) // EXF_READ_EVAP:                  NOT defined
(PID.TID 0000.0001) 
(PID.TID 0000.0001)    Precipitation data starts at                    1296000.
(PID.TID 0000.0001)    Precipitation data period is                    2592000.
(PID.TID 0000.0001)    Precipitation data repeat-cycle is             31104000.
(PID.TID 0000.0001)    Precipitation data is read from file:
(PID.TID 0000.0001)    >> core_prec_1_cs32.bin <<
(PID.TID 0000.0001) 
(PID.TID 0000.0001)    Snow Precipitation data starts at               1296000.
(PID.TID 0000.0001)    Snow Precipitation data period is               2592000.
(PID.TID 0000.0001)    Snow Precipitation data repeat-cycle is        31104000.
(PID.TID 0000.0001)    Snow Precipitation data is read from file:
(PID.TID 0000.0001)    >> core_snwP_1_cs32.bin <<
(PID.TID 0000.0001) 
(PID.TID 0000.0001) // ALLOW_RUNOFF:                       defined
(PID.TID 0000.0001)    Runoff data starts at                           1296000.
(PID.TID 0000.0001)    Runoff data period is                           2592000.
(PID.TID 0000.0001)    Runoff data repeat-cycle is                    31104000.
(PID.TID 0000.0001)    Runoff data is read from file:
(PID.TID 0000.0001)    >> core_rnof_1_cs32.bin <<
(PID.TID 0000.0001) 
(PID.TID 0000.0001) // ALLOW_RUNOFTEMP:                    defined
(PID.TID 0000.0001) // ALLOW_SALTFLX:                  NOT defined
(PID.TID 0000.0001) 
(PID.TID 0000.0001)    Downward shortwave flux starts at               1296000.
(PID.TID 0000.0001)    Downward shortwave flux period is               2592000.
(PID.TID 0000.0001)    Downward shortwave flux repeat-cycle is        31104000.
(PID.TID 0000.0001)    Downward shortwave flux is read from file:
(PID.TID 0000.0001)    >> core_dwnSw_cs32.bin <<
(PID.TID 0000.0001) 
(PID.TID 0000.0001)    Downward longwave flux starts at                1296000.
(PID.TID 0000.0001)    Downward longwave flux period is                2592000.
(PID.TID 0000.0001)    Downward longwave flux repeat-cycle is         31104000.
(PID.TID 0000.0001)    Downward longwave flux is read from file:
(PID.TID 0000.0001)    >> core_dwnLw_cs32.bin <<
(PID.TID 0000.0001) 
(PID.TID 0000.0001) // =======================================================
(PID.TID 0000.0001) // External forcing (EXF) climatology configuration :
(PID.TID 0000.0001) // =======================================================
(PID.TID 0000.0001) 
(PID.TID 0000.0001) // ALLOW_CLIMSST_RELAXATION:           defined
(PID.TID 0000.0001)    Climatological SST starts at                    1296000.
(PID.TID 0000.0001)    Climatological SST period is                    2592000.
(PID.TID 0000.0001)    Climatological SST repeat-cycle is             31104000.
(PID.TID 0000.0001)    Climatological SST is read from file:
(PID.TID 0000.0001)    >> lev_surfT_cs_12m.bin <<
(PID.TID 0000.0001) 
(PID.TID 0000.0001) // ALLOW_CLIMSSS_RELAXATION:           defined
(PID.TID 0000.0001)    Climatological SSS starts at                    1296000.
(PID.TID 0000.0001)    Climatological SSS period is                    2592000.
(PID.TID 0000.0001)    Climatological SSS repeat-cycle is             31104000.
(PID.TID 0000.0001)    Climatological SSS is read from file:
(PID.TID 0000.0001)    >> lev_surfS_cs_12m.bin <<
(PID.TID 0000.0001) 
(PID.TID 0000.0001) // =======================================================
(PID.TID 0000.0001) // External forcing (EXF) configuration  >>> END <<<
(PID.TID 0000.0001) // =======================================================
(PID.TID 0000.0001) 
(PID.TID 0000.0001) // =======================================================
(PID.TID 0000.0001) // Seaice configuration (SEAICE_PARM01) >>> START <<<
(PID.TID 0000.0001) // =======================================================
(PID.TID 0000.0001) 
(PID.TID 0000.0001)    Seaice time stepping configuration   > START <
(PID.TID 0000.0001)    ----------------------------------------------
(PID.TID 0000.0001) SEAICE_deltaTtherm= /* thermodynamic timestep */
(PID.TID 0000.0001)                 8.640000000000000E+04
(PID.TID 0000.0001)     ;
(PID.TID 0000.0001) SEAICE_deltaTdyn  = /* dynamic timestep */
(PID.TID 0000.0001)                 8.640000000000000E+04
(PID.TID 0000.0001)     ;
(PID.TID 0000.0001) SEAICEuseBDF2  = /* use backw. differencing for mom. eq. */
(PID.TID 0000.0001)                   F
(PID.TID 0000.0001)     ;
(PID.TID 0000.0001) SEAICEupdateOceanStress= /* update Ocean surf. stress */
(PID.TID 0000.0001)                   T
(PID.TID 0000.0001)     ;
(PID.TID 0000.0001) SEAICErestoreUnderIce  = /* restore T and S under ice */
(PID.TID 0000.0001)                   F
(PID.TID 0000.0001)     ;
(PID.TID 0000.0001) 
(PID.TID 0000.0001)    Seaice dynamics configuration   > START <
(PID.TID 0000.0001)    ------------------------------------------
(PID.TID 0000.0001) SEAICEuseDYNAMICS = /* use dynamics */
(PID.TID 0000.0001)                   T
(PID.TID 0000.0001)     ;
(PID.TID 0000.0001) model grid type   = /* type of sea ice model grid */
(PID.TID 0000.0001)               'C-GRID'
(PID.TID 0000.0001)     ;
(PID.TID 0000.0001) SEAICEuseStrImpCpl = /* use strongly implicit coupling */
(PID.TID 0000.0001)                   F
(PID.TID 0000.0001)     ;
(PID.TID 0000.0001) SEAICEusePicardAsPrecon = /* Picard as preconditioner */
(PID.TID 0000.0001)                   F
(PID.TID 0000.0001)     ;
(PID.TID 0000.0001) SEAICEuseLSR      = /* use default Picard-LSR solver */
(PID.TID 0000.0001)                   T
(PID.TID 0000.0001)     ;
(PID.TID 0000.0001) SEAICEuseLSRflex  = /* with residual norm criterion */
(PID.TID 0000.0001)                   T
(PID.TID 0000.0001)     ;
(PID.TID 0000.0001) SEAICEuseKrylov   = /* use Picard-Krylov solver */
(PID.TID 0000.0001)                   F
(PID.TID 0000.0001)     ;
(PID.TID 0000.0001) SEAICEuseEVP      = /* use EVP solver rather than LSR */
(PID.TID 0000.0001)                   F
(PID.TID 0000.0001)     ;
(PID.TID 0000.0001) SEAICEuseJFNK     = /* use JFNK solver */
(PID.TID 0000.0001)                   F
(PID.TID 0000.0001)     ;
(PID.TID 0000.0001) OCEAN_drag        = /* air-ocean drag coefficient */
(PID.TID 0000.0001)                 1.000000000000000E-03
(PID.TID 0000.0001)     ;
(PID.TID 0000.0001) SEAICE_drag       = /* air-ice drag coefficient */
(PID.TID 0000.0001)                 1.000000000000000E-03
(PID.TID 0000.0001)     ;
(PID.TID 0000.0001) SEAICE_drag_south      = /* Southern Ocean SEAICE_drag */
(PID.TID 0000.0001)                 1.000000000000000E-03
(PID.TID 0000.0001)     ;
(PID.TID 0000.0001) SEAICE_waterDrag  = /* water-ice drag (no units) */
(PID.TID 0000.0001)                 5.500000000000000E-03
(PID.TID 0000.0001)     ;
(PID.TID 0000.0001) SEAICE_waterDrag_south = /* Southern Ocean waterDrag (no units) */
(PID.TID 0000.0001)                 5.500000000000000E-03
(PID.TID 0000.0001)     ;
(PID.TID 0000.0001) SEAICEdWatMin = /* minimum linear water-ice drag (in m/s) */
(PID.TID 0000.0001)                 2.500000000000000E-01
(PID.TID 0000.0001)     ;
(PID.TID 0000.0001) SEAICEuseTilt     = /* include surface tilt in dyna. */
(PID.TID 0000.0001)                   T
(PID.TID 0000.0001)     ;
(PID.TID 0000.0001) SEAICEuseTEM      = /* use truncated ellipse rheology */
(PID.TID 0000.0001)                   F
(PID.TID 0000.0001)     ;
(PID.TID 0000.0001) SEAICE_strength   = /* sea-ice strength Pstar */
(PID.TID 0000.0001)                 2.750000000000000E+04
(PID.TID 0000.0001)     ;
(PID.TID 0000.0001) SEAICE_cStar      = /* sea-ice strength parameter cStar */
(PID.TID 0000.0001)                 2.000000000000000E+01
(PID.TID 0000.0001)     ;
(PID.TID 0000.0001) SEAICEpressReplFac= /* press. replacement method factor */
(PID.TID 0000.0001)                 1.000000000000000E+00
(PID.TID 0000.0001)     ;
(PID.TID 0000.0001) SEAICE_tensilFac  = /* sea-ice tensile strength factor */
(PID.TID 0000.0001)                 0.000000000000000E+00
(PID.TID 0000.0001)     ;
(PID.TID 0000.0001) SEAICE_tensilDepth= /* crit. depth for tensile strength */
(PID.TID 0000.0001)                 0.000000000000000E+00
(PID.TID 0000.0001)     ;
(PID.TID 0000.0001) SEAICEpresH0   = /* sea-ice strength Heff threshold */
(PID.TID 0000.0001)                 1.000000000000000E+00
(PID.TID 0000.0001)     ;
(PID.TID 0000.0001) SEAICEpresPow0 = /* exponent for Heff<SEAICEpresH0 */
(PID.TID 0000.0001)                       1
(PID.TID 0000.0001)     ;
(PID.TID 0000.0001) SEAICEpresPow1 = /* exponent for Heff>SEAICEpresH0 */
(PID.TID 0000.0001)                       1
(PID.TID 0000.0001)     ;
(PID.TID 0000.0001) SEAICEetaZmethod = /* method computing eta at Z-point */
(PID.TID 0000.0001)                       3
(PID.TID 0000.0001)     ;
(PID.TID 0000.0001) SEAICE_zetaMaxFac = /* factor for upper viscosity bound */
(PID.TID 0000.0001)                 2.500000000000000E+08
(PID.TID 0000.0001)     ;
(PID.TID 0000.0001) SEAICE_zetaMin    = /* lower bound for viscosity */
(PID.TID 0000.0001)                 0.000000000000000E+00
(PID.TID 0000.0001)     ;
(PID.TID 0000.0001) SEAICE_eccen    = /* elliptical yield curve eccent */
(PID.TID 0000.0001)                 2.000000000000000E+00
(PID.TID 0000.0001)     ;
(PID.TID 0000.0001) SEAICEstressFactor    = /* wind stress scaling factor */
(PID.TID 0000.0001)                 1.000000000000000E+00
(PID.TID 0000.0001)     ;
(PID.TID 0000.0001) SEAICE_airTurnAngle    = /* air-ice turning angle */
(PID.TID 0000.0001)                 0.000000000000000E+00
(PID.TID 0000.0001)     ;
(PID.TID 0000.0001) SEAICE_waterTurnAngle  = /* ice-water turning angle */
(PID.TID 0000.0001)                 0.000000000000000E+00
(PID.TID 0000.0001)     ;
(PID.TID 0000.0001) SEAICEuseMetricTerms = /* use metric terms */
(PID.TID 0000.0001)                   T
(PID.TID 0000.0001)     ;
(PID.TID 0000.0001) SEAICE_no_slip    = /* no slip boundary conditions */
(PID.TID 0000.0001)                   F
(PID.TID 0000.0001)     ;
(PID.TID 0000.0001) SEAICE_2ndOrderBC = /* 2nd order no slip boundary conditions */
(PID.TID 0000.0001)                   F
(PID.TID 0000.0001)     ;
(PID.TID 0000.0001) SEAICE_clipVeloctities = /* impose max. vels. */
(PID.TID 0000.0001)                   T
(PID.TID 0000.0001)     ;
(PID.TID 0000.0001) useHB87stressCoupling  = /* altern. ice-ocean stress */
(PID.TID 0000.0001)                   F
(PID.TID 0000.0001)     ;
(PID.TID 0000.0001) SEAICEscaleSurfStress  = /* scale atm. and ocean-surface stress with AREA */
(PID.TID 0000.0001)                   T
(PID.TID 0000.0001)     ;
(PID.TID 0000.0001) SEAICE_maskRHS    = /* mask RHS of solver */
(PID.TID 0000.0001)                   F
(PID.TID 0000.0001)     ;
(PID.TID 0000.0001) SEAICEaddSnowMass = /* add snow mass to seaiceMassC/U/V */
(PID.TID 0000.0001)                   T
(PID.TID 0000.0001)     ;
(PID.TID 0000.0001) LSR_mixIniGuess = /* mix free-drift sol. into LSR initial Guess */
(PID.TID 0000.0001)                      -1
(PID.TID 0000.0001)     ;
(PID.TID 0000.0001) SEAICE_LSRrelaxU  = /* LSR solver: relaxation parameter */
(PID.TID 0000.0001)                 9.500000000000000E-01
(PID.TID 0000.0001)     ;
(PID.TID 0000.0001) SEAICE_LSRrelaxV  = /* LSR solver: relaxation parameter */
(PID.TID 0000.0001)                 9.500000000000000E-01
(PID.TID 0000.0001)     ;
(PID.TID 0000.0001) LSR_ERROR         = /* sets accuracy of LSR solver */
(PID.TID 0000.0001)                 1.000000000000000E-05
(PID.TID 0000.0001)     ;
(PID.TID 0000.0001) SOLV_NCHECK       = /* test interval for LSR solver */
(PID.TID 0000.0001)                       2
(PID.TID 0000.0001)     ;
(PID.TID 0000.0001) SEAICEuseMultiTileSolver = /* use full domain tri-diag solver */
(PID.TID 0000.0001)                   F
(PID.TID 0000.0001)     ;
(PID.TID 0000.0001) SEAICE_OLx = /* overlap for LSR/preconditioner */
(PID.TID 0000.0001)                       2
(PID.TID 0000.0001)     ;
(PID.TID 0000.0001) SEAICE_OLy = /* overlap for LSR/preconditioner */
(PID.TID 0000.0001)                       2
(PID.TID 0000.0001)     ;
(PID.TID 0000.0001) SEAICEnonLinIterMax = /* max. number of nonlinear solver steps */
(PID.TID 0000.0001)                      10
(PID.TID 0000.0001)     ;
(PID.TID 0000.0001) SEAICElinearIterMax = /* max. number of linear solver steps */
(PID.TID 0000.0001)                    1500
(PID.TID 0000.0001)     ;
(PID.TID 0000.0001) SEAICEnonLinTol     = /* non-linear solver tolerance */
(PID.TID 0000.0001)                 1.000000000000000E-02
(PID.TID 0000.0001)     ;
(PID.TID 0000.0001) 
(PID.TID 0000.0001)    Seaice advection diffusion config,   > START <
(PID.TID 0000.0001)    -----------------------------------------------
(PID.TID 0000.0001) SEAICEmomAdvection = /* advect sea ice momentum */
(PID.TID 0000.0001)                   F
(PID.TID 0000.0001)     ;
(PID.TID 0000.0001)    ==> advection diffusion done in pkg ThSIce
(PID.TID 0000.0001) 
(PID.TID 0000.0001)    Seaice thermodynamics configuration   > START <
(PID.TID 0000.0001)    -----------------------------------------------
(PID.TID 0000.0001) SEAICE_rhoIce     = /* density of sea ice (kg/m3) */
(PID.TID 0000.0001)                 9.100000000000000E+02
(PID.TID 0000.0001)     ;
(PID.TID 0000.0001) SEAICE_rhoSnow    = /* density of snow (kg/m3) */
(PID.TID 0000.0001)                 3.300000000000000E+02
(PID.TID 0000.0001)     ;
(PID.TID 0000.0001) SEAICE_rhoAir     = /* density of air (kg/m3) */
(PID.TID 0000.0001)                 1.220000000000000E+00
(PID.TID 0000.0001)     ;
(PID.TID 0000.0001) usePW79thermodynamics  = /* default 0-layer TD */
(PID.TID 0000.0001)                   F
(PID.TID 0000.0001)     ;
(PID.TID 0000.0001)    pkg/seaice thermodynamics is OFF
(PID.TID 0000.0001) 
(PID.TID 0000.0001)    Seaice initialization and IO config.,   > START <
(PID.TID 0000.0001)    -------------------------------------------------
(PID.TID 0000.0001) SEAICE_initialHEFF= /* initial sea-ice thickness */
(PID.TID 0000.0001)                 0.000000000000000E+00
(PID.TID 0000.0001)     ;
(PID.TID 0000.0001) AreaFile = /* Initial ice concentration File */
(PID.TID 0000.0001)               ''
(PID.TID 0000.0001)     ;
(PID.TID 0000.0001) HeffFile = /* Initial effective ice thickness File */
(PID.TID 0000.0001)               ''
(PID.TID 0000.0001)     ;
(PID.TID 0000.0001) HsnowFile = /* Initial snow thickness File */
(PID.TID 0000.0001)               ''
(PID.TID 0000.0001)     ;
(PID.TID 0000.0001) uIceFile = /* Initial U-ice velocity File */
(PID.TID 0000.0001)               ''
(PID.TID 0000.0001)     ;
(PID.TID 0000.0001) vIceFile = /* Initial V-ice velocity File */
(PID.TID 0000.0001)               ''
(PID.TID 0000.0001)     ;
(PID.TID 0000.0001) SEAICEwriteState  = /* write sea ice state to file */
(PID.TID 0000.0001)                   F
(PID.TID 0000.0001)     ;
(PID.TID 0000.0001) SEAICE_monFreq  = /* monitor frequency */
(PID.TID 0000.0001)                 1.000000000000000E+00
(PID.TID 0000.0001)     ;
(PID.TID 0000.0001) SEAICE_dumpFreq   = /* dump frequency */
(PID.TID 0000.0001)                 0.000000000000000E+00
(PID.TID 0000.0001)     ;
(PID.TID 0000.0001) SEAICE_taveFreq   = /* time-averaging frequency */
(PID.TID 0000.0001)                 0.000000000000000E+00
(PID.TID 0000.0001)     ;
(PID.TID 0000.0001) SEAICE_mon_stdio  = /* write monitor to std-outp */
(PID.TID 0000.0001)                   T
(PID.TID 0000.0001)     ;
(PID.TID 0000.0001) SEAICE_dump_mdsio = /* write snap-shot   using MDSIO */
(PID.TID 0000.0001)                   T
(PID.TID 0000.0001)     ;
(PID.TID 0000.0001) SEAICE_tave_mdsio = /* write TimeAverage using MDSIO */
(PID.TID 0000.0001)                   T
(PID.TID 0000.0001)     ;
(PID.TID 0000.0001) SEAICE_mon_mnc    = /* write monitor to netcdf file */
(PID.TID 0000.0001)                   F
(PID.TID 0000.0001)     ;
(PID.TID 0000.0001) SEAICE_dump_mnc   = /* write snap-shot   using MNC */
(PID.TID 0000.0001)                   F
(PID.TID 0000.0001)     ;
(PID.TID 0000.0001) SEAICE_tave_mnc   = /* write TimeAverage using MNC */
(PID.TID 0000.0001)                   F
(PID.TID 0000.0001)     ;
(PID.TID 0000.0001) 
(PID.TID 0000.0001)    Seaice regularization numbers,   > START <
(PID.TID 0000.0001)    -----------------------------------------------
(PID.TID 0000.0001) SEAICE_deltaMin   = /* reduce singularities in Delta */
(PID.TID 0000.0001)                 1.000000000000000E-10
(PID.TID 0000.0001)     ;
(PID.TID 0000.0001) SEAICE_EPS        = /* small number */
(PID.TID 0000.0001)                 1.000000000000000E-10
(PID.TID 0000.0001)     ;
(PID.TID 0000.0001) SEAICE_EPS_SQ     = /* small number squared */
(PID.TID 0000.0001)                 1.000000000000000E-20
(PID.TID 0000.0001)     ;
(PID.TID 0000.0001) SEAICE_area_reg   = /* reduce derivative singularities */
(PID.TID 0000.0001)                 1.000000000000000E-05
(PID.TID 0000.0001)     ;
(PID.TID 0000.0001) SEAICE_hice_reg   = /* reduce derivative singularities */
(PID.TID 0000.0001)                 5.000000000000000E-02
(PID.TID 0000.0001)     ;
(PID.TID 0000.0001) SEAICE_area_floor = /* reduce derivative singularities */
(PID.TID 0000.0001)                 1.000000000000000E-05
(PID.TID 0000.0001)     ;
(PID.TID 0000.0001) 
(PID.TID 0000.0001) // =======================================================
(PID.TID 0000.0001) // Seaice configuration (SEAICE_PARM01) >>> END <<<
(PID.TID 0000.0001) // =======================================================
(PID.TID 0000.0001) 
(PID.TID 0000.0001) ------------------------------------------------------------
(PID.TID 0000.0001) DIAGNOSTICS_SET_LEVELS: done
(PID.TID 0000.0001)  Total Nb of available Diagnostics: ndiagt=   357
(PID.TID 0000.0001)  write list of available Diagnostics to file: available_diagnostics.log
(PID.TID 0000.0001) SETDIAG: Allocate  1 x  1 Levels for Diagnostic #    23 ETAN
(PID.TID 0000.0001) SETDIAG: Allocate  1 x  1 Levels for Diagnostic #    24 ETANSQ
(PID.TID 0000.0001) SETDIAG: Allocate  1 x  1 Levels for Diagnostic #    25 DETADT2
(PID.TID 0000.0001) SETDIAG: Allocate  1 x  1 Levels for Diagnostic #    73 PHIBOT
(PID.TID 0000.0001) SETDIAG: Allocate  1 x  1 Levels for Diagnostic #    74 PHIBOTSQ
(PID.TID 0000.0001) SETDIAG: Allocate  1 x  1 Levels for Diagnostic #    81 oceTAUX
(PID.TID 0000.0001) SETDIAG: Allocate  1 x  1 Levels for Diagnostic #    82 oceTAUY
(PID.TID 0000.0001) SETDIAG: Allocate  1 x  1 Levels for Diagnostic #    87 oceQnet
(PID.TID 0000.0001) SETDIAG: Allocate  1 x  1 Levels for Diagnostic #    86 oceSflux
(PID.TID 0000.0001) SETDIAG: Allocate  1 x  1 Levels for Diagnostic #    85 oceFWflx
(PID.TID 0000.0001) SETDIAG: Allocate  1 x  1 Levels for Diagnostic #    90 TRELAX
(PID.TID 0000.0001) SETDIAG: Allocate  1 x  1 Levels for Diagnostic #    91 SRELAX
(PID.TID 0000.0001)   space allocated for all diagnostics:      12 levels
(PID.TID 0000.0001)   set mate pointer for diag #    81  oceTAUX  , Parms: UU      U1 , mate:    82
(PID.TID 0000.0001)   set mate pointer for diag #    82  oceTAUY  , Parms: VV      U1 , mate:    81
(PID.TID 0000.0001) DIAGNOSTICS_SET_POINTERS: Set levels for Outp.Stream: surfDiag
(PID.TID 0000.0001)  Levels:       1.
(PID.TID 0000.0001) DIAGNOSTICS_SET_POINTERS: done
(PID.TID 0000.0001) ------------------------------------------------------------
 DIAGSTATS_SET_REGIONS: start reading region-mask file: regMask_lat24.bin
 DIAGSTATS_SET_REGIONS:  reading set k=  1
(PID.TID 0000.0001)  MDS_READ_FIELD: opening global file: regMask_lat24.bin
 DIAGSTATS_SET_REGIONS:          set k=  1 <= done
(PID.TID 0000.0001) DIAGSTATS_SET_REGIONS: define   3 regions:  1  2  3
(PID.TID 0000.0001) ------------------------------------------------------------
(PID.TID 0000.0001) SETDIAG: Allocate  1 Levels for Stats-Diag #    23 ETAN
(PID.TID 0000.0001) SETDIAG: Allocate 15 Levels for Stats-Diag #    30 UVEL
(PID.TID 0000.0001) SETDIAG: Allocate 15 Levels for Stats-Diag #    31 VVEL
(PID.TID 0000.0001) SETDIAG: Allocate 15 Levels for Stats-Diag #    32 WVEL
(PID.TID 0000.0001) SETDIAG: Allocate 15 Levels for Stats-Diag #    26 THETA
(PID.TID 0000.0001) SETDIAG: Allocate 15 Levels for Stats-Diag #    27 SALT
(PID.TID 0000.0001) SETDIAG: Allocate 15 Levels for Stats-Diag #    80 CONVADJ
(PID.TID 0000.0001) SETDIAG: Allocate  1 Levels for Stats-Diag #    25 DETADT2
(PID.TID 0000.0001) SETDIAG: Allocate  1 Levels for Stats-Diag #   325 SI_Fract
(PID.TID 0000.0001) SETDIAG: Allocate  1 Levels for Stats-Diag #   326 SI_Thick
(PID.TID 0000.0001) - NOTE - SETDIAG: Counter Diagnostic #   325 SI_Fract has already been set
(PID.TID 0000.0001) SETDIAG: Allocate  1 Levels for Stats-Diag #   327 SI_SnowH
(PID.TID 0000.0001) - NOTE - SETDIAG: Counter Diagnostic #   325 SI_Fract has already been set
(PID.TID 0000.0001) SETDIAG: Allocate  1 Levels for Stats-Diag #   328 SI_Tsrf
(PID.TID 0000.0001) - NOTE - SETDIAG: Counter Diagnostic #   325 SI_Fract has already been set
(PID.TID 0000.0001) SETDIAG: Allocate  1 Levels for Stats-Diag #   329 SI_Tice1
(PID.TID 0000.0001) - NOTE - SETDIAG: Counter Diagnostic #   325 SI_Fract has already been set
(PID.TID 0000.0001) SETDIAG: Allocate  1 Levels for Stats-Diag #   330 SI_Tice2
(PID.TID 0000.0001) - NOTE - SETDIAG: Counter Diagnostic #   325 SI_Fract has already been set
(PID.TID 0000.0001) SETDIAG: Allocate  1 Levels for Stats-Diag #   331 SI_Qice1
(PID.TID 0000.0001) - NOTE - SETDIAG: Counter Diagnostic #   326 SI_Thick has already been set
(PID.TID 0000.0001) SETDIAG: Allocate  1 Levels for Stats-Diag #   332 SI_Qice2
(PID.TID 0000.0001) - NOTE - SETDIAG: Counter Diagnostic #   326 SI_Thick has already been set
(PID.TID 0000.0001) SETDIAG: Allocate  1 Levels for Stats-Diag #   335 SIsnwPrc
(PID.TID 0000.0001) - NOTE - SETDIAG: Counter Diagnostic #   325 SI_Fract has already been set
(PID.TID 0000.0001) SETDIAG: Allocate  1 Levels for Stats-Diag #   334 SIalbedo
(PID.TID 0000.0001) - NOTE - SETDIAG: Counter Diagnostic #   325 SI_Fract has already been set
(PID.TID 0000.0001) SETDIAG: Allocate  1 Levels for Stats-Diag #   333 SIsnwAge
(PID.TID 0000.0001) SETDIAG: Allocate  1 Levels for Stats-Diag #   338 SIflx2oc
(PID.TID 0000.0001) SETDIAG: Allocate  1 Levels for Stats-Diag #   339 SIfrw2oc
(PID.TID 0000.0001) SETDIAG: Allocate  1 Levels for Stats-Diag #   340 SIsaltFx
(PID.TID 0000.0001) SETDIAG: Allocate  1 Levels for Stats-Diag #   336 SIflxAtm
(PID.TID 0000.0001) SETDIAG: Allocate  1 Levels for Stats-Diag #   337 SIfrwAtm
(PID.TID 0000.0001)   space allocated for all stats-diags:     108 levels
(PID.TID 0000.0001) DIAGSTATS_SET_POINTERS: done
(PID.TID 0000.0001) ------------------------------------------------------------
(PID.TID 0000.0001) DIAGSTATS_INI_IO: open file: dynStDiag.0000072000.txt , unit=     9
(PID.TID 0000.0001) DIAGSTATS_INI_IO: open file: thSIceStDiag.0000072000.txt , unit=    10
(PID.TID 0000.0001) INI_GLOBAL_DOMAIN: Found  19 CS-corner Pts in the domain
(PID.TID 0000.0001) %MON fCori_max                    =   1.4574827780704E-04
(PID.TID 0000.0001) %MON fCori_min                    =  -1.4574827780704E-04
(PID.TID 0000.0001) %MON fCori_mean                   =   3.3881317890172E-21
(PID.TID 0000.0001) %MON fCori_sd                     =   8.4202189509968E-05
(PID.TID 0000.0001) %MON fCoriG_max                   =   1.4584247033981E-04
(PID.TID 0000.0001) %MON fCoriG_min                   =  -1.4584247033981E-04
(PID.TID 0000.0001) %MON fCoriG_mean                  =  -1.6940658945086E-20
(PID.TID 0000.0001) %MON fCoriG_sd                    =   8.4202189509968E-05
(PID.TID 0000.0001) %MON fCoriCos_max                 =   1.4580166994612E-04
(PID.TID 0000.0001) %MON fCoriCos_min                 =   5.2407700865903E-06
(PID.TID 0000.0001) %MON fCoriCos_mean                =   1.1514045869113E-04
(PID.TID 0000.0001) %MON fCoriCos_sd                  =   3.0375849106513E-05
(PID.TID 0000.0001) INI_CG2D: CG2D normalisation factor =  1.9156564154949553E-04
(PID.TID 0000.0001) INI_CG2D: cg2dTolerance = 5.809016360175296E-07 (Area=3.6388673751E+14)
(PID.TID 0000.0001) 
(PID.TID 0000.0001) // =======================================================
(PID.TID 0000.0001) // Model configuration
(PID.TID 0000.0001) // =======================================================
(PID.TID 0000.0001) //
(PID.TID 0000.0001) // "Physical" paramters ( PARM01 in namelist )
(PID.TID 0000.0001) //
(PID.TID 0000.0001) buoyancyRelation = /* Type of relation to get Buoyancy */
(PID.TID 0000.0001)               'OCEANIC'
(PID.TID 0000.0001)     ;
(PID.TID 0000.0001) fluidIsAir   =  /* fluid major constituent is Air */
(PID.TID 0000.0001)                   F
(PID.TID 0000.0001)     ;
(PID.TID 0000.0001) fluidIsWater =  /* fluid major constituent is Water */
(PID.TID 0000.0001)                   T
(PID.TID 0000.0001)     ;
(PID.TID 0000.0001) usingPCoords =  /* use p (or p*) vertical coordinate */
(PID.TID 0000.0001)                   F
(PID.TID 0000.0001)     ;
(PID.TID 0000.0001) usingZCoords =  /* use z (or z*) vertical coordinate */
(PID.TID 0000.0001)                   T
(PID.TID 0000.0001)     ;
(PID.TID 0000.0001) tRef =   /* Reference temperature profile ( oC or K ) */
(PID.TID 0000.0001)    15 @  2.000000000000000E+01              /* K =  1: 15 */
(PID.TID 0000.0001)     ;
(PID.TID 0000.0001) sRef =   /* Reference salinity profile ( g/kg ) */
(PID.TID 0000.0001)    15 @  3.500000000000000E+01              /* K =  1: 15 */
(PID.TID 0000.0001)     ;
(PID.TID 0000.0001) rhoRef =   /* Density vertical profile from (Ref,sRef)( kg/m^3 ) */
(PID.TID 0000.0001)                 1.024872626184147E+03,      /* K =  1 */
(PID.TID 0000.0001)                 1.025135462285008E+03,      /* K =  2 */
(PID.TID 0000.0001)                 1.025507198938228E+03,      /* K =  3 */
(PID.TID 0000.0001)                 1.026030780760464E+03,      /* K =  4 */
(PID.TID 0000.0001)                 1.026748377776259E+03,      /* K =  5 */
(PID.TID 0000.0001)                 1.027679406285166E+03,      /* K =  6 */
(PID.TID 0000.0001)                 1.028820735595355E+03,      /* K =  7 */
(PID.TID 0000.0001)                 1.030168558073105E+03,      /* K =  8 */
(PID.TID 0000.0001)                 1.031718419899614E+03,      /* K =  9 */
(PID.TID 0000.0001)                 1.033465256541184E+03,      /* K = 10 */
(PID.TID 0000.0001)                 1.035403432414885E+03,      /* K = 11 */
(PID.TID 0000.0001)                 1.037526784183520E+03,      /* K = 12 */
(PID.TID 0000.0001)                 1.039828667078104E+03,      /* K = 13 */
(PID.TID 0000.0001)                 1.042302003623418E+03,      /* K = 14 */
(PID.TID 0000.0001)                 1.044939334132512E+03       /* K = 15 */
(PID.TID 0000.0001)     ;
(PID.TID 0000.0001) dBdrRef = /* Vertical grad. of reference buoyancy [(m/s/r)^2] */
(PID.TID 0000.0001)    15 @  0.000000000000000E+00              /* K =  1: 15 */
(PID.TID 0000.0001)     ;
(PID.TID 0000.0001) useStrainTensionVisc= /* Use StrainTension Form of Viscous Operator */
(PID.TID 0000.0001)                   F
(PID.TID 0000.0001)     ;
(PID.TID 0000.0001) useVariableVisc = /* Use variable horizontal viscosity */
(PID.TID 0000.0001)                   F
(PID.TID 0000.0001)     ;
(PID.TID 0000.0001) useHarmonicVisc = /* Use harmonic horizontal viscosity */
(PID.TID 0000.0001)                   T
(PID.TID 0000.0001)     ;
(PID.TID 0000.0001) useBiharmonicVisc= /* Use biharmonic horiz.  viscosity */
(PID.TID 0000.0001)                   F
(PID.TID 0000.0001)     ;
(PID.TID 0000.0001) useSmag3D = /* Use isotropic 3-D Smagorinsky viscosity */
(PID.TID 0000.0001)                   F
(PID.TID 0000.0001)     ;
(PID.TID 0000.0001) viscAh  =   /* Lateral harmonic viscosity ( m^2/s ) */
(PID.TID 0000.0001)                 3.000000000000000E+05
(PID.TID 0000.0001)     ;
(PID.TID 0000.0001) viscA4  =   /* Lateral biharmonic viscosity ( m^4/s ) */
(PID.TID 0000.0001)                 0.000000000000000E+00
(PID.TID 0000.0001)     ;
(PID.TID 0000.0001) no_slip_sides =  /* Viscous BCs: No-slip sides */
(PID.TID 0000.0001)                   T
(PID.TID 0000.0001)     ;
(PID.TID 0000.0001) sideDragFactor = /* side-drag scaling factor (non-dim) */
(PID.TID 0000.0001)                 2.000000000000000E+00
(PID.TID 0000.0001)     ;
(PID.TID 0000.0001) viscArNr = /* vertical profile of vertical viscosity ( m^2/s )*/
(PID.TID 0000.0001)    15 @  1.000000000000000E-03              /* K =  1: 15 */
(PID.TID 0000.0001)     ;
(PID.TID 0000.0001) no_slip_bottom =  /* Viscous BCs: No-slip bottom */
(PID.TID 0000.0001)                   T
(PID.TID 0000.0001)     ;
(PID.TID 0000.0001) bottomVisc_pCell = /* Partial-cell in bottom Visc. BC */
(PID.TID 0000.0001)                   F
(PID.TID 0000.0001)     ;
(PID.TID 0000.0001) bottomDragLinear = /* linear bottom-drag coefficient ( m/s ) */
(PID.TID 0000.0001)                 0.000000000000000E+00
(PID.TID 0000.0001)     ;
(PID.TID 0000.0001) bottomDragQuadratic = /* quadratic bottom-drag coefficient (-) */
(PID.TID 0000.0001)                 0.000000000000000E+00
(PID.TID 0000.0001)     ;
(PID.TID 0000.0001) selectBotDragQuadr = /* select quadratic bottom drag options */
(PID.TID 0000.0001)                      -1
(PID.TID 0000.0001)     ;
(PID.TID 0000.0001) diffKhT =   /* Laplacian diffusion of heat laterally ( m^2/s ) */
(PID.TID 0000.0001)                 0.000000000000000E+00
(PID.TID 0000.0001)     ;
(PID.TID 0000.0001) diffK4T =   /* Biharmonic diffusion of heat laterally ( m^4/s ) */
(PID.TID 0000.0001)                 0.000000000000000E+00
(PID.TID 0000.0001)     ;
(PID.TID 0000.0001) diffKhS =   /* Laplacian diffusion of salt laterally ( m^2/s ) */
(PID.TID 0000.0001)                 0.000000000000000E+00
(PID.TID 0000.0001)     ;
(PID.TID 0000.0001) diffK4S =   /* Biharmonic diffusion of salt laterally ( m^4/s ) */
(PID.TID 0000.0001)                 0.000000000000000E+00
(PID.TID 0000.0001)     ;
(PID.TID 0000.0001) diffKrNrT = /* vertical profile of vertical diffusion of Temp ( m^2/s )*/
(PID.TID 0000.0001)    15 @  3.000000000000000E-05              /* K =  1: 15 */
(PID.TID 0000.0001)     ;
(PID.TID 0000.0001) diffKrNrS = /* vertical profile of vertical diffusion of Salt ( m^2/s )*/
(PID.TID 0000.0001)    15 @  3.000000000000000E-05              /* K =  1: 15 */
(PID.TID 0000.0001)     ;
(PID.TID 0000.0001) diffKrBL79surf = /* Surface diffusion for Bryan and Lewis 79 ( m^2/s ) */
(PID.TID 0000.0001)                 0.000000000000000E+00
(PID.TID 0000.0001)     ;
(PID.TID 0000.0001) diffKrBL79deep = /* Deep diffusion for Bryan and Lewis 1979 ( m^2/s ) */
(PID.TID 0000.0001)                 0.000000000000000E+00
(PID.TID 0000.0001)     ;
(PID.TID 0000.0001) diffKrBL79scl = /* Depth scale for Bryan and Lewis 1979 ( m ) */
(PID.TID 0000.0001)                 2.000000000000000E+02
(PID.TID 0000.0001)     ;
(PID.TID 0000.0001) diffKrBL79Ho = /* Turning depth for Bryan and Lewis 1979 ( m ) */
(PID.TID 0000.0001)                -2.000000000000000E+03
(PID.TID 0000.0001)     ;
(PID.TID 0000.0001) ivdc_kappa = /* Implicit Vertical Diffusivity for Convection ( m^2/s) */
(PID.TID 0000.0001)                 1.000000000000000E+01
(PID.TID 0000.0001)     ;
(PID.TID 0000.0001) hMixCriteria=  /* Criteria for mixed-layer diagnostic */
(PID.TID 0000.0001)                -8.000000000000000E-01
(PID.TID 0000.0001)     ;
(PID.TID 0000.0001) dRhoSmall =  /* Parameter for mixed-layer diagnostic */
(PID.TID 0000.0001)                 1.000000000000000E-06
(PID.TID 0000.0001)     ;
(PID.TID 0000.0001) hMixSmooth=  /* Smoothing parameter for mixed-layer diagnostic */
(PID.TID 0000.0001)                 0.000000000000000E+00
(PID.TID 0000.0001)     ;
(PID.TID 0000.0001) eosType =  /* Type of Equation of State */
(PID.TID 0000.0001)               'JMD95Z'
(PID.TID 0000.0001)     ;
(PID.TID 0000.0001) eosRefP0 = /* Reference atmospheric pressure for EOS ( Pa ) */
(PID.TID 0000.0001)                 1.013250000000000E+05
(PID.TID 0000.0001)     ;
(PID.TID 0000.0001) selectP_inEOS_Zc = /* select pressure to use in EOS (0,1,2,3) */
(PID.TID 0000.0001)                       0
(PID.TID 0000.0001)     0= -g*rhoConst*z ; 1= pRef (from tRef,sRef); 2= Hyd P ; 3= Hyd+NH P
(PID.TID 0000.0001)     ;
(PID.TID 0000.0001) surf_pRef = /* Surface reference pressure ( Pa ) */
(PID.TID 0000.0001)                 1.013250000000000E+05
(PID.TID 0000.0001)     ;
(PID.TID 0000.0001) HeatCapacity_Cp =  /* Specific heat capacity ( J/kg/K ) */
(PID.TID 0000.0001)                 3.994000000000000E+03
(PID.TID 0000.0001)     ;
(PID.TID 0000.0001) celsius2K = /* 0 degree Celsius converted to Kelvin ( K ) */
(PID.TID 0000.0001)                 2.731500000000000E+02
(PID.TID 0000.0001)     ;
(PID.TID 0000.0001) rhoConst  = /* Reference density (Boussinesq)  ( kg/m^3 ) */
(PID.TID 0000.0001)                 1.035000000000000E+03
(PID.TID 0000.0001)     ;
(PID.TID 0000.0001) rhoFacC = /* normalized Reference density @ cell-Center (-) */
(PID.TID 0000.0001)    15 @  1.000000000000000E+00              /* K =  1: 15 */
(PID.TID 0000.0001)     ;
(PID.TID 0000.0001) rhoFacF = /* normalized Reference density @ W-Interface (-) */
(PID.TID 0000.0001)    16 @  1.000000000000000E+00              /* K =  1: 16 */
(PID.TID 0000.0001)     ;
(PID.TID 0000.0001) rhoConstFresh = /* Fresh-water reference density ( kg/m^3 ) */
(PID.TID 0000.0001)                 1.000000000000000E+03
(PID.TID 0000.0001)     ;
(PID.TID 0000.0001) gravity =   /* Gravitational acceleration ( m/s^2 ) */
(PID.TID 0000.0001)                 9.810000000000000E+00
(PID.TID 0000.0001)     ;
(PID.TID 0000.0001) gBaro =   /* Barotropic gravity ( m/s^2 ) */
(PID.TID 0000.0001)                 9.810000000000000E+00
(PID.TID 0000.0001)     ;
(PID.TID 0000.0001) gravFacC = /* gravity factor (vs surf.) @ cell-Center (-) */
(PID.TID 0000.0001)    15 @  1.000000000000000E+00              /* K =  1: 15 */
(PID.TID 0000.0001)     ;
(PID.TID 0000.0001) gravFacF = /* gravity factor (vs surf.) @ W-Interface (-) */
(PID.TID 0000.0001)    16 @  1.000000000000000E+00              /* K =  1: 16 */
(PID.TID 0000.0001)     ;
(PID.TID 0000.0001) rotationPeriod =   /* Rotation Period ( s ) */
(PID.TID 0000.0001)                 8.616400000000000E+04
(PID.TID 0000.0001)     ;
(PID.TID 0000.0001) omega =   /* Angular velocity ( rad/s ) */
(PID.TID 0000.0001)                 7.292123516990375E-05
(PID.TID 0000.0001)     ;
(PID.TID 0000.0001) f0 =   /* Reference coriolis parameter ( 1/s ) */
(PID.TID 0000.0001)                 1.000000000000000E-04
(PID.TID 0000.0001)     ;
(PID.TID 0000.0001) beta =   /* Beta ( 1/(m.s) ) */
(PID.TID 0000.0001)                 9.999999999999999E-12
(PID.TID 0000.0001)     ;
(PID.TID 0000.0001) fPrime =   /* Second coriolis parameter ( 1/s ) */
(PID.TID 0000.0001)                 0.000000000000000E+00
(PID.TID 0000.0001)     ;
(PID.TID 0000.0001) rigidLid =   /* Rigid lid on/off flag */
(PID.TID 0000.0001)                   F
(PID.TID 0000.0001)     ;
(PID.TID 0000.0001) implicitFreeSurface =   /* Implicit free surface on/off flag */
(PID.TID 0000.0001)                   T
(PID.TID 0000.0001)     ;
(PID.TID 0000.0001) freeSurfFac =   /* Implicit free surface factor */
(PID.TID 0000.0001)                 1.000000000000000E+00
(PID.TID 0000.0001)     ;
(PID.TID 0000.0001) implicSurfPress =  /* Surface Pressure implicit factor (0-1) */
(PID.TID 0000.0001)                 1.000000000000000E+00
(PID.TID 0000.0001)     ;
(PID.TID 0000.0001) implicDiv2DFlow =  /* Barot. Flow Div. implicit factor (0-1) */
(PID.TID 0000.0001)                 1.000000000000000E+00
(PID.TID 0000.0001)     ;
(PID.TID 0000.0001) uniformLin_PhiSurf = /* use uniform Bo_surf on/off flag */
(PID.TID 0000.0001)                   T
(PID.TID 0000.0001)     ;
(PID.TID 0000.0001) uniformFreeSurfLev = /* free-surface level-index is uniform */
(PID.TID 0000.0001)                   T
(PID.TID 0000.0001)     ;
(PID.TID 0000.0001) sIceLoadFac =  /* scale factor for sIceLoad (0-1) */
(PID.TID 0000.0001)                 1.000000000000000E+00
(PID.TID 0000.0001)     ;
(PID.TID 0000.0001) hFacMin =   /* minimum partial cell factor (hFac) */
(PID.TID 0000.0001)                 1.000000000000000E-01
(PID.TID 0000.0001)     ;
(PID.TID 0000.0001) hFacMinDr = /* minimum partial cell thickness ( m) */
(PID.TID 0000.0001)                 2.000000000000000E+01
(PID.TID 0000.0001)     ;
(PID.TID 0000.0001) exactConserv =  /* Exact Volume Conservation on/off flag */
(PID.TID 0000.0001)                   T
(PID.TID 0000.0001)     ;
(PID.TID 0000.0001) linFSConserveTr = /* Tracer correction for Lin Free Surface on/off flag */
(PID.TID 0000.0001)                   F
(PID.TID 0000.0001)     ;
(PID.TID 0000.0001) nonlinFreeSurf = /* Non-linear Free Surf. options (-1,0,1,2,3)*/
(PID.TID 0000.0001)                       4
(PID.TID 0000.0001)      -1,0= Off ; 1,2,3= On, 2=+rescale gU,gV, 3=+update cg2d solv.
(PID.TID 0000.0001)     ;
(PID.TID 0000.0001) hFacInf =   /* lower threshold for hFac (nonlinFreeSurf only)*/
(PID.TID 0000.0001)                 2.000000000000000E-01
(PID.TID 0000.0001)     ;
(PID.TID 0000.0001) hFacSup =   /* upper threshold for hFac (nonlinFreeSurf only)*/
(PID.TID 0000.0001)                 2.000000000000000E+00
(PID.TID 0000.0001)     ;
(PID.TID 0000.0001) select_rStar = /* r* Vertical coord. options (=0 r coord.; >0 uses r*)*/
(PID.TID 0000.0001)                       2
(PID.TID 0000.0001)     ;
(PID.TID 0000.0001) useRealFreshWaterFlux = /* Real Fresh Water Flux on/off flag*/
(PID.TID 0000.0001)                   T
(PID.TID 0000.0001)     ;
(PID.TID 0000.0001) temp_EvPrRn = /* Temp. of Evap/Prec/R (UNSET=use local T)(oC)*/
(PID.TID 0000.0001)                 0.000000000000000E+00
(PID.TID 0000.0001)     ;
(PID.TID 0000.0001) salt_EvPrRn = /* Salin. of Evap/Prec/R (UNSET=use local S)(g/kg)*/
(PID.TID 0000.0001)                 0.000000000000000E+00
(PID.TID 0000.0001)     ;
(PID.TID 0000.0001) selectAddFluid = /* option for mass source/sink of fluid (=0: off) */
(PID.TID 0000.0001)                       0
(PID.TID 0000.0001)     ;
(PID.TID 0000.0001) temp_addMass = /* Temp. of addMass array (UNSET=use local T)(oC)*/
(PID.TID 0000.0001)                 0.000000000000000E+00
(PID.TID 0000.0001)     ;
(PID.TID 0000.0001) salt_addMass = /* Salin. of addMass array (UNSET=use local S)(g/kg)*/
(PID.TID 0000.0001)                 0.000000000000000E+00
(PID.TID 0000.0001)     ;
(PID.TID 0000.0001) use3Dsolver = /* use 3-D pressure solver on/off flag */
(PID.TID 0000.0001)                   F
(PID.TID 0000.0001)     ;
(PID.TID 0000.0001) nonHydrostatic =  /* Non-Hydrostatic on/off flag */
(PID.TID 0000.0001)                   F
(PID.TID 0000.0001)     ;
(PID.TID 0000.0001) nh_Am2 = /* Non-Hydrostatic terms scaling factor */
(PID.TID 0000.0001)                 1.000000000000000E+00
(PID.TID 0000.0001)     ;
(PID.TID 0000.0001) implicitNHPress = /* Non-Hyd Pressure implicit factor (0-1)*/
(PID.TID 0000.0001)                 1.000000000000000E+00
(PID.TID 0000.0001)     ;
(PID.TID 0000.0001) selectNHfreeSurf = /* Non-Hyd (free-)Surface option */
(PID.TID 0000.0001)                       0
(PID.TID 0000.0001)     ;
(PID.TID 0000.0001) quasiHydrostatic = /* Quasi-Hydrostatic on/off flag */
(PID.TID 0000.0001)                   F
(PID.TID 0000.0001)     ;
(PID.TID 0000.0001) calc_wVelocity = /* vertical velocity calculation on/off flag */
(PID.TID 0000.0001)                   T
(PID.TID 0000.0001)     ;
(PID.TID 0000.0001) momStepping =  /* Momentum equation on/off flag */
(PID.TID 0000.0001)                   T
(PID.TID 0000.0001)     ;
(PID.TID 0000.0001) vectorInvariantMomentum= /* Vector-Invariant Momentum on/off */
(PID.TID 0000.0001)                   T
(PID.TID 0000.0001)     ;
(PID.TID 0000.0001) momAdvection =  /* Momentum advection on/off flag */
(PID.TID 0000.0001)                   T
(PID.TID 0000.0001)     ;
(PID.TID 0000.0001) momViscosity =  /* Momentum viscosity on/off flag */
(PID.TID 0000.0001)                   T
(PID.TID 0000.0001)     ;
(PID.TID 0000.0001) momImplVertAdv= /* Momentum implicit vert. advection on/off*/
(PID.TID 0000.0001)                   F
(PID.TID 0000.0001)     ;
(PID.TID 0000.0001) implicitViscosity = /* Implicit viscosity on/off flag */
(PID.TID 0000.0001)                   F
(PID.TID 0000.0001)     ;
(PID.TID 0000.0001) selectImplicitDrag= /* Implicit bot Drag options (0,1,2)*/
(PID.TID 0000.0001)                       0
(PID.TID 0000.0001)     0= Expl. ; 1= Impl. on provis. Vel ; 2= Fully Impl (with surf.P)
(PID.TID 0000.0001)     ;
(PID.TID 0000.0001) metricTerms =  /* metric-Terms on/off flag */
(PID.TID 0000.0001)                   F
(PID.TID 0000.0001)     ;
(PID.TID 0000.0001) useNHMTerms = /* Non-Hydrostatic Metric-Terms on/off */
(PID.TID 0000.0001)                   F
(PID.TID 0000.0001)     ;
(PID.TID 0000.0001) selectCoriMap = /* Coriolis Map options (0,1,2,3)*/
(PID.TID 0000.0001)                       2
(PID.TID 0000.0001)     0= f-Plane ; 1= Beta-Plane ; 2= Spherical ; 3= read from file
(PID.TID 0000.0001)     ;
(PID.TID 0000.0001) use3dCoriolis = /* 3-D Coriolis on/off flag */
(PID.TID 0000.0001)                   F
(PID.TID 0000.0001)     ;
(PID.TID 0000.0001) useCoriolis =  /* Coriolis on/off flag */
(PID.TID 0000.0001)                   T
(PID.TID 0000.0001)     ;
(PID.TID 0000.0001) useCDscheme =  /* CD scheme on/off flag */
(PID.TID 0000.0001)                   F
(PID.TID 0000.0001)     ;
(PID.TID 0000.0001) selectCoriScheme= /* Scheme selector for Coriolis-Term */
(PID.TID 0000.0001)                       0
(PID.TID 0000.0001)    = 0 : original discretization (simple averaging, no hFac)
(PID.TID 0000.0001)    = 1 : Wet-point averaging (Jamar & Ozer 1986)
(PID.TID 0000.0001)    = 2 : hFac weighted average (Angular Mom. conserving)
(PID.TID 0000.0001)    = 3 : energy conserving scheme using hFac weighted average
(PID.TID 0000.0001)     ;
(PID.TID 0000.0001) useAbsVorticity= /* V.I Works with f+zeta in Coriolis */
(PID.TID 0000.0001)                   F
(PID.TID 0000.0001)     ;
(PID.TID 0000.0001) selectVortScheme= /* V.I Scheme selector for Vorticity-Term */
(PID.TID 0000.0001)                       1
(PID.TID 0000.0001)    = 0 : enstrophy (Shallow-Water Eq.) conserving scheme by Sadourny, JAS 75
(PID.TID 0000.0001)    = 1 : same as 0 with modified hFac
(PID.TID 0000.0001)    = 2 : energy conserving scheme (used by Sadourny in JAS 75 paper)
(PID.TID 0000.0001)    = 3 : energy (general) and enstrophy (2D, nonDiv.) conserving scheme
(PID.TID 0000.0001)          from Sadourny (Burridge & Haseler, ECMWF Rep.4, 1977)
(PID.TID 0000.0001)     ;
(PID.TID 0000.0001) useJamartMomAdv= /* V.I Non-linear terms Jamart flag */
(PID.TID 0000.0001)                   F
(PID.TID 0000.0001)     ;
(PID.TID 0000.0001) upwindVorticity= /* V.I Upwind bias vorticity flag */
(PID.TID 0000.0001)                   F
(PID.TID 0000.0001)     ;
(PID.TID 0000.0001) highOrderVorticity= /* V.I High order vort. advect. flag */
(PID.TID 0000.0001)                   F
(PID.TID 0000.0001)     ;
(PID.TID 0000.0001) upwindShear= /* V.I Upwind vertical Shear advection flag */
(PID.TID 0000.0001)                   F
(PID.TID 0000.0001)     ;
(PID.TID 0000.0001) selectKEscheme= /* V.I Kinetic Energy scheme selector */
(PID.TID 0000.0001)                       0
(PID.TID 0000.0001)     ;
(PID.TID 0000.0001) momForcing =  /* Momentum forcing on/off flag */
(PID.TID 0000.0001)                   T
(PID.TID 0000.0001)     ;
(PID.TID 0000.0001) momTidalForcing = /* Momentum Tidal forcing on/off flag */
(PID.TID 0000.0001)                   T
(PID.TID 0000.0001)     ;
(PID.TID 0000.0001) momPressureForcing =  /* Momentum pressure term on/off flag */
(PID.TID 0000.0001)                   T
(PID.TID 0000.0001)     ;
(PID.TID 0000.0001) implicitIntGravWave= /* Implicit Internal Gravity Wave flag */
(PID.TID 0000.0001)                   F
(PID.TID 0000.0001)     ;
(PID.TID 0000.0001) staggerTimeStep =    /* Stagger time stepping on/off flag */
(PID.TID 0000.0001)                   T
(PID.TID 0000.0001)     ;
(PID.TID 0000.0001) doResetHFactors = /* reset thickness factors @ each time-step */
(PID.TID 0000.0001)                   F
(PID.TID 0000.0001)     ;
(PID.TID 0000.0001) multiDimAdvection =  /* enable/disable Multi-Dim Advection */
(PID.TID 0000.0001)                   T
(PID.TID 0000.0001)     ;
(PID.TID 0000.0001) useMultiDimAdvec =   /* Multi-Dim Advection is/is-not used */
(PID.TID 0000.0001)                   F
(PID.TID 0000.0001)     ;
(PID.TID 0000.0001) implicitDiffusion = /* Implicit Diffusion on/off flag */
(PID.TID 0000.0001)                   T
(PID.TID 0000.0001)     ;
(PID.TID 0000.0001) tempStepping =  /* Temperature equation on/off flag */
(PID.TID 0000.0001)                   T
(PID.TID 0000.0001)     ;
(PID.TID 0000.0001) tempAdvection = /* Temperature advection on/off flag */
(PID.TID 0000.0001)                   T
(PID.TID 0000.0001)     ;
(PID.TID 0000.0001) tempImplVertAdv = /* Temp. implicit vert. advection on/off */
(PID.TID 0000.0001)                   F
(PID.TID 0000.0001)     ;
(PID.TID 0000.0001) tempForcing  =  /* Temperature forcing on/off flag */
(PID.TID 0000.0001)                   T
(PID.TID 0000.0001)     ;
(PID.TID 0000.0001) balanceQnet  =  /* balance net heat-flux on/off flag */
(PID.TID 0000.0001)                   F
(PID.TID 0000.0001)     ;
(PID.TID 0000.0001) doThetaClimRelax = /* apply SST relaxation on/off flag */
(PID.TID 0000.0001)                   F
(PID.TID 0000.0001)     ;
(PID.TID 0000.0001) balanceThetaClimRelax= /* balance SST relaxation on/off flag */
(PID.TID 0000.0001)                   F
(PID.TID 0000.0001)     ;
(PID.TID 0000.0001) tempIsActiveTr = /* Temp. is a dynamically Active Tracer */
(PID.TID 0000.0001)                   T
(PID.TID 0000.0001)     ;
(PID.TID 0000.0001) saltStepping =  /* Salinity equation on/off flag */
(PID.TID 0000.0001)                   T
(PID.TID 0000.0001)     ;
(PID.TID 0000.0001) saltAdvection = /* Salinity advection on/off flag */
(PID.TID 0000.0001)                   T
(PID.TID 0000.0001)     ;
(PID.TID 0000.0001) saltImplVertAdv = /* Sali. implicit vert. advection on/off */
(PID.TID 0000.0001)                   F
(PID.TID 0000.0001)     ;
(PID.TID 0000.0001) saltForcing  =  /* Salinity forcing on/off flag */
(PID.TID 0000.0001)                   T
(PID.TID 0000.0001)     ;
(PID.TID 0000.0001) selectBalanceEmPmR = /* balancing glob.mean EmPmR selector */
(PID.TID 0000.0001)                       0
(PID.TID 0000.0001)     ;
(PID.TID 0000.0001) doSaltClimRelax = /* apply SSS relaxation on/off flag */
(PID.TID 0000.0001)                   F
(PID.TID 0000.0001)     ;
(PID.TID 0000.0001) balanceSaltClimRelax= /* balance SSS relaxation on/off flag */
(PID.TID 0000.0001)                   F
(PID.TID 0000.0001)     ;
(PID.TID 0000.0001) saltIsActiveTr = /* Salt  is a dynamically Active Tracer */
(PID.TID 0000.0001)                   T
(PID.TID 0000.0001)     ;
(PID.TID 0000.0001)  readBinaryPrec = /* Precision used for reading binary files */
(PID.TID 0000.0001)                      64
(PID.TID 0000.0001)     ;
(PID.TID 0000.0001) writeBinaryPrec = /* Precision used for writing binary files */
(PID.TID 0000.0001)                      64
(PID.TID 0000.0001)     ;
(PID.TID 0000.0001) balancePrintMean = /* print means for balancing fluxes */
(PID.TID 0000.0001)                   F
(PID.TID 0000.0001)     ;
(PID.TID 0000.0001)  rwSuffixType =   /* select format of mds file suffix */
(PID.TID 0000.0001)                       0
(PID.TID 0000.0001)    = 0 : myIter (I10.10) ;   = 1 : 100*myTime (100th sec) ;
(PID.TID 0000.0001)    = 2 : myTime (seconds);   = 3 : myTime/360 (10th of hr);
(PID.TID 0000.0001)    = 4 : myTime/3600 (hours)
(PID.TID 0000.0001)     ;
(PID.TID 0000.0001)  globalFiles = /* write "global" (=not per tile) files */
(PID.TID 0000.0001)                   F
(PID.TID 0000.0001)     ;
(PID.TID 0000.0001)  useSingleCpuIO = /* only master MPI process does I/O */
(PID.TID 0000.0001)                   T
(PID.TID 0000.0001)     ;
(PID.TID 0000.0001)  useSingleCpuInput = /* only master process reads input */
(PID.TID 0000.0001)                   T
(PID.TID 0000.0001)     ;
(PID.TID 0000.0001) /* debLev[*]  : level of debug & auxiliary message printing */
(PID.TID 0000.0001) debLevZero =  0 ; /* level of disabled aux. msg printing */
(PID.TID 0000.0001)    debLevA =  1 ; /* level of minimum  aux. msg printing */
(PID.TID 0000.0001)    debLevB =  2 ; /* level of low aux. print (report read-file opening)*/
(PID.TID 0000.0001)    debLevC =  3 ; /* level of moderate debug prt (most pkgs debug msg) */
(PID.TID 0000.0001)    debLevD =  4 ; /* level of enhanced debug prt (add DEBUG_STATS prt) */
(PID.TID 0000.0001)    debLevE =  5 ; /* level of extensive debug printing */
(PID.TID 0000.0001) debugLevel =  /* select debug printing level */
(PID.TID 0000.0001)                       2
(PID.TID 0000.0001)     ;
(PID.TID 0000.0001)  plotLevel =  /* select PLOT_FIELD printing level */
(PID.TID 0000.0001)                       0
(PID.TID 0000.0001)     ;
(PID.TID 0000.0001) //
(PID.TID 0000.0001) // Elliptic solver(s) paramters ( PARM02 in namelist )
(PID.TID 0000.0001) //
(PID.TID 0000.0001) cg2dMaxIters =   /* Upper limit on 2d con. grad iterations  */
(PID.TID 0000.0001)                     200
(PID.TID 0000.0001)     ;
(PID.TID 0000.0001) cg2dMinItersNSA =   /* Minimum number of iterations of 2d con. grad solver  */
(PID.TID 0000.0001)                       0
(PID.TID 0000.0001)     ;
(PID.TID 0000.0001) cg2dUseMinResSol= /* use cg2d last-iter(=0) / min-resid.(=1) solution */
(PID.TID 0000.0001)                       0
(PID.TID 0000.0001)     ;
(PID.TID 0000.0001) cg2dTargetResidual =   /* 2d con. grad target residual  */
(PID.TID 0000.0001)                 1.000000000000000E-07
(PID.TID 0000.0001)     ;
(PID.TID 0000.0001) cg2dTargetResWunit =   /* CG2d target residual [W units] */
(PID.TID 0000.0001)                 1.000000000000000E-14
(PID.TID 0000.0001)     ;
(PID.TID 0000.0001) cg2dPreCondFreq =   /* Freq. for updating cg2d preconditioner */
(PID.TID 0000.0001)                       1
(PID.TID 0000.0001)     ;
(PID.TID 0000.0001) useSRCGSolver =  /* use single reduction CG solver(s) */
(PID.TID 0000.0001)                   F
(PID.TID 0000.0001)     ;
(PID.TID 0000.0001) useNSACGSolver =  /* use not-self-adjoint CG solver */
(PID.TID 0000.0001)                   F
(PID.TID 0000.0001)     ;
(PID.TID 0000.0001) printResidualFreq = /* Freq. for printing CG residual */
(PID.TID 0000.0001)                       0
(PID.TID 0000.0001)     ;
(PID.TID 0000.0001) //
(PID.TID 0000.0001) // Time stepping paramters ( PARM03 in namelist )
(PID.TID 0000.0001) //
(PID.TID 0000.0001) deltaTMom =   /* Momentum equation timestep ( s ) */
(PID.TID 0000.0001)                 1.200000000000000E+03
(PID.TID 0000.0001)     ;
(PID.TID 0000.0001) deltaTFreeSurf = /* FreeSurface equation timestep ( s ) */
(PID.TID 0000.0001)                 8.640000000000000E+04
(PID.TID 0000.0001)     ;
(PID.TID 0000.0001) dTtracerLev =  /* Tracer equation timestep ( s ) */
(PID.TID 0000.0001)    15 @  8.640000000000000E+04              /* K =  1: 15 */
(PID.TID 0000.0001)     ;
(PID.TID 0000.0001) deltaTClock  =   /* Model clock timestep ( s ) */
(PID.TID 0000.0001)                 8.640000000000000E+04
(PID.TID 0000.0001)     ;
(PID.TID 0000.0001) cAdjFreq =   /* Convective adjustment interval ( s ) */
(PID.TID 0000.0001)                 0.000000000000000E+00
(PID.TID 0000.0001)     ;
(PID.TID 0000.0001) momForcingOutAB = /* =1: take Momentum Forcing out of Adams-Bash. stepping */
(PID.TID 0000.0001)                       1
(PID.TID 0000.0001)     ;
(PID.TID 0000.0001) tracForcingOutAB = /* =1: take T,S,pTr Forcing out of Adams-Bash. stepping */
(PID.TID 0000.0001)                       1
(PID.TID 0000.0001)     ;
(PID.TID 0000.0001) momDissip_In_AB = /* put Dissipation Tendency in Adams-Bash. stepping */
(PID.TID 0000.0001)                   T
(PID.TID 0000.0001)     ;
(PID.TID 0000.0001) doAB_onGtGs = /* apply AB on Tendencies (rather than on T,S)*/
(PID.TID 0000.0001)                   T
(PID.TID 0000.0001)     ;
(PID.TID 0000.0001) abEps =   /* Adams-Bashforth-2 stabilizing weight */
(PID.TID 0000.0001)                 1.000000000000000E-01
(PID.TID 0000.0001)     ;
(PID.TID 0000.0001) applyExchUV_early = /* Apply EXCH to U,V earlier in time-step */
(PID.TID 0000.0001)                   F
(PID.TID 0000.0001)     ;
(PID.TID 0000.0001) pickupStrictlyMatch= /* stop if pickup do not strictly match */
(PID.TID 0000.0001)                   T
(PID.TID 0000.0001)     ;
(PID.TID 0000.0001) nIter0   =   /* Run starting timestep number */
(PID.TID 0000.0001)                   72000
(PID.TID 0000.0001)     ;
(PID.TID 0000.0001) nTimeSteps = /* Number of timesteps */
(PID.TID 0000.0001)                      10
(PID.TID 0000.0001)     ;
(PID.TID 0000.0001) nEndIter =   /* Run ending timestep number */
(PID.TID 0000.0001)                   72010
(PID.TID 0000.0001)     ;
(PID.TID 0000.0001) baseTime =   /* Model base time ( s ) */
(PID.TID 0000.0001)                 0.000000000000000E+00
(PID.TID 0000.0001)     ;
(PID.TID 0000.0001) startTime =  /* Run start time ( s ) */
(PID.TID 0000.0001)                 6.220800000000000E+09
(PID.TID 0000.0001)     ;
(PID.TID 0000.0001) endTime  =   /* Integration ending time ( s ) */
(PID.TID 0000.0001)                 6.221664000000000E+09
(PID.TID 0000.0001)     ;
(PID.TID 0000.0001) pChkPtFreq = /* Permanent restart/pickup file interval ( s ) */
(PID.TID 0000.0001)                 3.110400000000000E+09
(PID.TID 0000.0001)     ;
(PID.TID 0000.0001) chkPtFreq  = /* Rolling restart/pickup file interval ( s ) */
(PID.TID 0000.0001)                 1.555200000000000E+08
(PID.TID 0000.0001)     ;
(PID.TID 0000.0001) pickup_write_mdsio =   /* Model IO flag. */
(PID.TID 0000.0001)                   T
(PID.TID 0000.0001)     ;
(PID.TID 0000.0001) pickup_read_mdsio =   /* Model IO flag. */
(PID.TID 0000.0001)                   T
(PID.TID 0000.0001)     ;
(PID.TID 0000.0001) pickup_write_mnc =   /* Model IO flag. */
(PID.TID 0000.0001)                   F
(PID.TID 0000.0001)     ;
(PID.TID 0000.0001) pickup_read_mnc =   /* Model IO flag. */
(PID.TID 0000.0001)                   F
(PID.TID 0000.0001)     ;
(PID.TID 0000.0001) writePickupAtEnd =   /* Model IO flag. */
(PID.TID 0000.0001)                   T
(PID.TID 0000.0001)     ;
(PID.TID 0000.0001) dumpFreq =   /* Model state write out interval ( s ). */
(PID.TID 0000.0001)                 0.000000000000000E+00
(PID.TID 0000.0001)     ;
(PID.TID 0000.0001) dumpInitAndLast= /* write out Initial & Last iter. model state */
(PID.TID 0000.0001)                   T
(PID.TID 0000.0001)     ;
(PID.TID 0000.0001) snapshot_mdsio =   /* Model IO flag. */
(PID.TID 0000.0001)                   T
(PID.TID 0000.0001)     ;
(PID.TID 0000.0001) snapshot_mnc =   /* Model IO flag. */
(PID.TID 0000.0001)                   F
(PID.TID 0000.0001)     ;
(PID.TID 0000.0001) monitorFreq =   /* Monitor output interval ( s ). */
(PID.TID 0000.0001)                 1.000000000000000E+00
(PID.TID 0000.0001)     ;
(PID.TID 0000.0001) monitorSelect = /* select group of variables to monitor */
(PID.TID 0000.0001)                       3
(PID.TID 0000.0001)     ;
(PID.TID 0000.0001) monitor_stdio =   /* Model IO flag. */
(PID.TID 0000.0001)                   T
(PID.TID 0000.0001)     ;
(PID.TID 0000.0001) monitor_mnc =   /* Model IO flag. */
(PID.TID 0000.0001)                   F
(PID.TID 0000.0001)     ;
(PID.TID 0000.0001) externForcingPeriod =   /* forcing period (s) */
(PID.TID 0000.0001)                 2.592000000000000E+06
(PID.TID 0000.0001)     ;
(PID.TID 0000.0001) externForcingCycle =   /* period of the cyle (s). */
(PID.TID 0000.0001)                 3.110400000000000E+07
(PID.TID 0000.0001)     ;
(PID.TID 0000.0001) tauThetaClimRelax =   /* relaxation time scale (s) */
(PID.TID 0000.0001)                 0.000000000000000E+00
(PID.TID 0000.0001)     ;
(PID.TID 0000.0001) tauSaltClimRelax =   /* relaxation time scale (s) */
(PID.TID 0000.0001)                 0.000000000000000E+00
(PID.TID 0000.0001)     ;
(PID.TID 0000.0001) latBandClimRelax =   /* max. Lat. where relaxation */
(PID.TID 0000.0001)                 1.800000000000000E+02
(PID.TID 0000.0001)     ;
(PID.TID 0000.0001) //
(PID.TID 0000.0001) // Gridding paramters ( PARM04 in namelist )
(PID.TID 0000.0001) //
(PID.TID 0000.0001) usingCartesianGrid = /* Cartesian coordinates flag ( True/False ) */
(PID.TID 0000.0001)                   F
(PID.TID 0000.0001)     ;
(PID.TID 0000.0001) usingCylindricalGrid = /* Cylindrical coordinates flag ( True/False ) */
(PID.TID 0000.0001)                   F
(PID.TID 0000.0001)     ;
(PID.TID 0000.0001) usingSphericalPolarGrid = /* Spherical coordinates flag ( True/False ) */
(PID.TID 0000.0001)                   F
(PID.TID 0000.0001)     ;
(PID.TID 0000.0001) usingCurvilinearGrid = /* Curvilinear coordinates flag ( True/False ) */
(PID.TID 0000.0001)                   T
(PID.TID 0000.0001)     ;
(PID.TID 0000.0001) useMin4hFacEdges = /* set hFacW,S as minimum of adjacent hFacC factor */
(PID.TID 0000.0001)                   F
(PID.TID 0000.0001)     ;
(PID.TID 0000.0001) interViscAr_pCell = /* account for partial-cell in interior vert. viscosity */
(PID.TID 0000.0001)                   F
(PID.TID 0000.0001)     ;
(PID.TID 0000.0001) interDiffKr_pCell = /* account for partial-cell in interior vert. diffusion */
(PID.TID 0000.0001)                   F
(PID.TID 0000.0001)     ;
(PID.TID 0000.0001) pCellMix_select = /* option to enhance mixing near surface & bottom */
(PID.TID 0000.0001)                       0
(PID.TID 0000.0001)     ;
(PID.TID 0000.0001) selectSigmaCoord = /* Hybrid-Sigma Vert. Coordinate option */
(PID.TID 0000.0001)                       0
(PID.TID 0000.0001)     ;
(PID.TID 0000.0001) rSigmaBnd = /* r/sigma transition ( units of r ==  m ) */
(PID.TID 0000.0001)                 1.234567000000000E+05
(PID.TID 0000.0001)     ;
(PID.TID 0000.0001) rkSign =   /* index orientation relative to vertical coordinate */
(PID.TID 0000.0001)                -1.000000000000000E+00
(PID.TID 0000.0001)     ;
(PID.TID 0000.0001) gravitySign = /* gravity orientation relative to vertical coordinate */
(PID.TID 0000.0001)                -1.000000000000000E+00
(PID.TID 0000.0001)     ;
(PID.TID 0000.0001) seaLev_Z =  /* reference height of sea-level [m] */
(PID.TID 0000.0001)                 0.000000000000000E+00
(PID.TID 0000.0001)     ;
(PID.TID 0000.0001) top_Pres =  /* reference pressure at the top [Pa] */
(PID.TID 0000.0001)                 0.000000000000000E+00
(PID.TID 0000.0001)     ;
(PID.TID 0000.0001) mass2rUnit = /* convert mass per unit area [kg/m2] to r-units [m] */
(PID.TID 0000.0001)                 9.661835748792270E-04
(PID.TID 0000.0001)     ;
(PID.TID 0000.0001) rUnit2mass = /* convert r-units [m] to mass per unit area [kg/m2] */
(PID.TID 0000.0001)                 1.035000000000000E+03
(PID.TID 0000.0001)     ;
(PID.TID 0000.0001) drC =   /* C spacing ( units of r ) */
(PID.TID 0000.0001)                 2.500000000000000E+01,      /* K =  1 */
(PID.TID 0000.0001)                 6.000000000000000E+01,      /* K =  2 */
(PID.TID 0000.0001)                 8.500000000000000E+01,      /* K =  3 */
(PID.TID 0000.0001)                 1.200000000000000E+02,      /* K =  4 */
(PID.TID 0000.0001)                 1.650000000000000E+02,      /* K =  5 */
(PID.TID 0000.0001)                 2.150000000000000E+02,      /* K =  6 */
(PID.TID 0000.0001)                 2.650000000000000E+02,      /* K =  7 */
(PID.TID 0000.0001)                 3.150000000000000E+02,      /* K =  8 */
(PID.TID 0000.0001)                 3.650000000000000E+02,      /* K =  9 */
(PID.TID 0000.0001)                 4.150000000000000E+02,      /* K = 10 */
(PID.TID 0000.0001)                 4.650000000000000E+02,      /* K = 11 */
(PID.TID 0000.0001)                 5.150000000000000E+02,      /* K = 12 */
(PID.TID 0000.0001)                 5.650000000000000E+02,      /* K = 13 */
(PID.TID 0000.0001)                 6.150000000000000E+02,      /* K = 14 */
(PID.TID 0000.0001)                 6.650000000000000E+02,      /* K = 15 */
(PID.TID 0000.0001)                 3.450000000000000E+02       /* K = 16 */
(PID.TID 0000.0001)     ;
(PID.TID 0000.0001) drF =   /* W spacing ( units of r ) */
(PID.TID 0000.0001)                 5.000000000000000E+01,      /* K =  1 */
(PID.TID 0000.0001)                 7.000000000000000E+01,      /* K =  2 */
(PID.TID 0000.0001)                 1.000000000000000E+02,      /* K =  3 */
(PID.TID 0000.0001)                 1.400000000000000E+02,      /* K =  4 */
(PID.TID 0000.0001)                 1.900000000000000E+02,      /* K =  5 */
(PID.TID 0000.0001)                 2.400000000000000E+02,      /* K =  6 */
(PID.TID 0000.0001)                 2.900000000000000E+02,      /* K =  7 */
(PID.TID 0000.0001)                 3.400000000000000E+02,      /* K =  8 */
(PID.TID 0000.0001)                 3.900000000000000E+02,      /* K =  9 */
(PID.TID 0000.0001)                 4.400000000000000E+02,      /* K = 10 */
(PID.TID 0000.0001)                 4.900000000000000E+02,      /* K = 11 */
(PID.TID 0000.0001)                 5.400000000000000E+02,      /* K = 12 */
(PID.TID 0000.0001)                 5.900000000000000E+02,      /* K = 13 */
(PID.TID 0000.0001)                 6.400000000000000E+02,      /* K = 14 */
(PID.TID 0000.0001)                 6.900000000000000E+02       /* K = 15 */
(PID.TID 0000.0001)     ;
(PID.TID 0000.0001) radius_fromHorizGrid = /* sphere Radius of input horiz. grid */
(PID.TID 0000.0001)                 6.370000000000000E+06
(PID.TID 0000.0001)     ;
(PID.TID 0000.0001) rSphere =  /* Radius ( ignored - cartesian, m - spherical ) */
(PID.TID 0000.0001)                 6.370000000000000E+06
(PID.TID 0000.0001)     ;
(PID.TID 0000.0001) deepAtmosphere = /* Deep/Shallow Atmosphere flag (True/False) */
(PID.TID 0000.0001)                   F
(PID.TID 0000.0001)     ;
(PID.TID 0000.0001) xC =  /* xC(:,1,:,1) : P-point X coord ( deg. or m if cartesian) */
(PID.TID 0000.0001)                -4.439521994760536E+01,      /* I =  1 */
(PID.TID 0000.0001)                -4.295641272275883E+01,      /* I =  2 */
(PID.TID 0000.0001)                -4.122055553388957E+01,      /* I =  3 */
(PID.TID 0000.0001)      . . .
(PID.TID 0000.0001)                 1.312205555338896E+02,      /* I = 94 */
(PID.TID 0000.0001)                 1.329564127227588E+02,      /* I = 95 */
(PID.TID 0000.0001)                 1.343952199476053E+02,      /* I = 96 */
(PID.TID 0000.0001)                 4.635509675007168E+01,      /* I = 97 */
(PID.TID 0000.0001)                 4.906731228843647E+01,      /* I = 98 */
(PID.TID 0000.0001)                 5.178550688214704E+01,      /* I = 99 */
(PID.TID 0000.0001)      . . .
(PID.TID 0000.0001)                -1.778001716525716E+02,      /* I =190 */
(PID.TID 0000.0001)                -1.779288225675308E+02,      /* I =191 */
(PID.TID 0000.0001)                -1.780367200854751E+02,      /* I =192 */
(PID.TID 0000.0001)                 1.356047800523947E+02,      /* I =193 */
(PID.TID 0000.0001)                 1.358367907661329E+02,      /* I =194 */
(PID.TID 0000.0001)                 1.359720382181193E+02,      /* I =195 */
(PID.TID 0000.0001)      . . .
(PID.TID 0000.0001)                -1.340279617818807E+02,      /* I =286 */
(PID.TID 0000.0001)                -1.341632092338671E+02,      /* I =287 */
(PID.TID 0000.0001)                -1.343952199476053E+02,      /* I =288 */
(PID.TID 0000.0001)                -8.812739148696656E+01,      /* I =289 */
(PID.TID 0000.0001)                -8.820362659721324E+01,      /* I =290 */
(PID.TID 0000.0001)                -8.826768106944316E+01,      /* I =291 */
(PID.TID 0000.0001)      . . .
(PID.TID 0000.0001)                 8.780017165257156E+01,      /* I =382 */
(PID.TID 0000.0001)                 8.792882256753080E+01,      /* I =383 */
(PID.TID 0000.0001)                 8.803672008547504E+01       /* I =384 */
(PID.TID 0000.0001)     ;
(PID.TID 0000.0001) yC =  /* yC(1,:,1,:) : P-point Y coord ( deg. or m if cartesian) */
(PID.TID 0000.0001)                -3.497677942598243E+01,      /* J =  1 */
(PID.TID 0000.0001)                -3.374005967394886E+01,      /* J =  2 */
(PID.TID 0000.0001)                -3.220655175667454E+01,      /* J =  3 */
(PID.TID 0000.0001)                -3.045756348838641E+01,      /* J =  4 */
(PID.TID 0000.0001)                -2.853728129852918E+01,      /* J =  5 */
(PID.TID 0000.0001)                -2.647426640173173E+01,      /* J =  6 */
(PID.TID 0000.0001)                -2.428936657094636E+01,      /* J =  7 */
(PID.TID 0000.0001)                -2.199915808312262E+01,      /* J =  8 */
(PID.TID 0000.0001)                -1.961768597440146E+01,      /* J =  9 */
(PID.TID 0000.0001)                -1.715743888281371E+01,      /* J = 10 */
(PID.TID 0000.0001)                -1.462993396899330E+01,      /* J = 11 */
(PID.TID 0000.0001)                -1.204608340464756E+01,      /* J = 12 */
(PID.TID 0000.0001)                -9.416429130284818E+00,      /* J = 13 */
(PID.TID 0000.0001)                -6.751293662992216E+00,      /* J = 14 */
(PID.TID 0000.0001)                -4.060875511835959E+00,      /* J = 15 */
(PID.TID 0000.0001)                -1.355307764409121E+00       /* J = 16 */
(PID.TID 0000.0001)     ;
(PID.TID 0000.0001) rcoord = /* P-point R coordinate (  units of r ) */
(PID.TID 0000.0001)                -2.500000000000000E+01,      /* K =  1 */
(PID.TID 0000.0001)                -8.500000000000000E+01,      /* K =  2 */
(PID.TID 0000.0001)                -1.700000000000000E+02,      /* K =  3 */
(PID.TID 0000.0001)                -2.900000000000000E+02,      /* K =  4 */
(PID.TID 0000.0001)                -4.550000000000000E+02,      /* K =  5 */
(PID.TID 0000.0001)                -6.700000000000000E+02,      /* K =  6 */
(PID.TID 0000.0001)                -9.350000000000000E+02,      /* K =  7 */
(PID.TID 0000.0001)                -1.250000000000000E+03,      /* K =  8 */
(PID.TID 0000.0001)                -1.615000000000000E+03,      /* K =  9 */
(PID.TID 0000.0001)                -2.030000000000000E+03,      /* K = 10 */
(PID.TID 0000.0001)                -2.495000000000000E+03,      /* K = 11 */
(PID.TID 0000.0001)                -3.010000000000000E+03,      /* K = 12 */
(PID.TID 0000.0001)                -3.575000000000000E+03,      /* K = 13 */
(PID.TID 0000.0001)                -4.190000000000000E+03,      /* K = 14 */
(PID.TID 0000.0001)                -4.855000000000000E+03       /* K = 15 */
(PID.TID 0000.0001)     ;
(PID.TID 0000.0001) rF =   /* W-Interf. R coordinate (  units of r ) */
(PID.TID 0000.0001)                 0.000000000000000E+00,      /* K =  1 */
(PID.TID 0000.0001)                -5.000000000000000E+01,      /* K =  2 */
(PID.TID 0000.0001)                -1.200000000000000E+02,      /* K =  3 */
(PID.TID 0000.0001)                -2.200000000000000E+02,      /* K =  4 */
(PID.TID 0000.0001)                -3.600000000000000E+02,      /* K =  5 */
(PID.TID 0000.0001)                -5.500000000000000E+02,      /* K =  6 */
(PID.TID 0000.0001)                -7.900000000000000E+02,      /* K =  7 */
(PID.TID 0000.0001)                -1.080000000000000E+03,      /* K =  8 */
(PID.TID 0000.0001)                -1.420000000000000E+03,      /* K =  9 */
(PID.TID 0000.0001)                -1.810000000000000E+03,      /* K = 10 */
(PID.TID 0000.0001)                -2.250000000000000E+03,      /* K = 11 */
(PID.TID 0000.0001)                -2.740000000000000E+03,      /* K = 12 */
(PID.TID 0000.0001)                -3.280000000000000E+03,      /* K = 13 */
(PID.TID 0000.0001)                -3.870000000000000E+03,      /* K = 14 */
(PID.TID 0000.0001)                -4.510000000000000E+03,      /* K = 15 */
(PID.TID 0000.0001)                -5.200000000000000E+03       /* K = 16 */
(PID.TID 0000.0001)     ;
(PID.TID 0000.0001) deepFacC = /* deep-model grid factor @ cell-Center (-) */
(PID.TID 0000.0001)    15 @  1.000000000000000E+00              /* K =  1: 15 */
(PID.TID 0000.0001)     ;
(PID.TID 0000.0001) deepFacF = /* deep-model grid factor @ W-Interface (-) */
(PID.TID 0000.0001)    16 @  1.000000000000000E+00              /* K =  1: 16 */
(PID.TID 0000.0001)     ;
(PID.TID 0000.0001) rotateGrid = /* use rotated grid ( True/False ) */
(PID.TID 0000.0001)                   F
(PID.TID 0000.0001)     ;
(PID.TID 0000.0001) phiEuler = /* Euler angle, rotation about original z-coordinate [rad] */
(PID.TID 0000.0001)                 0.000000000000000E+00
(PID.TID 0000.0001)     ;
(PID.TID 0000.0001) thetaEuler = /* Euler angle, rotation about new x-coordinate [rad] */
(PID.TID 0000.0001)                 0.000000000000000E+00
(PID.TID 0000.0001)     ;
(PID.TID 0000.0001) psiEuler = /* Euler angle, rotation about new z-coordinate [rad] */
(PID.TID 0000.0001)                 0.000000000000000E+00
(PID.TID 0000.0001)     ;
(PID.TID 0000.0001) dxF =  /* dxF(:,1,:,1) ( units: m ) */
(PID.TID 0000.0001)                 1.202082051331828E+05,      /* I =  1 */
(PID.TID 0000.0001)                 1.563594089971120E+05,      /* I =  2 */
(PID.TID 0000.0001)                 1.835530058121492E+05,      /* I =  3 */
(PID.TID 0000.0001)      . . .
(PID.TID 0000.0001)                 1.835530058121492E+05,      /* I = 94 */
(PID.TID 0000.0001)                 1.563594089971120E+05,      /* I = 95 */
(PID.TID 0000.0001)                 1.202082051331828E+05,      /* I = 96 */
(PID.TID 0000.0001)                 3.012844832048790E+05,      /* I = 97 */
(PID.TID 0000.0001)                 3.017314519159184E+05,      /* I = 98 */
(PID.TID 0000.0001)                 3.026061571839506E+05,      /* I = 99 */
(PID.TID 0000.0001)      . . .
(PID.TID 0000.0001)                 3.026061571839506E+05,      /* I =190 */
(PID.TID 0000.0001)                 3.017314519159184E+05,      /* I =191 */
(PID.TID 0000.0001)                 3.012844832048790E+05,      /* I =192 */
(PID.TID 0000.0001)                 1.202082051331828E+05,      /* I =193 */
(PID.TID 0000.0001)                 1.563594089971120E+05,      /* I =194 */
(PID.TID 0000.0001)                 1.835530058121492E+05,      /* I =195 */
(PID.TID 0000.0001)      . . .
(PID.TID 0000.0001)                 1.835530058121492E+05,      /* I =286 */
(PID.TID 0000.0001)                 1.563594089971120E+05,      /* I =287 */
(PID.TID 0000.0001)                 1.202082051331828E+05,      /* I =288 */
(PID.TID 0000.0001)                 3.012844832048790E+05,      /* I =289 */
(PID.TID 0000.0001)                 3.017314519159184E+05,      /* I =290 */
(PID.TID 0000.0001)                 3.026061571839506E+05,      /* I =291 */
(PID.TID 0000.0001)      . . .
(PID.TID 0000.0001)                 3.026061571839506E+05,      /* I =382 */
(PID.TID 0000.0001)                 3.017314519159184E+05,      /* I =383 */
(PID.TID 0000.0001)                 3.012844832048790E+05       /* I =384 */
(PID.TID 0000.0001)     ;
(PID.TID 0000.0001) dxF =  /* dxF(1,:,1,:) ( units: m ) */
(PID.TID 0000.0001)                 1.202082051331828E+05,      /* J =  1 */
(PID.TID 0000.0001)                 1.572908084538706E+05,      /* J =  2 */
(PID.TID 0000.0001)                 1.840412227747703E+05,      /* J =  3 */
(PID.TID 0000.0001)                 2.048868197919576E+05,      /* J =  4 */
(PID.TID 0000.0001)                 2.220405216043041E+05,      /* J =  5 */
(PID.TID 0000.0001)                 2.365892017348392E+05,      /* J =  6 */
(PID.TID 0000.0001)                 2.491250781852558E+05,      /* J =  7 */
(PID.TID 0000.0001)                 2.599949918261881E+05,      /* J =  8 */
(PID.TID 0000.0001)                 2.694110134598581E+05,      /* J =  9 */
(PID.TID 0000.0001)                 2.775055554645015E+05,      /* J = 10 */
(PID.TID 0000.0001)                 2.843615645344775E+05,      /* J = 11 */
(PID.TID 0000.0001)                 2.900303768613599E+05,      /* J = 12 */
(PID.TID 0000.0001)                 2.945429307892709E+05,      /* J = 13 */
(PID.TID 0000.0001)                 2.979171143158405E+05,      /* J = 14 */
(PID.TID 0000.0001)                 3.001626787528886E+05,      /* J = 15 */
(PID.TID 0000.0001)                 3.012844832048790E+05       /* J = 16 */
(PID.TID 0000.0001)     ;
(PID.TID 0000.0001) dyF =  /* dyF(:,1,:,1) ( units: m ) */
(PID.TID 0000.0001)                 1.202082051331828E+05,      /* I =  1 */
(PID.TID 0000.0001)                 1.572908084538706E+05,      /* I =  2 */
(PID.TID 0000.0001)                 1.840412227747703E+05,      /* I =  3 */
(PID.TID 0000.0001)      . . .
(PID.TID 0000.0001)                 1.840412227747703E+05,      /* I = 94 */
(PID.TID 0000.0001)                 1.572908084538706E+05,      /* I = 95 */
(PID.TID 0000.0001)                 1.202082051331828E+05,      /* I = 96 */
(PID.TID 0000.0001)                 3.012190981969055E+05,      /* I = 97 */
(PID.TID 0000.0001)                 3.016675528553907E+05,      /* I = 98 */
(PID.TID 0000.0001)                 3.025451404065074E+05,      /* I = 99 */
(PID.TID 0000.0001)      . . .
(PID.TID 0000.0001)                 3.025451404065074E+05,      /* I =190 */
(PID.TID 0000.0001)                 3.016675528553907E+05,      /* I =191 */
(PID.TID 0000.0001)                 3.012190981969055E+05,      /* I =192 */
(PID.TID 0000.0001)                 1.202082051331828E+05,      /* I =193 */
(PID.TID 0000.0001)                 1.572908084538706E+05,      /* I =194 */
(PID.TID 0000.0001)                 1.840412227747703E+05,      /* I =195 */
(PID.TID 0000.0001)      . . .
(PID.TID 0000.0001)                 1.840412227747703E+05,      /* I =286 */
(PID.TID 0000.0001)                 1.572908084538706E+05,      /* I =287 */
(PID.TID 0000.0001)                 1.202082051331828E+05,      /* I =288 */
(PID.TID 0000.0001)                 3.012190981969055E+05,      /* I =289 */
(PID.TID 0000.0001)                 3.016675528553907E+05,      /* I =290 */
(PID.TID 0000.0001)                 3.025451404065074E+05,      /* I =291 */
(PID.TID 0000.0001)      . . .
(PID.TID 0000.0001)                 3.025451404065074E+05,      /* I =382 */
(PID.TID 0000.0001)                 3.016675528553907E+05,      /* I =383 */
(PID.TID 0000.0001)                 3.012190981969055E+05       /* I =384 */
(PID.TID 0000.0001)     ;
(PID.TID 0000.0001) dyF =  /* dyF(1,:,1,:) ( units: m ) */
(PID.TID 0000.0001)                 1.202082051331828E+05,      /* J =  1 */
(PID.TID 0000.0001)                 1.563594089971120E+05,      /* J =  2 */
(PID.TID 0000.0001)                 1.835530058121492E+05,      /* J =  3 */
(PID.TID 0000.0001)                 2.045883481718707E+05,      /* J =  4 */
(PID.TID 0000.0001)                 2.218350349844185E+05,      /* J =  5 */
(PID.TID 0000.0001)                 2.364352994647058E+05,      /* J =  6 */
(PID.TID 0000.0001)                 2.490022710862746E+05,      /* J =  7 */
(PID.TID 0000.0001)                 2.598919724358304E+05,      /* J =  8 */
(PID.TID 0000.0001)                 2.693210245495156E+05,      /* J =  9 */
(PID.TID 0000.0001)                 2.774243179696503E+05,      /* J = 10 */
(PID.TID 0000.0001)                 2.842862532064524E+05,      /* J = 11 */
(PID.TID 0000.0001)                 2.899590699694043E+05,      /* J = 12 */
(PID.TID 0000.0001)                 2.944742915095688E+05,      /* J = 13 */
(PID.TID 0000.0001)                 2.978501920522794E+05,      /* J = 14 */
(PID.TID 0000.0001)                 3.000967749619962E+05,      /* J = 15 */
(PID.TID 0000.0001)                 3.012190981969055E+05       /* J = 16 */
(PID.TID 0000.0001)     ;
(PID.TID 0000.0001) dxG =  /* dxG(:,1,:,1) ( units: m ) */
(PID.TID 0000.0001)                 1.009837800879055E+05,      /* I =  1 */
(PID.TID 0000.0001)                 1.534505834330338E+05,      /* I =  2 */
(PID.TID 0000.0001)                 1.823321598773926E+05,      /* I =  3 */
(PID.TID 0000.0001)      . . .
(PID.TID 0000.0001)                 1.823321598773926E+05,      /* I = 94 */
(PID.TID 0000.0001)                 1.534505834330338E+05,      /* I = 95 */
(PID.TID 0000.0001)                 1.009837800879055E+05,      /* I = 96 */
(PID.TID 0000.0001)                 3.014246674484008E+05,      /* I = 97 */
(PID.TID 0000.0001)                 3.018694497480782E+05,      /* I = 98 */
(PID.TID 0000.0001)                 3.027399364062562E+05,      /* I = 99 */
(PID.TID 0000.0001)      . . .
(PID.TID 0000.0001)                 3.027399364062562E+05,      /* I =190 */
(PID.TID 0000.0001)                 3.018694497480782E+05,      /* I =191 */
(PID.TID 0000.0001)                 3.014246674484008E+05,      /* I =192 */
(PID.TID 0000.0001)                 1.009837800879055E+05,      /* I =193 */
(PID.TID 0000.0001)                 1.534505834330338E+05,      /* I =194 */
(PID.TID 0000.0001)                 1.823321598773926E+05,      /* I =195 */
(PID.TID 0000.0001)      . . .
(PID.TID 0000.0001)                 1.823321598773926E+05,      /* I =286 */
(PID.TID 0000.0001)                 1.534505834330338E+05,      /* I =287 */
(PID.TID 0000.0001)                 1.009837800879055E+05,      /* I =288 */
(PID.TID 0000.0001)                 3.014246674484008E+05,      /* I =289 */
(PID.TID 0000.0001)                 3.018694497480782E+05,      /* I =290 */
(PID.TID 0000.0001)                 3.027399364062562E+05,      /* I =291 */
(PID.TID 0000.0001)      . . .
(PID.TID 0000.0001)                 3.027399364062562E+05,      /* I =382 */
(PID.TID 0000.0001)                 3.018694497480782E+05,      /* I =383 */
(PID.TID 0000.0001)                 3.014246674484008E+05       /* I =384 */
(PID.TID 0000.0001)     ;
(PID.TID 0000.0001) dxG =  /* dxG(1,:,1,:) ( units: m ) */
(PID.TID 0000.0001)                 1.009837800879055E+05,      /* J =  1 */
(PID.TID 0000.0001)                 1.403701524205398E+05,      /* J =  2 */
(PID.TID 0000.0001)                 1.716197227386011E+05,      /* J =  3 */
(PID.TID 0000.0001)                 1.950254041626018E+05,      /* J =  4 */
(PID.TID 0000.0001)                 2.138410773065497E+05,      /* J =  5 */
(PID.TID 0000.0001)                 2.295958105911512E+05,      /* J =  6 */
(PID.TID 0000.0001)                 2.430829951739083E+05,      /* J =  7 */
(PID.TID 0000.0001)                 2.547526806712889E+05,      /* J =  8 */
(PID.TID 0000.0001)                 2.648750305193301E+05,      /* J =  9 */
(PID.TID 0000.0001)                 2.736173771018112E+05,      /* J = 10 */
(PID.TID 0000.0001)                 2.810845823202647E+05,      /* J = 11 */
(PID.TID 0000.0001)                 2.873420591008078E+05,      /* J = 12 */
(PID.TID 0000.0001)                 2.924298293668651E+05,      /* J = 13 */
(PID.TID 0000.0001)                 2.963715635865306E+05,      /* J = 14 */
(PID.TID 0000.0001)                 2.991805843171258E+05,      /* J = 15 */
(PID.TID 0000.0001)                 3.008638765647886E+05       /* J = 16 */
(PID.TID 0000.0001)     ;
(PID.TID 0000.0001) dyG =  /* dyG(:,1,:,1) ( units: m ) */
(PID.TID 0000.0001)                 1.009837800879055E+05,      /* I =  1 */
(PID.TID 0000.0001)                 1.403701524205398E+05,      /* I =  2 */
(PID.TID 0000.0001)                 1.716197227386011E+05,      /* I =  3 */
(PID.TID 0000.0001)      . . .
(PID.TID 0000.0001)                 1.950254041626018E+05,      /* I = 94 */
(PID.TID 0000.0001)                 1.716197227386011E+05,      /* I = 95 */
(PID.TID 0000.0001)                 1.403701524205398E+05,      /* I = 96 */
(PID.TID 0000.0001)                 3.011625828699101E+05,      /* I = 97 */
(PID.TID 0000.0001)                 3.013880313304323E+05,      /* I = 98 */
(PID.TID 0000.0001)                 3.020546438966793E+05,      /* I = 99 */
(PID.TID 0000.0001)      . . .
(PID.TID 0000.0001)                 3.031337933484788E+05,      /* I =190 */
(PID.TID 0000.0001)                 3.020546438966793E+05,      /* I =191 */
(PID.TID 0000.0001)                 3.013880313304323E+05,      /* I =192 */
(PID.TID 0000.0001)                 1.009837800879055E+05,      /* I =193 */
(PID.TID 0000.0001)                 1.403701524205398E+05,      /* I =194 */
(PID.TID 0000.0001)                 1.716197227386011E+05,      /* I =195 */
(PID.TID 0000.0001)      . . .
(PID.TID 0000.0001)                 1.950254041626018E+05,      /* I =286 */
(PID.TID 0000.0001)                 1.716197227386011E+05,      /* I =287 */
(PID.TID 0000.0001)                 1.403701524205398E+05,      /* I =288 */
(PID.TID 0000.0001)                 3.011625828699101E+05,      /* I =289 */
(PID.TID 0000.0001)                 3.013880313304323E+05,      /* I =290 */
(PID.TID 0000.0001)                 3.020546438966793E+05,      /* I =291 */
(PID.TID 0000.0001)      . . .
(PID.TID 0000.0001)                 3.031337933484788E+05,      /* I =382 */
(PID.TID 0000.0001)                 3.020546438966793E+05,      /* I =383 */
(PID.TID 0000.0001)                 3.013880313304323E+05       /* I =384 */
(PID.TID 0000.0001)     ;
(PID.TID 0000.0001) dyG =  /* dyG(1,:,1,:) ( units: m ) */
(PID.TID 0000.0001)                 1.009837800879055E+05,      /* J =  1 */
(PID.TID 0000.0001)                 1.534505834330338E+05,      /* J =  2 */
(PID.TID 0000.0001)                 1.823321598773926E+05,      /* J =  3 */
(PID.TID 0000.0001)                 2.038999045536999E+05,      /* J =  4 */
(PID.TID 0000.0001)                 2.213884732245467E+05,      /* J =  5 */
(PID.TID 0000.0001)                 2.361211699596122E+05,      /* J =  6 */
(PID.TID 0000.0001)                 2.487693460283865E+05,      /* J =  7 */
(PID.TID 0000.0001)                 2.597126963772147E+05,      /* J =  8 */
(PID.TID 0000.0001)                 2.691790288994575E+05,      /* J =  9 */
(PID.TID 0000.0001)                 2.773091043277394E+05,      /* J = 10 */
(PID.TID 0000.0001)                 2.841906470085516E+05,      /* J = 11 */
(PID.TID 0000.0001)                 2.898778860929753E+05,      /* J = 12 */
(PID.TID 0000.0001)                 2.944035815526416E+05,      /* J = 13 */
(PID.TID 0000.0001)                 2.977867909042096E+05,      /* J = 14 */
(PID.TID 0000.0001)                 3.000380090330854E+05,      /* J = 15 */
(PID.TID 0000.0001)                 3.011625828699101E+05       /* J = 16 */
(PID.TID 0000.0001)     ;
(PID.TID 0000.0001) dxC =  /* dxC(:,1,:,1) ( units: m ) */
(PID.TID 0000.0001)                 1.114203141013064E+05,      /* I =  1 */
(PID.TID 0000.0001)                 1.391343389937106E+05,      /* I =  2 */
(PID.TID 0000.0001)                 1.709574999026266E+05,      /* I =  3 */
(PID.TID 0000.0001)      . . .
(PID.TID 0000.0001)                 1.946503699269892E+05,      /* I = 94 */
(PID.TID 0000.0001)                 1.709574999026266E+05,      /* I = 95 */
(PID.TID 0000.0001)                 1.391343389937106E+05,      /* I = 96 */
(PID.TID 0000.0001)                 3.012281885409289E+05,      /* I = 97 */
(PID.TID 0000.0001)                 3.014528555318499E+05,      /* I = 98 */
(PID.TID 0000.0001)                 3.021172674809921E+05,      /* I = 99 */
(PID.TID 0000.0001)      . . .
(PID.TID 0000.0001)                 3.031928954490276E+05,      /* I =190 */
(PID.TID 0000.0001)                 3.021172674809921E+05,      /* I =191 */
(PID.TID 0000.0001)                 3.014528555318499E+05,      /* I =192 */
(PID.TID 0000.0001)                 1.114203141013064E+05,      /* I =193 */
(PID.TID 0000.0001)                 1.391343389937106E+05,      /* I =194 */
(PID.TID 0000.0001)                 1.709574999026266E+05,      /* I =195 */
(PID.TID 0000.0001)      . . .
(PID.TID 0000.0001)                 1.946503699269892E+05,      /* I =286 */
(PID.TID 0000.0001)                 1.709574999026266E+05,      /* I =287 */
(PID.TID 0000.0001)                 1.391343389937106E+05,      /* I =288 */
(PID.TID 0000.0001)                 3.012281885409289E+05,      /* I =289 */
(PID.TID 0000.0001)                 3.014528555318499E+05,      /* I =290 */
(PID.TID 0000.0001)                 3.021172674809921E+05,      /* I =291 */
(PID.TID 0000.0001)      . . .
(PID.TID 0000.0001)                 3.031928954490276E+05,      /* I =382 */
(PID.TID 0000.0001)                 3.021172674809921E+05,      /* I =383 */
(PID.TID 0000.0001)                 3.014528555318499E+05       /* I =384 */
(PID.TID 0000.0001)     ;
(PID.TID 0000.0001) dxC =  /* dxC(1,:,1,:) ( units: m ) */
(PID.TID 0000.0001)                 1.114203141013064E+05,      /* J =  1 */
(PID.TID 0000.0001)                 1.549545757850771E+05,      /* J =  2 */
(PID.TID 0000.0001)                 1.829777599966776E+05,      /* J =  3 */
(PID.TID 0000.0001)                 2.042717761866506E+05,      /* J =  4 */
(PID.TID 0000.0001)                 2.216367828252819E+05,      /* J =  5 */
(PID.TID 0000.0001)                 2.363029564123586E+05,      /* J =  6 */
(PID.TID 0000.0001)                 2.489113743322025E+05,      /* J =  7 */
(PID.TID 0000.0001)                 2.598293319150326E+05,      /* J =  8 */
(PID.TID 0000.0001)                 2.692787333338535E+05,      /* J =  9 */
(PID.TID 0000.0001)                 2.773972106720365E+05,      /* J = 10 */
(PID.TID 0000.0001)                 2.842706922224557E+05,      /* J = 11 */
(PID.TID 0000.0001)                 2.899523122489403E+05,      /* J = 12 */
(PID.TID 0000.0001)                 2.944741346384699E+05,      /* J = 13 */
(PID.TID 0000.0001)                 2.978547649292580E+05,      /* J = 14 */
(PID.TID 0000.0001)                 3.001044073506459E+05,      /* J = 15 */
(PID.TID 0000.0001)                 3.012281885409289E+05       /* J = 16 */
(PID.TID 0000.0001)     ;
(PID.TID 0000.0001) dyC =  /* dyC(:,1,:,1) ( units: m ) */
(PID.TID 0000.0001)                 1.114203141013064E+05,      /* I =  1 */
(PID.TID 0000.0001)                 1.549545757850771E+05,      /* I =  2 */
(PID.TID 0000.0001)                 1.829777599966776E+05,      /* I =  3 */
(PID.TID 0000.0001)      . . .
(PID.TID 0000.0001)                 1.829777599966776E+05,      /* I = 94 */
(PID.TID 0000.0001)                 1.549545757850771E+05,      /* I = 95 */
(PID.TID 0000.0001)                 1.114203141013064E+05,      /* I = 96 */
(PID.TID 0000.0001)                 3.013593857228136E+05,      /* I = 97 */
(PID.TID 0000.0001)                 3.018056440786431E+05,      /* I = 98 */
(PID.TID 0000.0001)                 3.026789946729719E+05,      /* I = 99 */
(PID.TID 0000.0001)      . . .
(PID.TID 0000.0001)                 3.026789946729719E+05,      /* I =190 */
(PID.TID 0000.0001)                 3.018056440786431E+05,      /* I =191 */
(PID.TID 0000.0001)                 3.013593857228136E+05,      /* I =192 */
(PID.TID 0000.0001)                 1.114203141013064E+05,      /* I =193 */
(PID.TID 0000.0001)                 1.549545757850771E+05,      /* I =194 */
(PID.TID 0000.0001)                 1.829777599966776E+05,      /* I =195 */
(PID.TID 0000.0001)      . . .
(PID.TID 0000.0001)                 1.829777599966776E+05,      /* I =286 */
(PID.TID 0000.0001)                 1.549545757850771E+05,      /* I =287 */
(PID.TID 0000.0001)                 1.114203141013064E+05,      /* I =288 */
(PID.TID 0000.0001)                 3.013593857228136E+05,      /* I =289 */
(PID.TID 0000.0001)                 3.018056440786431E+05,      /* I =290 */
(PID.TID 0000.0001)                 3.026789946729719E+05,      /* I =291 */
(PID.TID 0000.0001)      . . .
(PID.TID 0000.0001)                 3.026789946729719E+05,      /* I =382 */
(PID.TID 0000.0001)                 3.018056440786431E+05,      /* I =383 */
(PID.TID 0000.0001)                 3.013593857228136E+05       /* I =384 */
(PID.TID 0000.0001)     ;
(PID.TID 0000.0001) dyC =  /* dyC(1,:,1,:) ( units: m ) */
(PID.TID 0000.0001)                 1.114203141013064E+05,      /* J =  1 */
(PID.TID 0000.0001)                 1.391343389937106E+05,      /* J =  2 */
(PID.TID 0000.0001)                 1.709574999026266E+05,      /* J =  3 */
(PID.TID 0000.0001)                 1.946503699269892E+05,      /* J =  4 */
(PID.TID 0000.0001)                 2.135964483342134E+05,      /* J =  5 */
(PID.TID 0000.0001)                 2.294195678257306E+05,      /* J =  6 */
(PID.TID 0000.0001)                 2.429464709770498E+05,      /* J =  7 */
(PID.TID 0000.0001)                 2.546408290696998E+05,      /* J =  8 */
(PID.TID 0000.0001)                 2.647791839299727E+05,      /* J =  9 */
(PID.TID 0000.0001)                 2.735321911346108E+05,      /* J = 10 */
(PID.TID 0000.0001)                 2.810065951609633E+05,      /* J = 11 */
(PID.TID 0000.0001)                 2.872689479506990E+05,      /* J = 12 */
(PID.TID 0000.0001)                 2.923599955312932E+05,      /* J = 13 */
(PID.TID 0000.0001)                 2.963038832565530E+05,      /* J = 14 */
(PID.TID 0000.0001)                 2.991142470004740E+05,      /* J = 15 */
(PID.TID 0000.0001)                 3.007982711627968E+05       /* J = 16 */
(PID.TID 0000.0001)     ;
(PID.TID 0000.0001) dxV =  /* dxV(:,1,:,1) ( units: m ) */
(PID.TID 0000.0001)                 8.015229982413632E+04,      /* I =  1 */
(PID.TID 0000.0001)                 1.333130744933864E+05,      /* I =  2 */
(PID.TID 0000.0001)                 1.691744868129062E+05,      /* I =  3 */
(PID.TID 0000.0001)      . . .
(PID.TID 0000.0001)                 1.937548202849060E+05,      /* I = 94 */
(PID.TID 0000.0001)                 1.691744868129062E+05,      /* I = 95 */
(PID.TID 0000.0001)                 1.333130744933864E+05,      /* I = 96 */
(PID.TID 0000.0001)                 3.013686170436881E+05,      /* I = 97 */
(PID.TID 0000.0001)                 3.015922136961168E+05,      /* I = 98 */
(PID.TID 0000.0001)                 3.022533948177109E+05,      /* I = 99 */
(PID.TID 0000.0001)      . . .
(PID.TID 0000.0001)                 3.033238888442880E+05,      /* I =190 */
(PID.TID 0000.0001)                 3.022533948177109E+05,      /* I =191 */
(PID.TID 0000.0001)                 3.015922136961168E+05,      /* I =192 */
(PID.TID 0000.0001)                 8.015229982413632E+04,      /* I =193 */
(PID.TID 0000.0001)                 1.333130744933864E+05,      /* I =194 */
(PID.TID 0000.0001)                 1.691744868129062E+05,      /* I =195 */
(PID.TID 0000.0001)      . . .
(PID.TID 0000.0001)                 1.937548202849060E+05,      /* I =286 */
(PID.TID 0000.0001)                 1.691744868129062E+05,      /* I =287 */
(PID.TID 0000.0001)                 1.333130744933864E+05,      /* I =288 */
(PID.TID 0000.0001)                 3.013686170436881E+05,      /* I =289 */
(PID.TID 0000.0001)                 3.015922136961168E+05,      /* I =290 */
(PID.TID 0000.0001)                 3.022533948177109E+05,      /* I =291 */
(PID.TID 0000.0001)      . . .
(PID.TID 0000.0001)                 3.033238888442880E+05,      /* I =382 */
(PID.TID 0000.0001)                 3.022533948177109E+05,      /* I =383 */
(PID.TID 0000.0001)                 3.015922136961168E+05       /* I =384 */
(PID.TID 0000.0001)     ;
(PID.TID 0000.0001) dxV =  /* dxV(1,:,1,:) ( units: m ) */
(PID.TID 0000.0001)                 8.015229982413632E+04,      /* J =  1 */
(PID.TID 0000.0001)                 1.362652340208229E+05,      /* J =  2 */
(PID.TID 0000.0001)                 1.701080315742101E+05,      /* J =  3 */
(PID.TID 0000.0001)                 1.942331448101592E+05,      /* J =  4 */
(PID.TID 0000.0001)                 2.133486626971531E+05,      /* J =  5 */
(PID.TID 0000.0001)                 2.292584591272880E+05,      /* J =  6 */
(PID.TID 0000.0001)                 2.428369969078989E+05,      /* J =  7 */
(PID.TID 0000.0001)                 2.545652950875683E+05,      /* J =  8 */
(PID.TID 0000.0001)                 2.647274964828301E+05,      /* J =  9 */
(PID.TID 0000.0001)                 2.734980225206389E+05,      /* J = 10 */
(PID.TID 0000.0001)                 2.809856491525217E+05,      /* J = 11 */
(PID.TID 0000.0001)                 2.872580915202295E+05,      /* J = 12 */
(PID.TID 0000.0001)                 2.923567890694162E+05,      /* J = 13 */
(PID.TID 0000.0001)                 2.963063101754721E+05,      /* J = 14 */
(PID.TID 0000.0001)                 2.991205495886625E+05,      /* J = 15 */
(PID.TID 0000.0001)                 3.008068453676764E+05       /* J = 16 */
(PID.TID 0000.0001)     ;
(PID.TID 0000.0001) dyU =  /* dyU(:,1,:,1) ( units: m ) */
(PID.TID 0000.0001)                 8.015229982413632E+04,      /* I =  1 */
(PID.TID 0000.0001)                 1.362652340208229E+05,      /* I =  2 */
(PID.TID 0000.0001)                 1.701080315742101E+05,      /* I =  3 */
(PID.TID 0000.0001)      . . .
(PID.TID 0000.0001)                 1.942331448101592E+05,      /* I = 94 */
(PID.TID 0000.0001)                 1.701080315742101E+05,      /* I = 95 */
(PID.TID 0000.0001)                 1.362652340208229E+05,      /* I = 96 */
(PID.TID 0000.0001)                 3.013031486919771E+05,      /* I = 97 */
(PID.TID 0000.0001)                 3.015274890091515E+05,      /* I = 98 */
(PID.TID 0000.0001)                 3.021908563699420E+05,      /* I = 99 */
(PID.TID 0000.0001)      . . .
(PID.TID 0000.0001)                 3.032648502024415E+05,      /* I =190 */
(PID.TID 0000.0001)                 3.021908563699420E+05,      /* I =191 */
(PID.TID 0000.0001)                 3.015274890091515E+05,      /* I =192 */
(PID.TID 0000.0001)                 8.015229982413632E+04,      /* I =193 */
(PID.TID 0000.0001)                 1.362652340208229E+05,      /* I =194 */
(PID.TID 0000.0001)                 1.701080315742101E+05,      /* I =195 */
(PID.TID 0000.0001)      . . .
(PID.TID 0000.0001)                 1.942331448101592E+05,      /* I =286 */
(PID.TID 0000.0001)                 1.701080315742101E+05,      /* I =287 */
(PID.TID 0000.0001)                 1.362652340208229E+05,      /* I =288 */
(PID.TID 0000.0001)                 3.013031486919771E+05,      /* I =289 */
(PID.TID 0000.0001)                 3.015274890091515E+05,      /* I =290 */
(PID.TID 0000.0001)                 3.021908563699420E+05,      /* I =291 */
(PID.TID 0000.0001)      . . .
(PID.TID 0000.0001)                 3.032648502024415E+05,      /* I =382 */
(PID.TID 0000.0001)                 3.021908563699420E+05,      /* I =383 */
(PID.TID 0000.0001)                 3.015274890091515E+05       /* I =384 */
(PID.TID 0000.0001)     ;
(PID.TID 0000.0001) dyU =  /* dyU(1,:,1,:) ( units: m ) */
(PID.TID 0000.0001)                 8.015229982413632E+04,      /* J =  1 */
(PID.TID 0000.0001)                 1.333130744933864E+05,      /* J =  2 */
(PID.TID 0000.0001)                 1.691744868129062E+05,      /* J =  3 */
(PID.TID 0000.0001)                 1.937548202849060E+05,      /* J =  4 */
(PID.TID 0000.0001)                 2.130490056267208E+05,      /* J =  5 */
(PID.TID 0000.0001)                 2.290479919481738E+05,      /* J =  6 */
(PID.TID 0000.0001)                 2.426774358027003E+05,      /* J =  7 */
(PID.TID 0000.0001)                 2.544372984215561E+05,      /* J =  8 */
(PID.TID 0000.0001)                 2.646201463834826E+05,      /* J =  9 */
(PID.TID 0000.0001)                 2.734046499619031E+05,      /* J = 10 */
(PID.TID 0000.0001)                 2.809019351693761E+05,      /* J = 11 */
(PID.TID 0000.0001)                 2.871811105274442E+05,      /* J = 12 */
(PID.TID 0000.0001)                 2.922844849381675E+05,      /* J = 13 */
(PID.TID 0000.0001)                 2.962371870847826E+05,      /* J = 14 */
(PID.TID 0000.0001)                 2.990534755671296E+05,      /* J = 15 */
(PID.TID 0000.0001)                 3.007409169495504E+05       /* J = 16 */
(PID.TID 0000.0001)     ;
(PID.TID 0000.0001) rA  =  /* rA (:,1,:,1) ( units: m^2 ) */
(PID.TID 0000.0001)                 1.401900702255611E+10,      /* I =  1 */
(PID.TID 0000.0001)                 2.459906945574446E+10,      /* I =  2 */
(PID.TID 0000.0001)                 3.378518544307869E+10,      /* I =  3 */
(PID.TID 0000.0001)      . . .
(PID.TID 0000.0001)                 3.378518544304265E+10,      /* I = 94 */
(PID.TID 0000.0001)                 2.459906945574446E+10,      /* I = 95 */
(PID.TID 0000.0001)                 1.401900702259215E+10,      /* I = 96 */
(PID.TID 0000.0001)                 9.076111290422060E+10,      /* I = 97 */
(PID.TID 0000.0001)                 9.103111035233499E+10,      /* I = 98 */
(PID.TID 0000.0001)                 9.156064070993231E+10,      /* I = 99 */
(PID.TID 0000.0001)      . . .
(PID.TID 0000.0001)                 9.156064070993231E+10,      /* I =190 */
(PID.TID 0000.0001)                 9.103111035233499E+10,      /* I =191 */
(PID.TID 0000.0001)                 9.076111290418457E+10,      /* I =192 */
(PID.TID 0000.0001)                 1.401900702255611E+10,      /* I =193 */
(PID.TID 0000.0001)                 2.459906945574446E+10,      /* I =194 */
(PID.TID 0000.0001)                 3.378518544307869E+10,      /* I =195 */
(PID.TID 0000.0001)      . . .
(PID.TID 0000.0001)                 3.378518544304265E+10,      /* I =286 */
(PID.TID 0000.0001)                 2.459906945574446E+10,      /* I =287 */
(PID.TID 0000.0001)                 1.401900702259215E+10,      /* I =288 */
(PID.TID 0000.0001)                 9.076111290422060E+10,      /* I =289 */
(PID.TID 0000.0001)                 9.103111035233499E+10,      /* I =290 */
(PID.TID 0000.0001)                 9.156064070993231E+10,      /* I =291 */
(PID.TID 0000.0001)      . . .
(PID.TID 0000.0001)                 9.156064070993231E+10,      /* I =382 */
(PID.TID 0000.0001)                 9.103111035233499E+10,      /* I =383 */
(PID.TID 0000.0001)                 9.076111290418457E+10       /* I =384 */
(PID.TID 0000.0001)     ;
(PID.TID 0000.0001) rA  =  /* rA (1,:,1,:) ( units: m^2 ) */
(PID.TID 0000.0001)                 1.401900702255611E+10,      /* J =  1 */
(PID.TID 0000.0001)                 2.459906945574446E+10,      /* J =  2 */
(PID.TID 0000.0001)                 3.378518544307869E+10,      /* J =  3 */
(PID.TID 0000.0001)                 4.192037169898667E+10,      /* J =  4 */
(PID.TID 0000.0001)                 4.925938996118163E+10,      /* J =  5 */
(PID.TID 0000.0001)                 5.594154126607553E+10,      /* J =  6 */
(PID.TID 0000.0001)                 6.203683527776127E+10,      /* J =  7 */
(PID.TID 0000.0001)                 6.757541173817516E+10,      /* J =  8 */
(PID.TID 0000.0001)                 7.256353271748119E+10,      /* J =  9 */
(PID.TID 0000.0001)                 7.699293007098555E+10,      /* J = 10 */
(PID.TID 0000.0001)                 8.084683449728902E+10,      /* J = 11 */
(PID.TID 0000.0001)                 8.410423102799828E+10,      /* J = 12 */
(PID.TID 0000.0001)                 8.674306976737517E+10,      /* J = 13 */
(PID.TID 0000.0001)                 8.874277443041928E+10,      /* J = 14 */
(PID.TID 0000.0001)                 9.008620045350865E+10,      /* J = 15 */
(PID.TID 0000.0001)                 9.076111290418457E+10       /* J = 16 */
(PID.TID 0000.0001)     ;
(PID.TID 0000.0001) rAw =  /* rAw(:,1,:,1) ( units: m^2 ) */
(PID.TID 0000.0001)                 1.216690346714270E+10,      /* I =  1 */
(PID.TID 0000.0001)                 1.974052138506315E+10,      /* I =  2 */
(PID.TID 0000.0001)                 2.943712825252015E+10,      /* I =  3 */
(PID.TID 0000.0001)      . . .
(PID.TID 0000.0001)                 3.801790263325260E+10,      /* I = 94 */
(PID.TID 0000.0001)                 2.943712825251114E+10,      /* I = 95 */
(PID.TID 0000.0001)                 1.974052138509018E+10,      /* I = 96 */
(PID.TID 0000.0001)                 9.071447638299399E+10,      /* I = 97 */
(PID.TID 0000.0001)                 9.085012105610597E+10,      /* I = 98 */
(PID.TID 0000.0001)                 9.125179254955583E+10,      /* I = 99 */
(PID.TID 0000.0001)      . . .
(PID.TID 0000.0001)                 9.190392048045309E+10,      /* I =190 */
(PID.TID 0000.0001)                 9.125179254954683E+10,      /* I =191 */
(PID.TID 0000.0001)                 9.085012105606993E+10,      /* I =192 */
(PID.TID 0000.0001)                 1.216690346714270E+10,      /* I =193 */
(PID.TID 0000.0001)                 1.974052138506315E+10,      /* I =194 */
(PID.TID 0000.0001)                 2.943712825252015E+10,      /* I =195 */
(PID.TID 0000.0001)      . . .
(PID.TID 0000.0001)                 3.801790263325260E+10,      /* I =286 */
(PID.TID 0000.0001)                 2.943712825251114E+10,      /* I =287 */
(PID.TID 0000.0001)                 1.974052138509018E+10,      /* I =288 */
(PID.TID 0000.0001)                 9.071447638299399E+10,      /* I =289 */
(PID.TID 0000.0001)                 9.085012105610597E+10,      /* I =290 */
(PID.TID 0000.0001)                 9.125179254955583E+10,      /* I =291 */
(PID.TID 0000.0001)      . . .
(PID.TID 0000.0001)                 9.190392048045309E+10,      /* I =382 */
(PID.TID 0000.0001)                 9.125179254954683E+10,      /* I =383 */
(PID.TID 0000.0001)                 9.085012105606993E+10       /* I =384 */
(PID.TID 0000.0001)     ;
(PID.TID 0000.0001) rAw =  /* rAw(1,:,1,:) ( units: m^2 ) */
(PID.TID 0000.0001)                 1.216690346714270E+10,      /* J =  1 */
(PID.TID 0000.0001)                 2.390126200743558E+10,      /* J =  2 */
(PID.TID 0000.0001)                 3.341968103208270E+10,      /* J =  3 */
(PID.TID 0000.0001)                 4.168532893152940E+10,      /* J =  4 */
(PID.TID 0000.0001)                 4.909074590409593E+10,      /* J =  5 */
(PID.TID 0000.0001)                 5.581203765722643E+10,      /* J =  6 */
(PID.TID 0000.0001)                 6.193257577506788E+10,      /* J =  7 */
(PID.TID 0000.0001)                 6.748840226738273E+10,      /* J =  8 */
(PID.TID 0000.0001)                 7.248875782324815E+10,      /* J =  9 */
(PID.TID 0000.0001)                 7.692702995909871E+10,      /* J = 10 */
(PID.TID 0000.0001)                 8.078743937057304E+10,      /* J = 11 */
(PID.TID 0000.0001)                 8.404959656062837E+10,      /* J = 12 */
(PID.TID 0000.0001)                 8.669186205742538E+10,      /* J = 13 */
(PID.TID 0000.0001)                 8.869393350723613E+10,      /* J = 14 */
(PID.TID 0000.0001)                 9.003884657168852E+10,      /* J = 15 */
(PID.TID 0000.0001)                 9.071447638299399E+10       /* J = 16 */
(PID.TID 0000.0001)     ;
(PID.TID 0000.0001) rAs =  /* rAs(:,1,:,1) ( units: m^2 ) */
(PID.TID 0000.0001)                 1.216690346714270E+10,      /* I =  1 */
(PID.TID 0000.0001)                 2.390126200743558E+10,      /* I =  2 */
(PID.TID 0000.0001)                 3.341968103208270E+10,      /* I =  3 */
(PID.TID 0000.0001)      . . .
(PID.TID 0000.0001)                 3.341968103208270E+10,      /* I = 94 */
(PID.TID 0000.0001)                 2.390126200743558E+10,      /* I = 95 */
(PID.TID 0000.0001)                 1.216690346714270E+10,      /* I = 96 */
(PID.TID 0000.0001)                 9.083293515008307E+10,      /* I = 97 */
(PID.TID 0000.0001)                 9.110170898494536E+10,      /* I = 98 */
(PID.TID 0000.0001)                 9.162886297688426E+10,      /* I = 99 */
(PID.TID 0000.0001)      . . .
(PID.TID 0000.0001)                 9.162886297688426E+10,      /* I =190 */
(PID.TID 0000.0001)                 9.110170898494536E+10,      /* I =191 */
(PID.TID 0000.0001)                 9.083293515008307E+10,      /* I =192 */
(PID.TID 0000.0001)                 1.216690346714270E+10,      /* I =193 */
(PID.TID 0000.0001)                 2.390126200743558E+10,      /* I =194 */
(PID.TID 0000.0001)                 3.341968103208270E+10,      /* I =195 */
(PID.TID 0000.0001)      . . .
(PID.TID 0000.0001)                 3.341968103208270E+10,      /* I =286 */
(PID.TID 0000.0001)                 2.390126200743558E+10,      /* I =287 */
(PID.TID 0000.0001)                 1.216690346714270E+10,      /* I =288 */
(PID.TID 0000.0001)                 9.083293515008307E+10,      /* I =289 */
(PID.TID 0000.0001)                 9.110170898494536E+10,      /* I =290 */
(PID.TID 0000.0001)                 9.162886297688426E+10,      /* I =291 */
(PID.TID 0000.0001)      . . .
(PID.TID 0000.0001)                 9.162886297688426E+10,      /* I =382 */
(PID.TID 0000.0001)                 9.110170898494536E+10,      /* I =383 */
(PID.TID 0000.0001)                 9.083293515008307E+10       /* I =384 */
(PID.TID 0000.0001)     ;
(PID.TID 0000.0001) rAs =  /* rAs(1,:,1,:) ( units: m^2 ) */
(PID.TID 0000.0001)                 1.216690346714270E+10,      /* J =  1 */
(PID.TID 0000.0001)                 1.974052138506315E+10,      /* J =  2 */
(PID.TID 0000.0001)                 2.943712825252015E+10,      /* J =  3 */
(PID.TID 0000.0001)                 3.801790263324359E+10,      /* J =  4 */
(PID.TID 0000.0001)                 4.571243814189866E+10,      /* J =  5 */
(PID.TID 0000.0001)                 5.269930713599979E+10,      /* J =  6 */
(PID.TID 0000.0001)                 5.907428494299063E+10,      /* J =  7 */
(PID.TID 0000.0001)                 6.488320895111514E+10,      /* J =  8 */
(PID.TID 0000.0001)                 7.014205907741882E+10,      /* J =  9 */
(PID.TID 0000.0001)                 7.484854821847499E+10,      /* J = 10 */
(PID.TID 0000.0001)                 7.898934631431560E+10,      /* J = 11 */
(PID.TID 0000.0001)                 8.254500894894537E+10,      /* J = 12 */
(PID.TID 0000.0001)                 8.549360686473492E+10,      /* J = 13 */
(PID.TID 0000.0001)                 8.781353403175085E+10,      /* J = 14 */
(PID.TID 0000.0001)                 8.948571540392021E+10,      /* J = 15 */
(PID.TID 0000.0001)                 9.049530583086168E+10       /* J = 16 */
(PID.TID 0000.0001)     ;
(PID.TID 0000.0001) globalArea = /* Integrated horizontal Area (m^2) */
(PID.TID 0000.0001)                 3.638867375081599E+14
(PID.TID 0000.0001)     ;
(PID.TID 0000.0001) hasWetCSCorners = /* Domain contains CS corners (True/False) */
(PID.TID 0000.0001)                   T
(PID.TID 0000.0001)     ;
(PID.TID 0000.0001) // =======================================================
(PID.TID 0000.0001) // End of Model config. summary
(PID.TID 0000.0001) // =======================================================
(PID.TID 0000.0001) 
(PID.TID 0000.0001) == Packages configuration : Check & print summary ==
(PID.TID 0000.0001) 
(PID.TID 0000.0001) GMREDI_CHECK: #define GMREDI
(PID.TID 0000.0001) GM_AdvForm =     /* if FALSE => use SkewFlux Form */
(PID.TID 0000.0001)                   F
(PID.TID 0000.0001)     ;
(PID.TID 0000.0001) GM_InMomAsStress = /* if TRUE => apply as Eddy Stress */
(PID.TID 0000.0001)                   F
(PID.TID 0000.0001)     ;
(PID.TID 0000.0001) GM_AdvSeparate = /* Calc Bolus & Euler Adv. separately */
(PID.TID 0000.0001)                   F
(PID.TID 0000.0001)     ;
(PID.TID 0000.0001) GM_ExtraDiag =   /* Tensor Extra Diag (line 1&2) non 0 */
(PID.TID 0000.0001)                   F
(PID.TID 0000.0001)     ;
(PID.TID 0000.0001) GM_isopycK =    /* Background Isopyc. Diffusivity [m^2/s] */
(PID.TID 0000.0001)                 8.000000000000000E+02
(PID.TID 0000.0001)     ;
(PID.TID 0000.0001) GM_skewflx*K =  /* Background GM_SkewFlx Diffusivity [m^2/s] */
(PID.TID 0000.0001)                 8.000000000000000E+02
(PID.TID 0000.0001)     ;
(PID.TID 0000.0001) GM_advec*K =    /* Backg. GM-Advec(=Bolus) Diffusivity [m^2/s]*/
(PID.TID 0000.0001)                 0.000000000000000E+00
(PID.TID 0000.0001)     ;
(PID.TID 0000.0001) GM_Kmin_horiz = /* Minimum Horizontal Diffusivity [m^2/s] */
(PID.TID 0000.0001)                 5.000000000000000E+01
(PID.TID 0000.0001)     ;
(PID.TID 0000.0001) GM_Visbeck_alpha = /* Visbeck alpha coeff. [-] */
(PID.TID 0000.0001)                 0.000000000000000E+00
(PID.TID 0000.0001)     ;
(PID.TID 0000.0001) GM_Small_Number =  /* epsilon used in slope calc */
(PID.TID 0000.0001)                 9.999999999999999E-21
(PID.TID 0000.0001)     ;
(PID.TID 0000.0001) GM_slopeSqCutoff = /* Slope^2 cut-off value */
(PID.TID 0000.0001)                 1.000000000000000E+48
(PID.TID 0000.0001)     ;
(PID.TID 0000.0001) GM_taper_scheme =  /* Type of Tapering/Clipping scheme */
(PID.TID 0000.0001)               'gkw91                                   '
(PID.TID 0000.0001)     ;
(PID.TID 0000.0001) GM_maxSlope =  /* Maximum Slope (Tapering/Clipping) */
(PID.TID 0000.0001)                 1.000000000000000E-02
(PID.TID 0000.0001)     ;
(PID.TID 0000.0001) GM_facTrL2dz = /* Minimum Trans.Layer Thick. (factor of dz) */
(PID.TID 0000.0001)                 1.000000000000000E+00
(PID.TID 0000.0001)     ;
(PID.TID 0000.0001) GM_facTrL2ML = /* Max.Trans.Layer Thick. (factor of MxL Depth)*/
(PID.TID 0000.0001)                 5.000000000000000E+00
(PID.TID 0000.0001)     ;
(PID.TID 0000.0001) GM_maxTransLay = /* Maximum Transition Layer Thickness [m] */
(PID.TID 0000.0001)                 5.000000000000000E+02
(PID.TID 0000.0001)     ;
(PID.TID 0000.0001) GM_UseBVP = /* if TRUE => use bvp a la Ferrari et al. (2010) */
(PID.TID 0000.0001)                   F
(PID.TID 0000.0001)     ;
(PID.TID 0000.0001) GM_BVP_ModeNumber = /* Vertical mode number for BVP wave speed */
(PID.TID 0000.0001)                       1
(PID.TID 0000.0001)     ;
(PID.TID 0000.0001) GM_BVP_cMin = /* Minimum wave speed for BVP [m/s] */
(PID.TID 0000.0001)                 1.000000000000000E-01
(PID.TID 0000.0001)     ;
(PID.TID 0000.0001) GM_useSubMeso = /* if TRUE => use Sub-Meso param. (B.Fox-Kemper) */
(PID.TID 0000.0001)                   F
(PID.TID 0000.0001)     ;
(PID.TID 0000.0001) subMeso_Ceff = /* efficiency coeff. of Mixed-Layer Eddies [-] */
(PID.TID 0000.0001)                 7.000000000000001E-02
(PID.TID 0000.0001)     ;
(PID.TID 0000.0001) subMeso_invTau = /* inverse of Sub-Meso mixing time-scale [/s] */
(PID.TID 0000.0001)                 2.000000000000000E-06
(PID.TID 0000.0001)     ;
(PID.TID 0000.0001) subMeso_LfMin = /* minimum length-scale "Lf" [m] */
(PID.TID 0000.0001)                 1.000000000000000E+03
(PID.TID 0000.0001)     ;
(PID.TID 0000.0001) subMeso_Lmax = /* maximum grid-scale length [m] */
(PID.TID 0000.0001)                 1.100000000000000E+05
(PID.TID 0000.0001)     ;
(PID.TID 0000.0001) GM_useLeithQG = /* if TRUE => add QG Leith viscosity to GMRedi tensor */
(PID.TID 0000.0001)                   F
(PID.TID 0000.0001)     ;
(PID.TID 0000.0001) EXF_CHECK: #define ALLOW_EXF
(PID.TID 0000.0001) SEAICE_CHECK: #define ALLOW_SEAICE
(PID.TID 0000.0001) THSICE_CHECK: #define THSICE
(PID.TID 0000.0001) GAD_CHECK: #define ALLOW_GENERIC_ADVDIFF
(PID.TID 0000.0001) // =======================================================
(PID.TID 0000.0001) // Check Model config. (CONFIG_CHECK):
(PID.TID 0000.0001) // CONFIG_CHECK : Normal End
(PID.TID 0000.0001) // =======================================================
(PID.TID 0000.0001) 
(PID.TID 0000.0001)  MDS_READ_META: opening file: pickup.0000072000.meta
(PID.TID 0000.0001)  nRecords = 123 ; filePrec =  64 ; fileIter =     72000
(PID.TID 0000.0001)     nDims =   2 , dims:
(PID.TID 0000.0001)    1: 192   1 192
(PID.TID 0000.0001)    2:  32   1  32
(PID.TID 0000.0001)     nFlds =  11 , nFl3D =   8 , fields:
(PID.TID 0000.0001)  >Uvel    < >GuNm1   < >Vvel    < >GvNm1   < >Theta   < >GtNm1   < >Salt    < >GsNm1   < >EtaN    < >dEtaHdt < >EtaH    <
(PID.TID 0000.0001) missingVal=  1.00000000000000E+00 ; nTimRec =   0 , timeList:
(PID.TID 0000.0001) READ_MFLDS_3D_RL: read field: "Uvel    ", #   1 in fldList, rec=   1
(PID.TID 0000.0001)  MDS_READ_FIELD: opening global file: pickup.0000072000
(PID.TID 0000.0001) READ_MFLDS_3D_RL: read field: "Vvel    ", #   3 in fldList, rec=   3
(PID.TID 0000.0001)  MDS_READ_FIELD: opening global file: pickup.0000072000
(PID.TID 0000.0001) READ_MFLDS_3D_RL: read field: "Theta   ", #   5 in fldList, rec=   5
(PID.TID 0000.0001)  MDS_READ_FIELD: opening global file: pickup.0000072000
(PID.TID 0000.0001) READ_MFLDS_3D_RL: read field: "Salt    ", #   7 in fldList, rec=   7
(PID.TID 0000.0001)  MDS_READ_FIELD: opening global file: pickup.0000072000
(PID.TID 0000.0001) READ_MFLDS_3D_RL: read field: "GuNm1   ", #   2 in fldList, rec=   2
(PID.TID 0000.0001)  MDS_READ_FIELD: opening global file: pickup.0000072000
(PID.TID 0000.0001) READ_MFLDS_3D_RL: read field: "GvNm1   ", #   4 in fldList, rec=   4
(PID.TID 0000.0001)  MDS_READ_FIELD: opening global file: pickup.0000072000
(PID.TID 0000.0001) READ_MFLDS_3D_RL: read field: "GtNm1   ", #   6 in fldList, rec=   6
(PID.TID 0000.0001)  MDS_READ_FIELD: opening global file: pickup.0000072000
(PID.TID 0000.0001) READ_MFLDS_3D_RL: read field: "GsNm1   ", #   8 in fldList, rec=   8
(PID.TID 0000.0001)  MDS_READ_FIELD: opening global file: pickup.0000072000
(PID.TID 0000.0001) READ_MFLDS_3D_RL: read field: "EtaN    ", #   9 in fldList, rec= 121
(PID.TID 0000.0001)  MDS_READ_FIELD: opening global file: pickup.0000072000
(PID.TID 0000.0001) READ_MFLDS_3D_RL: read field: "dEtaHdt ", #  10 in fldList, rec= 122
(PID.TID 0000.0001)  MDS_READ_FIELD: opening global file: pickup.0000072000
(PID.TID 0000.0001) READ_MFLDS_3D_RL: read field: "EtaH    ", #  11 in fldList, rec= 123
(PID.TID 0000.0001)  MDS_READ_FIELD: opening global file: pickup.0000072000
(PID.TID 0000.0001) READ_MFLDS_CHECK: - normal end ; reset MFLDS file-name: pickup.0000072000
(PID.TID 0000.0001)  write diagnostics summary to file ioUnit:      6
Iter.Nb:     72000 ; Time(s):  6.2208000000000E+09
------------------------------------------------------------------------
2D/3D diagnostics: Number of lists:     1
------------------------------------------------------------------------
listId=    1 ; file name: surfDiag
 nFlds, nActive,       freq     &     phase        , nLev               
   12  |   12  |1555200000.000000         0.000000 |   1
 levels:   1
 diag# | name   |   ipt  |  iMate | kLev|   count |   mate.C|           
    23 |ETAN    |      1 |      0 |   1 |       0 |
    24 |ETANSQ  |      2 |      0 |   1 |       0 |
    25 |DETADT2 |      3 |      0 |   1 |       0 |
    73 |PHIBOT  |      4 |      0 |   1 |       0 |
    74 |PHIBOTSQ|      5 |      0 |   1 |       0 |
    81 |oceTAUX |      6 |      7 |   1 |       0 |       0 |
    82 |oceTAUY |      7 |      6 |   1 |       0 |       0 |
    87 |oceQnet |      8 |      0 |   1 |       0 |
    86 |oceSflux|      9 |      0 |   1 |       0 |
    85 |oceFWflx|     10 |      0 |   1 |       0 |
    90 |TRELAX  |     11 |      0 |   1 |       0 |
    91 |SRELAX  |     12 |      0 |   1 |       0 |
------------------------------------------------------------------------
Global & Regional Statistics diagnostics: Number of lists:     2
------------------------------------------------------------------------
listId=   1 ; file name: dynStDiag
 nFlds, nActive,       freq     &     phase        |                    
    8  |    8  |    864000.000000         0.000000 |
 Regions:   0
 diag# | name   |   ipt  |  iMate |    Volume   |   mate-Vol. |         
    23 |ETAN    |      1 |      0 | 0.00000E+00 |
    30 |UVEL    |      2 |      0 | 0.00000E+00 |
    31 |VVEL    |     17 |      0 | 0.00000E+00 |
    32 |WVEL    |     32 |      0 | 0.00000E+00 |
    26 |THETA   |     47 |      0 | 0.00000E+00 |
    27 |SALT    |     62 |      0 | 0.00000E+00 |
    80 |CONVADJ |     77 |      0 | 0.00000E+00 |
    25 |DETADT2 |     92 |      0 | 0.00000E+00 |
------------------------------------------------------------------------
listId=   2 ; file name: thSIceStDiag
 nFlds, nActive,       freq     &     phase        |                    
   16  |   16  |    864000.000000         0.000000 |
 Regions:   0  1  3
 diag# | name   |   ipt  |  iMate |    Volume   |   mate-Vol. |         
   325 |SI_Fract|     93 |      0 | 0.00000E+00 |
   326 |SI_Thick|     94 |     93 | 0.00000E+00 | 0.00000E+00 |
   327 |SI_SnowH|     95 |     93 | 0.00000E+00 | 0.00000E+00 |
   328 |SI_Tsrf |     96 |     93 | 0.00000E+00 | 0.00000E+00 |
   329 |SI_Tice1|     97 |     93 | 0.00000E+00 | 0.00000E+00 |
   330 |SI_Tice2|     98 |     93 | 0.00000E+00 | 0.00000E+00 |
   331 |SI_Qice1|     99 |     94 | 0.00000E+00 | 0.00000E+00 |
   332 |SI_Qice2|    100 |     94 | 0.00000E+00 | 0.00000E+00 |
   335 |SIsnwPrc|    101 |     93 | 0.00000E+00 | 0.00000E+00 |
   334 |SIalbedo|    102 |     93 | 0.00000E+00 | 0.00000E+00 |
   333 |SIsnwAge|    103 |      0 | 0.00000E+00 |
   338 |SIflx2oc|    104 |      0 | 0.00000E+00 |
   339 |SIfrw2oc|    105 |      0 | 0.00000E+00 |
   340 |SIsaltFx|    106 |      0 | 0.00000E+00 |
   336 |SIflxAtm|    107 |      0 | 0.00000E+00 |
   337 |SIfrwAtm|    108 |      0 | 0.00000E+00 |
------------------------------------------------------------------------
(PID.TID 0000.0001)  MDS_READ_META: opening file: pickup_seaice.0000072000.meta
(PID.TID 0000.0001)  nRecords =  15 ; filePrec =  64 ; fileIter =     72000
(PID.TID 0000.0001)     nDims =   2 , dims:
(PID.TID 0000.0001)    1: 192   1 192
(PID.TID 0000.0001)    2:  32   1  32
(PID.TID 0000.0001)     nFlds =  15 , nFl3D =   0 , fields:
(PID.TID 0000.0001)  >siTICE  < >siYNEG  < >siHSNOW < >siUICE  < >siUICE_2< >siUICE_3< >siVICE  < >siVICE_2< >siVICE_3< >siHEFF  < >siHEFF_2< >siHEFF_3< >siAREA  < >siAREA_2< >siAREA_3<
(PID.TID 0000.0001) missingVal=  1.00000000000000E+00 ; nTimRec =   0 , timeList:
(PID.TID 0000.0001) READ_MFLDS_3D_RL: read field: "siUICE  ", #   4 in fldList, rec=   4
(PID.TID 0000.0001)  MDS_READ_FIELD: opening global file: pickup_seaice.0000072000
(PID.TID 0000.0001) READ_MFLDS_3D_RL: read field: "siVICE  ", #   7 in fldList, rec=   7
(PID.TID 0000.0001)  MDS_READ_FIELD: opening global file: pickup_seaice.0000072000
(PID.TID 0000.0001) READ_MFLDS_CHECK: - normal end ; reset MFLDS file-name: pickup_seaice.0000072000
(PID.TID 0000.0001)  MDS_READ_FIELD: opening global file: pickup_ic.0000072000
(PID.TID 0000.0001)  MDS_READ_FIELD: opening global file: pickup_ic.0000072000
(PID.TID 0000.0001)  MDS_READ_FIELD: opening global file: pickup_ic.0000072000
(PID.TID 0000.0001)  MDS_READ_FIELD: opening global file: pickup_ic.0000072000
(PID.TID 0000.0001)  MDS_READ_FIELD: opening global file: pickup_ic.0000072000
(PID.TID 0000.0001)  MDS_READ_FIELD: opening global file: pickup_ic.0000072000
(PID.TID 0000.0001)  MDS_READ_FIELD: opening global file: pickup_ic.0000072000
(PID.TID 0000.0001)  MDS_READ_FIELD: opening global file: pickup_ic.0000072000
(PID.TID 0000.0001)  MDS_READ_FIELD: opening global file: pickup_ic.0000072000
(PID.TID 0000.0001) // =======================================================
(PID.TID 0000.0001) // Model current state
(PID.TID 0000.0001) // =======================================================
(PID.TID 0000.0001) 
(PID.TID 0000.0001) // =======================================================
(PID.TID 0000.0001) // Begin MONITOR dynamic field statistics
(PID.TID 0000.0001) // =======================================================
(PID.TID 0000.0001) %MON time_tsnumber                =                 72000
(PID.TID 0000.0001) %MON time_secondsf                =   6.2208000000000E+09
(PID.TID 0000.0001) %MON dynstat_eta_max              =  -2.2041664480788E+00
(PID.TID 0000.0001) %MON dynstat_eta_min              =  -8.3368186317242E+00
(PID.TID 0000.0001) %MON dynstat_eta_mean             =  -3.2999269019401E+00
(PID.TID 0000.0001) %MON dynstat_eta_sd               =   8.8289254437965E-01
(PID.TID 0000.0001) %MON dynstat_eta_del2             =   2.4546251501318E-03
(PID.TID 0000.0001) %MON dynstat_uvel_max             =   2.1289733821794E-01
(PID.TID 0000.0001) %MON dynstat_uvel_min             =  -2.9128750750933E-01
(PID.TID 0000.0001) %MON dynstat_uvel_mean            =  -5.2860218230237E-04
(PID.TID 0000.0001) %MON dynstat_uvel_sd              =   1.4790330813737E-02
(PID.TID 0000.0001) %MON dynstat_uvel_del2            =   6.8248145743958E-05
(PID.TID 0000.0001) %MON dynstat_vvel_max             =   2.2199184704564E-01
(PID.TID 0000.0001) %MON dynstat_vvel_min             =  -2.0062292421344E-01
(PID.TID 0000.0001) %MON dynstat_vvel_mean            =  -4.0113294365963E-04
(PID.TID 0000.0001) %MON dynstat_vvel_sd              =   1.5242443278796E-02
(PID.TID 0000.0001) %MON dynstat_vvel_del2            =   6.3300374611828E-05
(PID.TID 0000.0001) %MON dynstat_wvel_max             =   1.0124735215525E-04
(PID.TID 0000.0001) %MON dynstat_wvel_min             =  -2.1390867107236E-04
(PID.TID 0000.0001) %MON dynstat_wvel_mean            =  -2.2881662065410E-09
(PID.TID 0000.0001) %MON dynstat_wvel_sd              =   5.3718089817332E-06
(PID.TID 0000.0001) %MON dynstat_wvel_del2            =   4.9515844278522E-08
(PID.TID 0000.0001) %MON dynstat_theta_max            =   3.1190145162975E+01
(PID.TID 0000.0001) %MON dynstat_theta_min            =  -6.6438195213420E+00
(PID.TID 0000.0001) %MON dynstat_theta_mean           =   3.0527437088103E+00
(PID.TID 0000.0001) %MON dynstat_theta_sd             =   4.9948592183898E+00
(PID.TID 0000.0001) %MON dynstat_theta_del2           =   2.9607189733177E-03
(PID.TID 0000.0001) %MON dynstat_salt_max             =   5.9479941764493E+01
(PID.TID 0000.0001) %MON dynstat_salt_min             =   1.7775579847672E+01
(PID.TID 0000.0001) %MON dynstat_salt_mean            =   3.4752520111249E+01
(PID.TID 0000.0001) %MON dynstat_salt_sd              =   4.8912632150922E-01
(PID.TID 0000.0001) %MON dynstat_salt_del2            =   1.3623675537366E-03
(PID.TID 0000.0001) %MON forcing_qnet_max             =   0.0000000000000E+00
(PID.TID 0000.0001) %MON forcing_qnet_min             =   0.0000000000000E+00
(PID.TID 0000.0001) %MON forcing_qnet_mean            =   0.0000000000000E+00
(PID.TID 0000.0001) %MON forcing_qnet_sd              =   0.0000000000000E+00
(PID.TID 0000.0001) %MON forcing_qnet_del2            =   0.0000000000000E+00
(PID.TID 0000.0001) %MON forcing_qsw_max              =   0.0000000000000E+00
(PID.TID 0000.0001) %MON forcing_qsw_min              =   0.0000000000000E+00
(PID.TID 0000.0001) %MON forcing_qsw_mean             =   0.0000000000000E+00
(PID.TID 0000.0001) %MON forcing_qsw_sd               =   0.0000000000000E+00
(PID.TID 0000.0001) %MON forcing_qsw_del2             =   0.0000000000000E+00
(PID.TID 0000.0001) %MON forcing_empmr_max            =   0.0000000000000E+00
(PID.TID 0000.0001) %MON forcing_empmr_min            =   0.0000000000000E+00
(PID.TID 0000.0001) %MON forcing_empmr_mean           =   0.0000000000000E+00
(PID.TID 0000.0001) %MON forcing_empmr_sd             =   0.0000000000000E+00
(PID.TID 0000.0001) %MON forcing_empmr_del2           =   0.0000000000000E+00
(PID.TID 0000.0001) %MON forcing_fu_max               =   0.0000000000000E+00
(PID.TID 0000.0001) %MON forcing_fu_min               =   0.0000000000000E+00
(PID.TID 0000.0001) %MON forcing_fu_mean              =   0.0000000000000E+00
(PID.TID 0000.0001) %MON forcing_fu_sd                =   0.0000000000000E+00
(PID.TID 0000.0001) %MON forcing_fu_del2              =   0.0000000000000E+00
(PID.TID 0000.0001) %MON forcing_fv_max               =   0.0000000000000E+00
(PID.TID 0000.0001) %MON forcing_fv_min               =   0.0000000000000E+00
(PID.TID 0000.0001) %MON forcing_fv_mean              =   0.0000000000000E+00
(PID.TID 0000.0001) %MON forcing_fv_sd                =   0.0000000000000E+00
(PID.TID 0000.0001) %MON forcing_fv_del2              =   0.0000000000000E+00
(PID.TID 0000.0001) %MON trAdv_CFL_u_max              =   0.0000000000000E+00
(PID.TID 0000.0001) %MON trAdv_CFL_v_max              =   0.0000000000000E+00
(PID.TID 0000.0001) %MON trAdv_CFL_w_max              =   0.0000000000000E+00
(PID.TID 0000.0001) %MON advcfl_uvel_max              =   8.3923803824552E-02
(PID.TID 0000.0001) %MON advcfl_vvel_max              =   8.3304632405312E-02
(PID.TID 0000.0001) %MON advcfl_wvel_max              =   6.9742298794914E-02
(PID.TID 0000.0001) %MON advcfl_W_hf_max              =   7.7160082019468E-02
(PID.TID 0000.0001) %MON pe_b_mean                    =   1.5559232407148E-02
(PID.TID 0000.0001) %MON ke_max                       =   4.1915507392132E-02
(PID.TID 0000.0001) %MON ke_mean                      =   2.0848176851410E-04
(PID.TID 0000.0001) %MON ke_vol                       =   1.3386015893205E+18
(PID.TID 0000.0001) %MON vort_r_min                   =  -1.2262915518822E-06
(PID.TID 0000.0001) %MON vort_r_max                   =   1.3011966935743E-06
(PID.TID 0000.0001) %MON vort_a_mean                  =  -2.0549865324846E-05
(PID.TID 0000.0001) %MON vort_a_sd                    =   7.5259723723248E-05
(PID.TID 0000.0001) %MON vort_p_mean                  =  -2.4806340990730E-05
(PID.TID 0000.0001) %MON vort_p_sd                    =   1.2827605093522E-04
(PID.TID 0000.0001) %MON surfExpan_theta_mean         =   4.0484606368574E-08
(PID.TID 0000.0001) %MON surfExpan_salt_mean          =   2.1717823146781E-08
(PID.TID 0000.0001) // =======================================================
(PID.TID 0000.0001) // End MONITOR dynamic field statistics
(PID.TID 0000.0001) // =======================================================
(PID.TID 0000.0001) // =======================================================
(PID.TID 0000.0001) // Begin MONITOR SEAICE statistics
(PID.TID 0000.0001) // =======================================================
(PID.TID 0000.0001) %MON seaice_tsnumber              =                 72000
(PID.TID 0000.0001) %MON seaice_time_sec              =   6.2208000000000E+09
(PID.TID 0000.0001) %MON seaice_uice_max              =   4.0000000000000E-01
(PID.TID 0000.0001) %MON seaice_uice_min              =  -4.0000000000000E-01
(PID.TID 0000.0001) %MON seaice_uice_mean             =  -1.4584960473672E-02
(PID.TID 0000.0001) %MON seaice_uice_sd               =   1.4252324186947E-01
(PID.TID 0000.0001) %MON seaice_uice_del2             =   7.2720843677207E-04
(PID.TID 0000.0001) %MON seaice_vice_max              =   3.7441285697502E-01
(PID.TID 0000.0001) %MON seaice_vice_min              =  -4.0000000000000E-01
(PID.TID 0000.0001) %MON seaice_vice_mean             =  -3.7542841261047E-02
(PID.TID 0000.0001) %MON seaice_vice_sd               =   1.5635165386930E-01
(PID.TID 0000.0001) %MON seaice_vice_del2             =   7.0861834440520E-04
(PID.TID 0000.0001) // =======================================================
(PID.TID 0000.0001) // End MONITOR SEAICE statistics
(PID.TID 0000.0001) // =======================================================
(PID.TID 0000.0001) // =======================================================
(PID.TID 0000.0001) // Begin MONITOR Therm.SeaIce statistics
(PID.TID 0000.0001) // =======================================================
(PID.TID 0000.0001) %MON thSI_time_sec                =   6.2208000000000E+09
(PID.TID 0000.0001) %MON thSI_Ice_Area_G              =   1.7206271940734E+13
(PID.TID 0000.0001) %MON thSI_Ice_Area_S              =   5.1016066833079E+12
(PID.TID 0000.0001) %MON thSI_Ice_Area_N              =   1.2104665257426E+13
(PID.TID 0000.0001) %MON thSI_IceH_ave_G              =   1.7800858094400E+00
(PID.TID 0000.0001) %MON thSI_IceH_ave_S              =   1.1728590647515E+00
(PID.TID 0000.0001) %MON thSI_IceH_ave_N              =   2.0360063122466E+00
(PID.TID 0000.0001) %MON thSI_IceH_max_S              =   2.1255881149091E+00
(PID.TID 0000.0001) %MON thSI_IceH_max_N              =   5.2011996894964E+00
(PID.TID 0000.0001) %MON thSI_SnwH_ave_G              =   2.1269949323472E-01
(PID.TID 0000.0001) %MON thSI_SnwH_ave_S              =   1.9888283136179E-01
(PID.TID 0000.0001) %MON thSI_SnwH_ave_N              =   2.1852263439996E-01
(PID.TID 0000.0001) %MON thSI_SnwH_max_S              =   5.9283040406778E-01
(PID.TID 0000.0001) %MON thSI_SnwH_max_N              =   4.1790381367362E-01
(PID.TID 0000.0001) %MON thSI_Tsrf_ave_G              =  -1.8445854447864E+01
(PID.TID 0000.0001) %MON thSI_Tsrf_ave_S              =  -3.8760911421441E-02
(PID.TID 0000.0001) %MON thSI_Tsrf_ave_N              =  -2.6203669258000E+01
(PID.TID 0000.0001) %MON thSI_Tsrf_min_S              =  -5.2845038213976E+00
(PID.TID 0000.0001) %MON thSI_Tsrf_min_N              =  -3.2727398211857E+01
(PID.TID 0000.0001) %MON thSI_Tsrf_max_S              =   0.0000000000000E+00
(PID.TID 0000.0001) %MON thSI_Tsrf_max_N              =  -4.8044712786252E+00
(PID.TID 0000.0001) %MON thSI_Tic1_ave_G              =  -1.0584109855350E+01
(PID.TID 0000.0001) %MON thSI_Tic1_ave_S              =  -1.4295367171650E+00
(PID.TID 0000.0001) %MON thSI_Tic1_ave_N              =  -1.2806698014557E+01
(PID.TID 0000.0001) %MON thSI_Tic1_min_S              =  -2.5949045859691E+00
(PID.TID 0000.0001) %MON thSI_Tic1_min_N              =  -1.8478200386422E+01
(PID.TID 0000.0001) %MON thSI_Tic1_max_S              =  -1.4464428426653E-01
(PID.TID 0000.0001) %MON thSI_Tic1_max_N              =  -3.0301966761158E+00
(PID.TID 0000.0001) %MON thSI_Tic2_ave_G              =  -4.5788968374079E+00
(PID.TID 0000.0001) %MON thSI_Tic2_ave_S              =  -1.6694991036604E+00
(PID.TID 0000.0001) %MON thSI_Tic2_ave_N              =  -5.2852534152454E+00
(PID.TID 0000.0001) %MON thSI_Tic2_min_S              =  -2.1090282405800E+00
(PID.TID 0000.0001) %MON thSI_Tic2_min_N              =  -7.7121049316683E+00
(PID.TID 0000.0001) %MON thSI_Tic2_max_S              =  -9.8260428530282E-01
(PID.TID 0000.0001) %MON thSI_Tic2_max_N              =  -2.2118503675029E+00
(PID.TID 0000.0001) %MON thSI_TotEnerg_G              =  -9.9886623916783E+21
(PID.TID 0000.0001) // =======================================================
(PID.TID 0000.0001) // End MONITOR Therm.SeaIce statistics
(PID.TID 0000.0001) // =======================================================
(PID.TID 0000.0001)  MDS_READ_FIELD: opening global file: lev_surfT_cs_12m.bin
(PID.TID 0000.0001)  MDS_READ_FIELD: opening global file: lev_surfT_cs_12m.bin
(PID.TID 0000.0001)  MDS_READ_FIELD: opening global file: lev_surfS_cs_12m.bin
(PID.TID 0000.0001)  MDS_READ_FIELD: opening global file: lev_surfS_cs_12m.bin
(PID.TID 0000.0001)  MDS_READ_FIELD: opening global file: trenberth_taux.bin
(PID.TID 0000.0001)  MDS_READ_FIELD: opening global file: trenberth_taux.bin
(PID.TID 0000.0001)  MDS_READ_FIELD: opening global file: trenberth_tauy.bin
(PID.TID 0000.0001)  MDS_READ_FIELD: opening global file: trenberth_tauy.bin
(PID.TID 0000.0001)  MDS_READ_FIELD: opening global file: core_wndSpd_cs32.bin
(PID.TID 0000.0001)  MDS_READ_FIELD: opening global file: core_wndSpd_cs32.bin
(PID.TID 0000.0001)  MDS_READ_FIELD: opening global file: core_t_Air_cs32.bin
(PID.TID 0000.0001)  MDS_READ_FIELD: opening global file: core_t_Air_cs32.bin
(PID.TID 0000.0001)  MDS_READ_FIELD: opening global file: core_q_air_cs32.bin
(PID.TID 0000.0001)  MDS_READ_FIELD: opening global file: core_q_air_cs32.bin
(PID.TID 0000.0001)  MDS_READ_FIELD: opening global file: core_prec_1_cs32.bin
(PID.TID 0000.0001)  MDS_READ_FIELD: opening global file: core_prec_1_cs32.bin
(PID.TID 0000.0001)  MDS_READ_FIELD: opening global file: core_snwP_1_cs32.bin
(PID.TID 0000.0001)  MDS_READ_FIELD: opening global file: core_snwP_1_cs32.bin
(PID.TID 0000.0001)  MDS_READ_FIELD: opening global file: core_dwnSw_cs32.bin
(PID.TID 0000.0001)  MDS_READ_FIELD: opening global file: core_dwnSw_cs32.bin
(PID.TID 0000.0001)  MDS_READ_FIELD: opening global file: core_dwnLw_cs32.bin
(PID.TID 0000.0001)  MDS_READ_FIELD: opening global file: core_dwnLw_cs32.bin
(PID.TID 0000.0001)  MDS_READ_FIELD: opening global file: core_rnof_1_cs32.bin
(PID.TID 0000.0001)  MDS_READ_FIELD: opening global file: core_rnof_1_cs32.bin
 EXTERNAL_FIELDS_LOAD,     72000 : iP,iLd,i0,i1=   12    0   12    1 ; Wght=  0.5000000000  0.5000000000
 EXTERNAL_FIELDS_LOAD, it=     72000 : Reading new data, i0,i1=   12    1 (prev=   12    0 )
 SEAICE_LSR: ipass, FLEX_FACTOR, LSR_ERRORfu, LSR_ERRORfv, residIni =     1   0.592170 0.797473E-01 0.913570E-01 0.204784E+00
 SEAICE_LSR: Residual Initial ipass,Uice,Vice=         1  1.34669512E-01  1.54274853E-01
 SEAICE_LSR (ipass=        1) iters,dU,Resid=        2  9.81477764E-04  9.60684817E-04
 SEAICE_LSR (ipass=        1) iters,dV,Resid=        2  2.04279420E-03  2.70772202E-03
 SEAICE_LSR: ipass, FLEX_FACTOR, LSR_ERRORfu, LSR_ERRORfv, residIni =     2   0.293219 0.712206E-03 0.889706E-03 0.388670E-02
 SEAICE_LSR: Residual Initial ipass,Uice,Vice=         2  2.42892055E-03  3.03426916E-03
 SEAICE_LSR (ipass=        2) iters,dU,Resid=        2  2.48099763E-04  2.46762181E-04
 SEAICE_LSR (ipass=        2) iters,dV,Resid=        2  5.49589775E-04  7.60734637E-04
(PID.TID 0000.0001) SOLVE_FOR_PRESSURE: putPmEinXvector =    F
(PID.TID 0000.0001) SOLVE_FOR_PRESSURE: zeroPsNH=    F , zeroMeanPnh=    F
(PID.TID 0000.0001) SOLVE_FOR_PRESSURE: oldFreeSurfTerm =    F
 cg2d: Sum(rhs),rhsMax =   2.21842192447112E+03  2.11143391418752E+01
(PID.TID 0000.0001)      cg2d_init_res =   3.55444601606885E+00
(PID.TID 0000.0001)      cg2d_iters(min,last) =      -1      71
(PID.TID 0000.0001)      cg2d_last_res =   5.03099403335462E-07
(PID.TID 0000.0001) // =======================================================
(PID.TID 0000.0001) // Begin MONITOR dynamic field statistics
(PID.TID 0000.0001) // =======================================================
(PID.TID 0000.0001) %MON time_tsnumber                =                 72001
(PID.TID 0000.0001) %MON time_secondsf                =   6.2208864000000E+09
(PID.TID 0000.0001) %MON dynstat_eta_max              =  -2.2055258935475E+00
(PID.TID 0000.0001) %MON dynstat_eta_min              =  -8.3420794630976E+00
(PID.TID 0000.0001) %MON dynstat_eta_mean             =  -3.2995543890760E+00
(PID.TID 0000.0001) %MON dynstat_eta_sd               =   8.8139133654745E-01
(PID.TID 0000.0001) %MON dynstat_eta_del2             =   2.4122334995463E-03
(PID.TID 0000.0001) %MON dynstat_uvel_max             =   2.1326441195956E-01
(PID.TID 0000.0001) %MON dynstat_uvel_min             =  -2.9097531433701E-01
(PID.TID 0000.0001) %MON dynstat_uvel_mean            =  -5.2806977882216E-04
(PID.TID 0000.0001) %MON dynstat_uvel_sd              =   1.4786862614632E-02
(PID.TID 0000.0001) %MON dynstat_uvel_del2            =   6.8194759542036E-05
(PID.TID 0000.0001) %MON dynstat_vvel_max             =   2.2153990276297E-01
(PID.TID 0000.0001) %MON dynstat_vvel_min             =  -2.0069995221721E-01
(PID.TID 0000.0001) %MON dynstat_vvel_mean            =  -4.0066670376240E-04
(PID.TID 0000.0001) %MON dynstat_vvel_sd              =   1.5243493590333E-02
(PID.TID 0000.0001) %MON dynstat_vvel_del2            =   6.3232355201865E-05
(PID.TID 0000.0001) %MON dynstat_wvel_max             =   1.0161531760251E-04
(PID.TID 0000.0001) %MON dynstat_wvel_min             =  -2.1401474493663E-04
(PID.TID 0000.0001) %MON dynstat_wvel_mean            =  -3.5875738446438E-09
(PID.TID 0000.0001) %MON dynstat_wvel_sd              =   5.3689962995073E-06
(PID.TID 0000.0001) %MON dynstat_wvel_del2            =   4.9483371715950E-08
(PID.TID 0000.0001) %MON dynstat_theta_max            =   3.1201881308194E+01
(PID.TID 0000.0001) %MON dynstat_theta_min            =  -6.6457712524490E+00
(PID.TID 0000.0001) %MON dynstat_theta_mean           =   3.0528141596337E+00
(PID.TID 0000.0001) %MON dynstat_theta_sd             =   4.9949131309244E+00
(PID.TID 0000.0001) %MON dynstat_theta_del2           =   2.9641363275506E-03
(PID.TID 0000.0001) %MON dynstat_salt_max             =   5.9498382429909E+01
(PID.TID 0000.0001) %MON dynstat_salt_min             =   1.7775652958476E+01
(PID.TID 0000.0001) %MON dynstat_salt_mean            =   3.4752516938949E+01
(PID.TID 0000.0001) %MON dynstat_salt_sd              =   4.8912678241023E-01
(PID.TID 0000.0001) %MON dynstat_salt_del2            =   1.3626705056104E-03
(PID.TID 0000.0001) %MON forcing_qnet_max             =   6.5323623045347E+02
(PID.TID 0000.0001) %MON forcing_qnet_min             =  -2.5382123855603E+02
(PID.TID 0000.0001) %MON forcing_qnet_mean            =  -1.2387526261421E+01
(PID.TID 0000.0001) %MON forcing_qnet_sd              =   1.2431739184741E+02
(PID.TID 0000.0001) %MON forcing_qnet_del2            =   1.0643316216721E+00
(PID.TID 0000.0001) %MON forcing_qsw_max              =  -0.0000000000000E+00
(PID.TID 0000.0001) %MON forcing_qsw_min              =  -3.0191527312954E+02
(PID.TID 0000.0001) %MON forcing_qsw_mean             =  -1.8251285745053E+02
(PID.TID 0000.0001) %MON forcing_qsw_sd               =   7.9876440302799E+01
(PID.TID 0000.0001) %MON forcing_qsw_del2             =   3.2607942429601E-01
(PID.TID 0000.0001) %MON forcing_empmr_max            =   6.7568231637012E-04
(PID.TID 0000.0001) %MON forcing_empmr_min            =  -8.1908868150146E-04
(PID.TID 0000.0001) %MON forcing_empmr_mean           =  -4.4623936847021E-06
(PID.TID 0000.0001) %MON forcing_empmr_sd             =   7.7840088230872E-05
(PID.TID 0000.0001) %MON forcing_empmr_del2           =   1.6322240827502E-06
(PID.TID 0000.0001) %MON forcing_fu_max               =   2.4760613571392E-01
(PID.TID 0000.0001) %MON forcing_fu_min               =  -2.0293190974520E-01
(PID.TID 0000.0001) %MON forcing_fu_mean              =  -4.2991927743386E-03
(PID.TID 0000.0001) %MON forcing_fu_sd                =   6.3742939165565E-02
(PID.TID 0000.0001) %MON forcing_fu_del2              =   2.1163668447891E-04
(PID.TID 0000.0001) %MON forcing_fv_max               =   2.5281098043587E-01
(PID.TID 0000.0001) %MON forcing_fv_min               =  -3.2691992401999E-01
(PID.TID 0000.0001) %MON forcing_fv_mean              =  -1.3937115723652E-02
(PID.TID 0000.0001) %MON forcing_fv_sd                =   7.4775634687660E-02
(PID.TID 0000.0001) %MON forcing_fv_del2              =   2.3326692529052E-04
(PID.TID 0000.0001) %MON trAdv_CFL_u_max              =   8.2063344436707E-02
(PID.TID 0000.0001) %MON trAdv_CFL_v_max              =   8.8689220440557E-02
(PID.TID 0000.0001) %MON trAdv_CFL_w_max              =   7.7198343951485E-02
(PID.TID 0000.0001) %MON advcfl_uvel_max              =   8.4056271430140E-02
(PID.TID 0000.0001) %MON advcfl_vvel_max              =   8.3467986707523E-02
(PID.TID 0000.0001) %MON advcfl_wvel_max              =   6.9776882877452E-02
(PID.TID 0000.0001) %MON advcfl_W_hf_max              =   7.7198343951485E-02
(PID.TID 0000.0001) %MON pe_b_mean                    =   1.4346620277569E-02
(PID.TID 0000.0001) %MON ke_max                       =   4.1803195391662E-02
(PID.TID 0000.0001) %MON ke_mean                      =   2.0844905724700E-04
(PID.TID 0000.0001) %MON ke_vol                       =   1.3386016457284E+18
(PID.TID 0000.0001) %MON vort_r_min                   =  -1.2305263640976E-06
(PID.TID 0000.0001) %MON vort_r_max                   =   1.2981524895121E-06
(PID.TID 0000.0001) %MON vort_a_mean                  =  -2.0549865324846E-05
(PID.TID 0000.0001) %MON vort_a_sd                    =   7.5259723579264E-05
(PID.TID 0000.0001) %MON vort_p_mean                  =  -2.4806339598239E-05
(PID.TID 0000.0001) %MON vort_p_sd                    =   1.2827603785479E-04
(PID.TID 0000.0001) %MON surfExpan_theta_mean         =   3.7812207122872E-08
(PID.TID 0000.0001) %MON surfExpan_salt_mean          =   2.4783919231846E-08
(PID.TID 0000.0001) // =======================================================
(PID.TID 0000.0001) // End MONITOR dynamic field statistics
(PID.TID 0000.0001) // =======================================================
(PID.TID 0000.0001) // =======================================================
(PID.TID 0000.0001) // Begin MONITOR SEAICE statistics
(PID.TID 0000.0001) // =======================================================
(PID.TID 0000.0001) %MON seaice_tsnumber              =                 72001
(PID.TID 0000.0001) %MON seaice_time_sec              =   6.2208864000000E+09
(PID.TID 0000.0001) %MON seaice_uice_max              =   2.3956168958811E-01
(PID.TID 0000.0001) %MON seaice_uice_min              =  -2.9693993746438E-01
(PID.TID 0000.0001) %MON seaice_uice_mean             =  -3.4710309288998E-04
(PID.TID 0000.0001) %MON seaice_uice_sd               =   2.8334693214019E-02
(PID.TID 0000.0001) %MON seaice_uice_del2             =   5.3329498478957E-04
(PID.TID 0000.0001) %MON seaice_vice_max              =   2.6314533803038E-01
(PID.TID 0000.0001) %MON seaice_vice_min              =  -2.4838445015699E-01
(PID.TID 0000.0001) %MON seaice_vice_mean             =   9.7700681989138E-04
(PID.TID 0000.0001) %MON seaice_vice_sd               =   2.3962640792637E-02
(PID.TID 0000.0001) %MON seaice_vice_del2             =   4.6136982669434E-04
(PID.TID 0000.0001) // =======================================================
(PID.TID 0000.0001) // End MONITOR SEAICE statistics
(PID.TID 0000.0001) // =======================================================
(PID.TID 0000.0001) // =======================================================
(PID.TID 0000.0001) // Begin MONITOR Therm.SeaIce statistics
(PID.TID 0000.0001) // =======================================================
(PID.TID 0000.0001) %MON thSI_time_sec                =   6.2208864000000E+09
(PID.TID 0000.0001) %MON thSI_Ice_Area_G              =   1.7144499352658E+13
(PID.TID 0000.0001) %MON thSI_Ice_Area_S              =   4.9085269800555E+12
(PID.TID 0000.0001) %MON thSI_Ice_Area_N              =   1.2235972372603E+13
(PID.TID 0000.0001) %MON thSI_IceH_ave_G              =   1.7777524623316E+00
(PID.TID 0000.0001) %MON thSI_IceH_ave_S              =   1.1599487434094E+00
(PID.TID 0000.0001) %MON thSI_IceH_ave_N              =   2.0255877900328E+00
(PID.TID 0000.0001) %MON thSI_IceH_max_S              =   2.1240873380458E+00
(PID.TID 0000.0001) %MON thSI_IceH_max_N              =   5.2020577085521E+00
(PID.TID 0000.0001) %MON thSI_SnwH_ave_G              =   2.1051141578840E-01
(PID.TID 0000.0001) %MON thSI_SnwH_ave_S              =   1.9012185960187E-01
(PID.TID 0000.0001) %MON thSI_SnwH_ave_N              =   2.1869079733694E-01
(PID.TID 0000.0001) %MON thSI_SnwH_max_S              =   5.8543283318806E-01
(PID.TID 0000.0001) %MON thSI_SnwH_max_N              =   4.1990725063043E-01
(PID.TID 0000.0001) %MON thSI_Tsrf_ave_G              =  -1.8584575715869E+01
(PID.TID 0000.0001) %MON thSI_Tsrf_ave_S              =  -2.1101233614080E-02
(PID.TID 0000.0001) %MON thSI_Tsrf_ave_N              =  -2.6031414640067E+01
(PID.TID 0000.0001) %MON thSI_Tsrf_min_S              =  -5.2847701519931E+00
(PID.TID 0000.0001) %MON thSI_Tsrf_min_N              =  -3.2730169957740E+01
(PID.TID 0000.0001) %MON thSI_Tsrf_max_S              =   2.8690230356111E+00
(PID.TID 0000.0001) %MON thSI_Tsrf_max_N              =   6.9349678876526E+00
(PID.TID 0000.0001) %MON thSI_Tic1_ave_G              =  -1.0671407301077E+01
(PID.TID 0000.0001) %MON thSI_Tic1_ave_S              =  -1.3896737534760E+00
(PID.TID 0000.0001) %MON thSI_Tic1_ave_N              =  -1.2803615062612E+01
(PID.TID 0000.0001) %MON thSI_Tic1_min_S              =  -2.5874611765829E+00
(PID.TID 0000.0001) %MON thSI_Tic1_min_N              =  -1.8466911534478E+01
(PID.TID 0000.0001) %MON thSI_Tic1_max_S              =   0.0000000000000E+00
(PID.TID 0000.0001) %MON thSI_Tic1_max_N              =   0.0000000000000E+00
(PID.TID 0000.0001) %MON thSI_Tic2_ave_G              =  -4.6098077384602E+00
(PID.TID 0000.0001) %MON thSI_Tic2_ave_S              =  -1.6555525001562E+00
(PID.TID 0000.0001) %MON thSI_Tic2_ave_N              =  -5.2884617761312E+00
(PID.TID 0000.0001) %MON thSI_Tic2_min_S              =  -2.0938379652885E+00
(PID.TID 0000.0001) %MON thSI_Tic2_min_N              =  -7.7415578478584E+00
(PID.TID 0000.0001) %MON thSI_Tic2_max_S              =   0.0000000000000E+00
(PID.TID 0000.0001) %MON thSI_Tic2_max_N              =   0.0000000000000E+00
(PID.TID 0000.0001) %MON thSI_TotEnerg_G              =  -9.9396491797324E+21
(PID.TID 0000.0001) // =======================================================
(PID.TID 0000.0001) // End MONITOR Therm.SeaIce statistics
(PID.TID 0000.0001) // =======================================================
 EXTERNAL_FIELDS_LOAD,     72001 : iP,iLd,i0,i1=   12    1   12    1 ; Wght=  0.4666666667  0.5333333333
 SEAICE_LSR: ipass, FLEX_FACTOR, LSR_ERRORfu, LSR_ERRORfv, residIni =     1   0.291660 0.848938E-03 0.678862E-03 0.372691E-02
 SEAICE_LSR: Residual Initial ipass,Uice,Vice=         1  2.91071122E-03  2.32758052E-03
 SEAICE_LSR (ipass=        1) iters,dU,Resid=        2  4.50096153E-04  4.53335689E-04
 SEAICE_LSR (ipass=        1) iters,dV,Resid=        2  3.21906690E-04  4.87771472E-04
 SEAICE_LSR: ipass, FLEX_FACTOR, LSR_ERRORfu, LSR_ERRORfv, residIni =     2   0.261414 0.207962E-03 0.330900E-03 0.149504E-02
 SEAICE_LSR: Residual Initial ipass,Uice,Vice=         2  7.95525749E-04  1.26580747E-03
 SEAICE_LSR (ipass=        2) iters,dU,Resid=        2  1.86187618E-04  1.87212043E-04
 SEAICE_LSR (ipass=        2) iters,dV,Resid=        2  1.72992578E-04  2.74721971E-04
 SEAICE_LSR: ipass, FLEX_FACTOR, LSR_ERRORfu, LSR_ERRORfv, residIni =     3   0.249675 0.147256E-03 0.197926E-03 0.988071E-03
 SEAICE_LSR: Residual Initial ipass,Uice,Vice=         3  5.89792841E-04  7.92735536E-04
 SEAICE_LSR (ipass=        3) iters,dU,Resid=        2  8.65450503E-05  8.62306562E-05
 SEAICE_LSR (ipass=        3) iters,dV,Resid=        2  1.17837452E-04  1.87952540E-04
 SEAICE_LSR: ipass, FLEX_FACTOR, LSR_ERRORfu, LSR_ERRORfv, residIni =     4   0.243074 0.118199E-03 0.144860E-03 0.769166E-03
 SEAICE_LSR: Residual Initial ipass,Uice,Vice=         4  4.86269641E-04  5.95951646E-04
 SEAICE_LSR (ipass=        4) iters,dU,Resid=        2  4.91673272E-05  4.84660783E-05
 SEAICE_LSR (ipass=        4) iters,dV,Resid=        2  9.09850017E-05  1.38520115E-04
 SEAICE_LSR: ipass, FLEX_FACTOR, LSR_ERRORfu, LSR_ERRORfv, residIni =     5   0.239302 0.105423E-03 0.118407E-03 0.662501E-03
 SEAICE_LSR: Residual Initial ipass,Uice,Vice=         5  4.40542248E-04  4.94802431E-04
 SEAICE_LSR (ipass=        5) iters,dU,Resid=        2  3.59870189E-05  3.52241244E-05
 SEAICE_LSR (ipass=        5) iters,dV,Resid=        2  7.33419984E-05  1.10810151E-04
 SEAICE_LSR: ipass, FLEX_FACTOR, LSR_ERRORfu, LSR_ERRORfv, residIni =     6   0.236310 0.940124E-04 0.101833E-03 0.586492E-03
 SEAICE_LSR: Residual Initial ipass,Uice,Vice=         6  3.97835715E-04  4.30929039E-04
 SEAICE_LSR (ipass=        6) iters,dU,Resid=        2  2.99942899E-05  2.93276143E-05
 SEAICE_LSR (ipass=        6) iters,dV,Resid=        2  5.92085134E-05  9.08155858E-05
 SEAICE_LSR: ipass, FLEX_FACTOR, LSR_ERRORfu, LSR_ERRORfv, residIni =     7   0.233586 0.839840E-04 0.888841E-04 0.523512E-03
 SEAICE_LSR: Residual Initial ipass,Uice,Vice=         7  3.59541686E-04  3.80519205E-04
 SEAICE_LSR (ipass=        7) iters,dU,Resid=        2  2.62848826E-05  2.57548504E-05
 SEAICE_LSR (ipass=        7) iters,dV,Resid=        2  4.76381091E-05  7.49802395E-05
 SEAICE_LSR: ipass, FLEX_FACTOR, LSR_ERRORfu, LSR_ERRORfv, residIni =     8   0.231000 0.751342E-04 0.779947E-04 0.468819E-03
 SEAICE_LSR: Residual Initial ipass,Uice,Vice=         8  3.25255592E-04  3.37638618E-04
 SEAICE_LSR (ipass=        8) iters,dU,Resid=        2  2.34340233E-05  2.30190136E-05
 SEAICE_LSR (ipass=        8) iters,dV,Resid=        2  3.83494938E-05  6.22524236E-05
 SEAICE_LSR: ipass, FLEX_FACTOR, LSR_ERRORfu, LSR_ERRORfv, residIni =     9   0.228511 0.672542E-04 0.686527E-04 0.420574E-03
 SEAICE_LSR: Residual Initial ipass,Uice,Vice=         9  2.94315070E-04  3.00435015E-04
 SEAICE_LSR (ipass=        9) iters,dU,Resid=        2  2.08999827E-05  2.05695059E-05
 SEAICE_LSR (ipass=        9) iters,dV,Resid=        2  3.10343865E-05  5.19545076E-05
 SEAICE_LSR: ipass, FLEX_FACTOR, LSR_ERRORfu, LSR_ERRORfv, residIni =    10   0.226097 0.601965E-04 0.605651E-04 0.377677E-03
 SEAICE_LSR: Residual Initial ipass,Uice,Vice=        10  2.66241870E-04  2.67872274E-04
 SEAICE_LSR (ipass=       10) iters,dU,Resid=        2  1.85510149E-05  1.82833238E-05
 SEAICE_LSR (ipass=       10) iters,dV,Resid=        2  2.53273412E-05  4.35332416E-05
 cg2d: Sum(rhs),rhsMax =   2.21834637962727E+03  2.11702400849614E+01
(PID.TID 0000.0001)      cg2d_init_res =   2.72574996618672E+00
(PID.TID 0000.0001)      cg2d_iters(min,last) =      -1      68
(PID.TID 0000.0001)      cg2d_last_res =   5.79091353397245E-07
(PID.TID 0000.0001) // =======================================================
(PID.TID 0000.0001) // Begin MONITOR dynamic field statistics
(PID.TID 0000.0001) // =======================================================
(PID.TID 0000.0001) %MON time_tsnumber                =                 72002
(PID.TID 0000.0001) %MON time_secondsf                =   6.2209728000000E+09
(PID.TID 0000.0001) %MON dynstat_eta_max              =  -2.2069364111619E+00
(PID.TID 0000.0001) %MON dynstat_eta_min              =  -8.3467283018235E+00
(PID.TID 0000.0001) %MON dynstat_eta_mean             =  -3.2994420279789E+00
(PID.TID 0000.0001) %MON dynstat_eta_sd               =   8.8048019304358E-01
(PID.TID 0000.0001) %MON dynstat_eta_del2             =   2.3815602343919E-03
(PID.TID 0000.0001) %MON dynstat_uvel_max             =   2.1356926956479E-01
(PID.TID 0000.0001) %MON dynstat_uvel_min             =  -2.9064677458853E-01
(PID.TID 0000.0001) %MON dynstat_uvel_mean            =  -5.2754774809483E-04
(PID.TID 0000.0001) %MON dynstat_uvel_sd              =   1.4783059809004E-02
(PID.TID 0000.0001) %MON dynstat_uvel_del2            =   6.8143291376347E-05
(PID.TID 0000.0001) %MON dynstat_vvel_max             =   2.2102878540321E-01
(PID.TID 0000.0001) %MON dynstat_vvel_min             =  -2.0077069610868E-01
(PID.TID 0000.0001) %MON dynstat_vvel_mean            =  -4.0012893092652E-04
(PID.TID 0000.0001) %MON dynstat_vvel_sd              =   1.5244414464596E-02
(PID.TID 0000.0001) %MON dynstat_vvel_del2            =   6.3167812165170E-05
(PID.TID 0000.0001) %MON dynstat_wvel_max             =   1.0204383731841E-04
(PID.TID 0000.0001) %MON dynstat_wvel_min             =  -2.1402006196428E-04
(PID.TID 0000.0001) %MON dynstat_wvel_mean            =  -1.9717674969254E-09
(PID.TID 0000.0001) %MON dynstat_wvel_sd              =   5.3660387295065E-06
(PID.TID 0000.0001) %MON dynstat_wvel_del2            =   4.9442355936293E-08
(PID.TID 0000.0001) %MON dynstat_theta_max            =   3.1212998932934E+01
(PID.TID 0000.0001) %MON dynstat_theta_min            =  -6.6476142720770E+00
(PID.TID 0000.0001) %MON dynstat_theta_mean           =   3.0528902114143E+00
(PID.TID 0000.0001) %MON dynstat_theta_sd             =   4.9949652593897E+00
(PID.TID 0000.0001) %MON dynstat_theta_del2           =   2.9649668515677E-03
(PID.TID 0000.0001) %MON dynstat_salt_max             =   5.9515103685883E+01
(PID.TID 0000.0001) %MON dynstat_salt_min             =   1.7775713926784E+01
(PID.TID 0000.0001) %MON dynstat_salt_mean            =   3.4752516033102E+01
(PID.TID 0000.0001) %MON dynstat_salt_sd              =   4.8912180174362E-01
(PID.TID 0000.0001) %MON dynstat_salt_del2            =   1.3625668541703E-03
(PID.TID 0000.0001) %MON forcing_qnet_max             =   6.5640620822228E+02
(PID.TID 0000.0001) %MON forcing_qnet_min             =  -2.5387839762097E+02
(PID.TID 0000.0001) %MON forcing_qnet_mean            =  -1.3447098332514E+01
(PID.TID 0000.0001) %MON forcing_qnet_sd              =   1.2429073755687E+02
(PID.TID 0000.0001) %MON forcing_qnet_del2            =   1.0035595769725E+00
(PID.TID 0000.0001) %MON forcing_qsw_max              =  -0.0000000000000E+00
(PID.TID 0000.0001) %MON forcing_qsw_min              =  -3.0190327619373E+02
(PID.TID 0000.0001) %MON forcing_qsw_mean             =  -1.8266506917429E+02
(PID.TID 0000.0001) %MON forcing_qsw_sd               =   7.9780422626823E+01
(PID.TID 0000.0001) %MON forcing_qsw_del2             =   3.1210403156074E-01
(PID.TID 0000.0001) %MON forcing_empmr_max            =   7.1007112064969E-04
(PID.TID 0000.0001) %MON forcing_empmr_min            =  -5.3278633289061E-04
(PID.TID 0000.0001) %MON forcing_empmr_mean           =  -1.3459923079777E-06
(PID.TID 0000.0001) %MON forcing_empmr_sd             =   6.3397031412021E-05
(PID.TID 0000.0001) %MON forcing_empmr_del2           =   1.1691462122032E-06
(PID.TID 0000.0001) %MON forcing_fu_max               =   2.4755808644372E-01
(PID.TID 0000.0001) %MON forcing_fu_min               =  -2.0607770640355E-01
(PID.TID 0000.0001) %MON forcing_fu_mean              =  -4.3770772912567E-03
(PID.TID 0000.0001) %MON forcing_fu_sd                =   6.3781777565213E-02
(PID.TID 0000.0001) %MON forcing_fu_del2              =   2.1126681053457E-04
(PID.TID 0000.0001) %MON forcing_fv_max               =   2.5549422200851E-01
(PID.TID 0000.0001) %MON forcing_fv_min               =  -3.2770782795392E-01
(PID.TID 0000.0001) %MON forcing_fv_mean              =  -1.3949649435014E-02
(PID.TID 0000.0001) %MON forcing_fv_sd                =   7.4758390609545E-02
(PID.TID 0000.0001) %MON forcing_fv_del2              =   2.3076775373990E-04
(PID.TID 0000.0001) %MON trAdv_CFL_u_max              =   8.1970687967586E-02
(PID.TID 0000.0001) %MON trAdv_CFL_v_max              =   8.8846523848537E-02
(PID.TID 0000.0001) %MON trAdv_CFL_w_max              =   7.7200340496780E-02
(PID.TID 0000.0001) %MON advcfl_uvel_max              =   8.4193124455149E-02
(PID.TID 0000.0001) %MON advcfl_vvel_max              =   8.3616106956746E-02
(PID.TID 0000.0001) %MON advcfl_wvel_max              =   6.9778616429108E-02
(PID.TID 0000.0001) %MON advcfl_W_hf_max              =   7.7200340496780E-02
(PID.TID 0000.0001) %MON pe_b_mean                    =   1.4346135099440E-02
(PID.TID 0000.0001) %MON ke_max                       =   4.1687283595121E-02
(PID.TID 0000.0001) %MON ke_mean                      =   2.0840996374456E-04
(PID.TID 0000.0001) %MON ke_vol                       =   1.3386017812809E+18
(PID.TID 0000.0001) %MON vort_r_min                   =  -1.2350939109157E-06
(PID.TID 0000.0001) %MON vort_r_max                   =   1.2951571613537E-06
(PID.TID 0000.0001) %MON vort_a_mean                  =  -2.0549865324846E-05
(PID.TID 0000.0001) %MON vort_a_sd                    =   7.5259723450370E-05
(PID.TID 0000.0001) %MON vort_p_mean                  =  -2.4806336719688E-05
(PID.TID 0000.0001) %MON vort_p_sd                    =   1.2827601038871E-04
(PID.TID 0000.0001) %MON surfExpan_theta_mean         =   3.8095194513117E-08
(PID.TID 0000.0001) %MON surfExpan_salt_mean          =   2.2157212293286E-08
(PID.TID 0000.0001) // =======================================================
(PID.TID 0000.0001) // End MONITOR dynamic field statistics
(PID.TID 0000.0001) // =======================================================
(PID.TID 0000.0001) // =======================================================
(PID.TID 0000.0001) // Begin MONITOR SEAICE statistics
(PID.TID 0000.0001) // =======================================================
(PID.TID 0000.0001) %MON seaice_tsnumber              =                 72002
(PID.TID 0000.0001) %MON seaice_time_sec              =   6.2209728000000E+09
(PID.TID 0000.0001) %MON seaice_uice_max              =   2.5326080253603E-01
(PID.TID 0000.0001) %MON seaice_uice_min              =  -3.0630343460147E-01
(PID.TID 0000.0001) %MON seaice_uice_mean             =  -4.2275703438648E-04
(PID.TID 0000.0001) %MON seaice_uice_sd               =   2.9645179848224E-02
(PID.TID 0000.0001) %MON seaice_uice_del2             =   5.6114999199924E-04
(PID.TID 0000.0001) %MON seaice_vice_max              =   3.6608761374290E-01
(PID.TID 0000.0001) %MON seaice_vice_min              =  -1.9202983598549E-01
(PID.TID 0000.0001) %MON seaice_vice_mean             =   1.2979231079169E-03
(PID.TID 0000.0001) %MON seaice_vice_sd               =   2.5370941784237E-02
(PID.TID 0000.0001) %MON seaice_vice_del2             =   5.1256532051751E-04
(PID.TID 0000.0001) // =======================================================
(PID.TID 0000.0001) // End MONITOR SEAICE statistics
(PID.TID 0000.0001) // =======================================================
(PID.TID 0000.0001) // =======================================================
(PID.TID 0000.0001) // Begin MONITOR Therm.SeaIce statistics
(PID.TID 0000.0001) // =======================================================
(PID.TID 0000.0001) %MON thSI_time_sec                =   6.2209728000000E+09
(PID.TID 0000.0001) %MON thSI_Ice_Area_G              =   1.7043564660230E+13
(PID.TID 0000.0001) %MON thSI_Ice_Area_S              =   4.7377958826707E+12
(PID.TID 0000.0001) %MON thSI_Ice_Area_N              =   1.2305768777560E+13
(PID.TID 0000.0001) %MON thSI_IceH_ave_G              =   1.7854580332999E+00
(PID.TID 0000.0001) %MON thSI_IceH_ave_S              =   1.1613190057445E+00
(PID.TID 0000.0001) %MON thSI_IceH_ave_N              =   2.0257553579464E+00
(PID.TID 0000.0001) %MON thSI_IceH_max_S              =   2.1225710611175E+00
(PID.TID 0000.0001) %MON thSI_IceH_max_N              =   5.2031091922606E+00
(PID.TID 0000.0001) %MON thSI_SnwH_ave_G              =   2.0969206228439E-01
(PID.TID 0000.0001) %MON thSI_SnwH_ave_S              =   1.8296850891785E-01
(PID.TID 0000.0001) %MON thSI_SnwH_ave_N              =   2.1998079299264E-01
(PID.TID 0000.0001) %MON thSI_SnwH_max_S              =   5.8123338861653E-01
(PID.TID 0000.0001) %MON thSI_SnwH_max_N              =   4.2207985412168E-01
(PID.TID 0000.0001) %MON thSI_Tsrf_ave_G              =  -1.8820577981659E+01
(PID.TID 0000.0001) %MON thSI_Tsrf_ave_S              =  -1.9997585196964E-02
(PID.TID 0000.0001) %MON thSI_Tsrf_ave_N              =  -2.6058915870521E+01
(PID.TID 0000.0001) %MON thSI_Tsrf_min_S              =  -5.3436176963528E+00
(PID.TID 0000.0001) %MON thSI_Tsrf_min_N              =  -3.2727059862989E+01
(PID.TID 0000.0001) %MON thSI_Tsrf_max_S              =   3.3214014380655E+00
(PID.TID 0000.0001) %MON thSI_Tsrf_max_N              =   6.9262438686796E+00
(PID.TID 0000.0001) %MON thSI_Tic1_ave_G              =  -1.0746544187755E+01
(PID.TID 0000.0001) %MON thSI_Tic1_ave_S              =  -1.3427828364423E+00
(PID.TID 0000.0001) %MON thSI_Tic1_ave_N              =  -1.2822096730607E+01
(PID.TID 0000.0001) %MON thSI_Tic1_min_S              =  -2.5735223711402E+00
(PID.TID 0000.0001) %MON thSI_Tic1_min_N              =  -1.8510089866153E+01
(PID.TID 0000.0001) %MON thSI_Tic1_max_S              =   0.0000000000000E+00
(PID.TID 0000.0001) %MON thSI_Tic1_max_N              =   0.0000000000000E+00
(PID.TID 0000.0001) %MON thSI_Tic2_ave_G              =  -4.6385800496154E+00
(PID.TID 0000.0001) %MON thSI_Tic2_ave_S              =  -1.6216523554439E+00
(PID.TID 0000.0001) %MON thSI_Tic2_ave_N              =  -5.3044616807315E+00
(PID.TID 0000.0001) %MON thSI_Tic2_min_S              =  -2.0788476547769E+00
(PID.TID 0000.0001) %MON thSI_Tic2_min_N              =  -7.7687014723913E+00
(PID.TID 0000.0001) %MON thSI_Tic2_max_S              =   0.0000000000000E+00
(PID.TID 0000.0001) %MON thSI_Tic2_max_N              =   0.0000000000000E+00
(PID.TID 0000.0001) %MON thSI_TotEnerg_G              =  -9.9225985755025E+21
(PID.TID 0000.0001) // =======================================================
(PID.TID 0000.0001) // End MONITOR Therm.SeaIce statistics
(PID.TID 0000.0001) // =======================================================
 EXTERNAL_FIELDS_LOAD,     72002 : iP,iLd,i0,i1=   12    1   12    1 ; Wght=  0.4333333333  0.5666666667
 SEAICE_LSR: ipass, FLEX_FACTOR, LSR_ERRORfu, LSR_ERRORfv, residIni =     1   0.302774 0.125444E-02 0.836472E-03 0.497978E-02
 SEAICE_LSR: Residual Initial ipass,Uice,Vice=         1  4.14315826E-03  2.76269087E-03
 SEAICE_LSR (ipass=        1) iters,dU,Resid=        2  9.48302796E-05  9.07525415E-05
 SEAICE_LSR (ipass=        1) iters,dV,Resid=        2  1.16918711E-04  1.62110522E-04
 SEAICE_LSR: ipass, FLEX_FACTOR, LSR_ERRORfu, LSR_ERRORfv, residIni =     2   0.229173 0.640485E-04 0.757912E-04 0.432991E-03
 SEAICE_LSR: Residual Initial ipass,Uice,Vice=         2  2.79476996E-04  3.30716647E-04
 SEAICE_LSR (ipass=        2) iters,dU,Resid=        2  4.91079103E-05  4.74502445E-05
 SEAICE_LSR (ipass=        2) iters,dV,Resid=        2  6.58980532E-05  8.67206659E-05
 SEAICE_LSR: ipass, FLEX_FACTOR, LSR_ERRORfu, LSR_ERRORfv, residIni =     3   0.222273 0.495078E-04 0.501299E-04 0.316979E-03
 SEAICE_LSR: Residual Initial ipass,Uice,Vice=         3  2.22734118E-04  2.25532710E-04
 SEAICE_LSR (ipass=        3) iters,dU,Resid=        2  3.74527183E-05  3.69822491E-05
 SEAICE_LSR (ipass=        3) iters,dV,Resid=        2  4.48231036E-05  5.76376446E-05
 SEAICE_LSR: ipass, FLEX_FACTOR, LSR_ERRORfu, LSR_ERRORfv, residIni =     4   0.218947 0.415863E-04 0.422690E-04 0.270826E-03
 SEAICE_LSR: Residual Initial ipass,Uice,Vice=         4  1.89937304E-04  1.93055433E-04
 SEAICE_LSR (ipass=        4) iters,dU,Resid=        2  2.77263891E-05  2.72838789E-05
 SEAICE_LSR (ipass=        4) iters,dV,Resid=        2  3.34153953E-05  4.25058044E-05
 SEAICE_LSR: ipass, FLEX_FACTOR, LSR_ERRORfu, LSR_ERRORfv, residIni =     5   0.216506 0.367311E-04 0.369193E-04 0.240542E-03
 SEAICE_LSR: Residual Initial ipass,Uice,Vice=         5  1.69653984E-04  1.70523155E-04
 SEAICE_LSR (ipass=        5) iters,dU,Resid=        2  2.05768923E-05  2.00753839E-05
 SEAICE_LSR (ipass=        5) iters,dV,Resid=        2  2.59555703E-05  3.28162670E-05
 SEAICE_LSR: ipass, FLEX_FACTOR, LSR_ERRORfu, LSR_ERRORfv, residIni =     6   0.214291 0.326969E-04 0.326129E-04 0.215506E-03
 SEAICE_LSR: Residual Initial ipass,Uice,Vice=         6  1.52581379E-04  1.52189286E-04
 SEAICE_LSR (ipass=        6) iters,dU,Resid=        2  1.59155209E-05  1.53977536E-05
 SEAICE_LSR (ipass=        6) iters,dV,Resid=        2  2.05946405E-05  2.58480894E-05
 SEAICE_LSR: ipass, FLEX_FACTOR, LSR_ERRORfu, LSR_ERRORfv, residIni =     7   0.212184 0.292851E-04 0.288347E-04 0.193691E-03
 SEAICE_LSR: Residual Initial ipass,Uice,Vice=         7  1.38017301E-04  1.35894993E-04
 SEAICE_LSR (ipass=        7) iters,dU,Resid=        2  1.29485674E-05  1.24632714E-05
 SEAICE_LSR (ipass=        7) iters,dV,Resid=        2  1.65718118E-05  2.06223565E-05
 SEAICE_LSR: ipass, FLEX_FACTOR, LSR_ERRORfu, LSR_ERRORfv, residIni =     8   0.210152 0.262560E-04 0.255693E-04 0.174394E-03
 SEAICE_LSR: Residual Initial ipass,Uice,Vice=         8  1.24938242E-04  1.21670891E-04
 SEAICE_LSR (ipass=        8) iters,dU,Resid=        2  1.09313143E-05  1.05013340E-05
 SEAICE_LSR (ipass=        8) iters,dV,Resid=        2  1.34903633E-05  1.66363090E-05
 SEAICE_LSR: ipass, FLEX_FACTOR, LSR_ERRORfu, LSR_ERRORfv, residIni =     9   0.208185 0.235604E-04 0.227285E-04 0.157247E-03
 SEAICE_LSR: Residual Initial ipass,Uice,Vice=         9  1.13170438E-04  1.09174648E-04
 SEAICE_LSR (ipass=        9) iters,dU,Resid=        2  9.42364631E-06  9.05192565E-06
 SEAICE_LSR (ipass=        9) iters,dV,Resid=        2  1.11084489E-05  1.35799350E-05
 SEAICE_LSR: ipass, FLEX_FACTOR, LSR_ERRORfu, LSR_ERRORfv, residIni =    10   0.206279 0.211527E-04 0.202526E-04 0.141967E-03
 SEAICE_LSR: Residual Initial ipass,Uice,Vice=        10  1.02544344E-04  9.81805475E-05
 SEAICE_LSR (ipass=       10) iters,dU,Resid=        2  8.21343399E-06  7.89449431E-06
 SEAICE_LSR (ipass=       10) iters,dV,Resid=        2  9.25857778E-06  1.12363100E-05
 cg2d: Sum(rhs),rhsMax =   2.21826620239873E+03  2.12229638979906E+01
(PID.TID 0000.0001)      cg2d_init_res =   2.72321771863983E+00
(PID.TID 0000.0001)      cg2d_iters(min,last) =      -1      69
(PID.TID 0000.0001)      cg2d_last_res =   5.12284150483415E-07
(PID.TID 0000.0001) // =======================================================
(PID.TID 0000.0001) // Begin MONITOR dynamic field statistics
(PID.TID 0000.0001) // =======================================================
(PID.TID 0000.0001) %MON time_tsnumber                =                 72003
(PID.TID 0000.0001) %MON time_secondsf                =   6.2210592000000E+09
(PID.TID 0000.0001) %MON dynstat_eta_max              =  -2.2083853394651E+00
(PID.TID 0000.0001) %MON dynstat_eta_min              =  -8.3490644300732E+00
(PID.TID 0000.0001) %MON dynstat_eta_mean             =  -3.2993227769368E+00
(PID.TID 0000.0001) %MON dynstat_eta_sd               =   8.7953078606325E-01
(PID.TID 0000.0001) %MON dynstat_eta_del2             =   2.3558620751733E-03
(PID.TID 0000.0001) %MON dynstat_uvel_max             =   2.1380738923633E-01
(PID.TID 0000.0001) %MON dynstat_uvel_min             =  -2.9030220774754E-01
(PID.TID 0000.0001) %MON dynstat_uvel_mean            =  -5.2705249508674E-04
(PID.TID 0000.0001) %MON dynstat_uvel_sd              =   1.4779004361614E-02
(PID.TID 0000.0001) %MON dynstat_uvel_del2            =   6.8092541217940E-05
(PID.TID 0000.0001) %MON dynstat_vvel_max             =   2.2046031923766E-01
(PID.TID 0000.0001) %MON dynstat_vvel_min             =  -2.0083549481977E-01
(PID.TID 0000.0001) %MON dynstat_vvel_mean            =  -3.9944149589938E-04
(PID.TID 0000.0001) %MON dynstat_vvel_sd              =   1.5245262432295E-02
(PID.TID 0000.0001) %MON dynstat_vvel_del2            =   6.3106454698957E-05
(PID.TID 0000.0001) %MON dynstat_wvel_max             =   1.0252348984043E-04
(PID.TID 0000.0001) %MON dynstat_wvel_min             =  -2.1410013881110E-04
(PID.TID 0000.0001) %MON dynstat_wvel_mean            =  -1.8685412356734E-09
(PID.TID 0000.0001) %MON dynstat_wvel_sd              =   5.3636888456576E-06
(PID.TID 0000.0001) %MON dynstat_wvel_del2            =   4.9402713900178E-08
(PID.TID 0000.0001) %MON dynstat_theta_max            =   3.1223505473395E+01
(PID.TID 0000.0001) %MON dynstat_theta_min            =  -6.6492398540294E+00
(PID.TID 0000.0001) %MON dynstat_theta_mean           =   3.0529660316040E+00
(PID.TID 0000.0001) %MON dynstat_theta_sd             =   4.9950218817439E+00
(PID.TID 0000.0001) %MON dynstat_theta_del2           =   2.9686656319360E-03
(PID.TID 0000.0001) %MON dynstat_salt_max             =   5.9526302584013E+01
(PID.TID 0000.0001) %MON dynstat_salt_min             =   1.7775763062460E+01
(PID.TID 0000.0001) %MON dynstat_salt_mean            =   3.4752515025302E+01
(PID.TID 0000.0001) %MON dynstat_salt_sd              =   4.8911724975406E-01
(PID.TID 0000.0001) %MON dynstat_salt_del2            =   1.3634411756525E-03
(PID.TID 0000.0001) %MON forcing_qnet_max             =   6.5821259293160E+02
(PID.TID 0000.0001) %MON forcing_qnet_min             =  -2.5393069771952E+02
(PID.TID 0000.0001) %MON forcing_qnet_mean            =  -1.3363620102620E+01
(PID.TID 0000.0001) %MON forcing_qnet_sd              =   1.2425378631278E+02
(PID.TID 0000.0001) %MON forcing_qnet_del2            =   9.9734608488864E-01
(PID.TID 0000.0001) %MON forcing_qsw_max              =  -0.0000000000000E+00
(PID.TID 0000.0001) %MON forcing_qsw_min              =  -3.0189127925792E+02
(PID.TID 0000.0001) %MON forcing_qsw_mean             =  -1.8279860976012E+02
(PID.TID 0000.0001) %MON forcing_qsw_sd               =   7.9703944170540E+01
(PID.TID 0000.0001) %MON forcing_qsw_del2             =   3.0438943779101E-01
(PID.TID 0000.0001) %MON forcing_empmr_max            =   7.1604480997381E-04
(PID.TID 0000.0001) %MON forcing_empmr_min            =  -4.5754512351707E-04
(PID.TID 0000.0001) %MON forcing_empmr_mean           =  -1.4285281087124E-06
(PID.TID 0000.0001) %MON forcing_empmr_sd             =   6.2762066207011E-05
(PID.TID 0000.0001) %MON forcing_empmr_del2           =   1.1525384181235E-06
(PID.TID 0000.0001) %MON forcing_fu_max               =   2.4751003717351E-01
(PID.TID 0000.0001) %MON forcing_fu_min               =  -2.0922350306190E-01
(PID.TID 0000.0001) %MON forcing_fu_mean              =  -4.3445244937845E-03
(PID.TID 0000.0001) %MON forcing_fu_sd                =   6.3804517668733E-02
(PID.TID 0000.0001) %MON forcing_fu_del2              =   2.1203431904094E-04
(PID.TID 0000.0001) %MON forcing_fv_max               =   2.5817746358114E-01
(PID.TID 0000.0001) %MON forcing_fv_min               =  -3.2849573188785E-01
(PID.TID 0000.0001) %MON forcing_fv_mean              =  -1.3957029785342E-02
(PID.TID 0000.0001) %MON forcing_fv_sd                =   7.4798364911105E-02
(PID.TID 0000.0001) %MON forcing_fv_del2              =   2.3085112838285E-04
(PID.TID 0000.0001) %MON trAdv_CFL_u_max              =   8.1873511295495E-02
(PID.TID 0000.0001) %MON trAdv_CFL_v_max              =   8.8985611109226E-02
(PID.TID 0000.0001) %MON trAdv_CFL_w_max              =   7.7229731767449E-02
(PID.TID 0000.0001) %MON advcfl_uvel_max              =   8.4332223178308E-02
(PID.TID 0000.0001) %MON advcfl_vvel_max              =   8.3747084554865E-02
(PID.TID 0000.0001) %MON advcfl_wvel_max              =   6.9804724502941E-02
(PID.TID 0000.0001) %MON advcfl_W_hf_max              =   7.7229731767449E-02
(PID.TID 0000.0001) %MON pe_b_mean                    =   1.4345624470904E-02
(PID.TID 0000.0001) %MON ke_max                       =   4.1567899104738E-02
(PID.TID 0000.0001) %MON ke_mean                      =   2.0836638301722E-04
(PID.TID 0000.0001) %MON ke_vol                       =   1.3386018221676E+18
(PID.TID 0000.0001) %MON vort_r_min                   =  -1.2399691844118E-06
(PID.TID 0000.0001) %MON vort_r_max                   =   1.2922177491040E-06
(PID.TID 0000.0001) %MON vort_a_mean                  =  -2.0549865324846E-05
(PID.TID 0000.0001) %MON vort_a_sd                    =   7.5259723330332E-05
(PID.TID 0000.0001) %MON vort_p_mean                  =  -2.4806335588899E-05
(PID.TID 0000.0001) %MON vort_p_sd                    =   1.2827600234753E-04
(PID.TID 0000.0001) %MON surfExpan_theta_mean         =   3.9015133417873E-08
(PID.TID 0000.0001) %MON surfExpan_salt_mean          =   2.1753761517433E-08
(PID.TID 0000.0001) // =======================================================
(PID.TID 0000.0001) // End MONITOR dynamic field statistics
(PID.TID 0000.0001) // =======================================================
(PID.TID 0000.0001) // =======================================================
(PID.TID 0000.0001) // Begin MONITOR SEAICE statistics
(PID.TID 0000.0001) // =======================================================
(PID.TID 0000.0001) %MON seaice_tsnumber              =                 72003
(PID.TID 0000.0001) %MON seaice_time_sec              =   6.2210592000000E+09
(PID.TID 0000.0001) %MON seaice_uice_max              =   2.5432344057031E-01
(PID.TID 0000.0001) %MON seaice_uice_min              =  -3.0635399756541E-01
(PID.TID 0000.0001) %MON seaice_uice_mean             =  -4.4682018484430E-04
(PID.TID 0000.0001) %MON seaice_uice_sd               =   2.9231087206228E-02
(PID.TID 0000.0001) %MON seaice_uice_del2             =   5.6655555685662E-04
(PID.TID 0000.0001) %MON seaice_vice_max              =   3.1757569799699E-01
(PID.TID 0000.0001) %MON seaice_vice_min              =  -2.4536496663757E-01
(PID.TID 0000.0001) %MON seaice_vice_mean             =   1.2291009670335E-03
(PID.TID 0000.0001) %MON seaice_vice_sd               =   2.5872574547298E-02
(PID.TID 0000.0001) %MON seaice_vice_del2             =   4.8914506982982E-04
(PID.TID 0000.0001) // =======================================================
(PID.TID 0000.0001) // End MONITOR SEAICE statistics
(PID.TID 0000.0001) // =======================================================
(PID.TID 0000.0001) // =======================================================
(PID.TID 0000.0001) // Begin MONITOR Therm.SeaIce statistics
(PID.TID 0000.0001) // =======================================================
(PID.TID 0000.0001) %MON thSI_time_sec                =   6.2210592000000E+09
(PID.TID 0000.0001) %MON thSI_Ice_Area_G              =   1.6919975664668E+13
(PID.TID 0000.0001) %MON thSI_Ice_Area_S              =   4.5514574605949E+12
(PID.TID 0000.0001) %MON thSI_Ice_Area_N              =   1.2368518204074E+13
(PID.TID 0000.0001) %MON thSI_IceH_ave_G              =   1.7953019071556E+00
(PID.TID 0000.0001) %MON thSI_IceH_ave_S              =   1.1668227066325E+00
(PID.TID 0000.0001) %MON thSI_IceH_ave_N              =   2.0265742632173E+00
(PID.TID 0000.0001) %MON thSI_IceH_max_S              =   2.1210228793156E+00
(PID.TID 0000.0001) %MON thSI_IceH_max_N              =   5.2041916319770E+00
(PID.TID 0000.0001) %MON thSI_SnwH_ave_G              =   2.0938247005360E-01
(PID.TID 0000.0001) %MON thSI_SnwH_ave_S              =   1.7683879796318E-01
(PID.TID 0000.0001) %MON thSI_SnwH_ave_N              =   2.2135812766166E-01
(PID.TID 0000.0001) %MON thSI_SnwH_max_S              =   5.7689901560998E-01
(PID.TID 0000.0001) %MON thSI_SnwH_max_N              =   4.2460559523736E-01
(PID.TID 0000.0001) %MON thSI_Tsrf_ave_G              =  -1.9066439593270E+01
(PID.TID 0000.0001) %MON thSI_Tsrf_ave_S              =  -1.8739185677854E-02
(PID.TID 0000.0001) %MON thSI_Tsrf_ave_N              =  -2.6075751193650E+01
(PID.TID 0000.0001) %MON thSI_Tsrf_min_S              =  -5.4035069390021E+00
(PID.TID 0000.0001) %MON thSI_Tsrf_min_N              =  -3.2725605081374E+01
(PID.TID 0000.0001) %MON thSI_Tsrf_max_S              =   3.3690674173185E+00
(PID.TID 0000.0001) %MON thSI_Tsrf_max_N              =   6.9032367140625E+00
(PID.TID 0000.0001) %MON thSI_Tic1_ave_G              =  -1.0818001347890E+01
(PID.TID 0000.0001) %MON thSI_Tic1_ave_S              =  -1.2938836131778E+00
(PID.TID 0000.0001) %MON thSI_Tic1_ave_N              =  -1.2835902646722E+01
(PID.TID 0000.0001) %MON thSI_Tic1_min_S              =  -2.5611758785592E+00
(PID.TID 0000.0001) %MON thSI_Tic1_min_N              =  -1.8541754641419E+01
(PID.TID 0000.0001) %MON thSI_Tic1_max_S              =   0.0000000000000E+00
(PID.TID 0000.0001) %MON thSI_Tic1_max_N              =   0.0000000000000E+00
(PID.TID 0000.0001) %MON thSI_Tic2_ave_G              =  -4.6680391974093E+00
(PID.TID 0000.0001) %MON thSI_Tic2_ave_S              =  -1.6115805965220E+00
(PID.TID 0000.0001) %MON thSI_Tic2_ave_N              =  -5.3156195772778E+00
(PID.TID 0000.0001) %MON thSI_Tic2_min_S              =  -2.0642645313805E+00
(PID.TID 0000.0001) %MON thSI_Tic2_min_N              =  -7.7980378572157E+00
(PID.TID 0000.0001) %MON thSI_Tic2_max_S              =   0.0000000000000E+00
(PID.TID 0000.0001) %MON thSI_Tic2_max_N              =   0.0000000000000E+00
(PID.TID 0000.0001) %MON thSI_TotEnerg_G              =  -9.9039474629948E+21
(PID.TID 0000.0001) // =======================================================
(PID.TID 0000.0001) // End MONITOR Therm.SeaIce statistics
(PID.TID 0000.0001) // =======================================================
 EXTERNAL_FIELDS_LOAD,     72003 : iP,iLd,i0,i1=   12    1   12    1 ; Wght=  0.4000000000  0.6000000000
 SEAICE_LSR: ipass, FLEX_FACTOR, LSR_ERRORfu, LSR_ERRORfv, residIni =     1   0.336738 0.209482E-02 0.294128E-02 0.107235E-01
 SEAICE_LSR: Residual Initial ipass,Uice,Vice=         1  6.22090702E-03  8.73460838E-03
 SEAICE_LSR (ipass=        1) iters,dU,Resid=        2  8.17397550E-05  7.74411447E-05
 SEAICE_LSR (ipass=        1) iters,dV,Resid=        2  9.57762610E-05  1.20143067E-04
 SEAICE_LSR: ipass, FLEX_FACTOR, LSR_ERRORfu, LSR_ERRORfv, residIni =     2   0.222200 0.499654E-04 0.492991E-04 0.315897E-03
 SEAICE_LSR: Residual Initial ipass,Uice,Vice=         2  2.24867026E-04  2.21868539E-04
 SEAICE_LSR (ipass=        2) iters,dU,Resid=        4  2.37702400E-05  2.37274705E-05
 SEAICE_LSR (ipass=        2) iters,dV,Resid=        4  3.36947831E-05  4.58338662E-05
 SEAICE_LSR: ipass, FLEX_FACTOR, LSR_ERRORfu, LSR_ERRORfv, residIni =     3   0.212236 0.307733E-04 0.274197E-04 0.194204E-03
 SEAICE_LSR: Residual Initial ipass,Uice,Vice=         3  1.44995705E-04  1.29194779E-04
 SEAICE_LSR (ipass=        3) iters,dU,Resid=        4  1.45208607E-05  1.45639960E-05
 SEAICE_LSR (ipass=        3) iters,dV,Resid=        4  1.77126966E-05  2.49949225E-05
 SEAICE_LSR: ipass, FLEX_FACTOR, LSR_ERRORfu, LSR_ERRORfv, residIni =     4   0.208272 0.237853E-04 0.227321E-04 0.157973E-03
 SEAICE_LSR: Residual Initial ipass,Uice,Vice=         4  1.14203411E-04  1.09146268E-04
 SEAICE_LSR (ipass=        4) iters,dU,Resid=        2  1.67335261E-05  1.62817807E-05
 SEAICE_LSR (ipass=        4) iters,dV,Resid=        2  1.70130278E-05  2.13030785E-05
 SEAICE_LSR: ipass, FLEX_FACTOR, LSR_ERRORfu, LSR_ERRORfv, residIni =     5   0.205971 0.207030E-04 0.199591E-04 0.139618E-03
 SEAICE_LSR: Residual Initial ipass,Uice,Vice=         5  1.00514432E-04  9.69026445E-05
 SEAICE_LSR (ipass=        5) iters,dU,Resid=        2  1.52953101E-05  1.47302693E-05
 SEAICE_LSR (ipass=        5) iters,dV,Resid=        2  1.49150017E-05  1.86404062E-05
 SEAICE_LSR: ipass, FLEX_FACTOR, LSR_ERRORfu, LSR_ERRORfv, residIni =     6   0.203818 0.179941E-04 0.177664E-04 0.124067E-03
 SEAICE_LSR: Residual Initial ipass,Uice,Vice=         6  8.82853188E-05  8.71679911E-05
 SEAICE_LSR (ipass=        6) iters,dU,Resid=        2  1.30972443E-05  1.25767392E-05
 SEAICE_LSR (ipass=        6) iters,dV,Resid=        2  1.29403411E-05  1.63172947E-05
 SEAICE_LSR: ipass, FLEX_FACTOR, LSR_ERRORfu, LSR_ERRORfv, residIni =     7   0.201861 0.159434E-04 0.158008E-04 0.111199E-03
 SEAICE_LSR: Residual Initial ipass,Uice,Vice=         7  7.89822154E-05  7.82757243E-05
 SEAICE_LSR (ipass=        7) iters,dU,Resid=        2  1.11844110E-05  1.07391784E-05
 SEAICE_LSR (ipass=        7) iters,dV,Resid=        2  1.12197894E-05  1.44136990E-05
 cg2d: Sum(rhs),rhsMax =   2.21819675861144E+03  2.12650374091099E+01
(PID.TID 0000.0001)      cg2d_init_res =   2.67778689152557E+00
(PID.TID 0000.0001)      cg2d_iters(min,last) =      -1      69
(PID.TID 0000.0001)      cg2d_last_res =   5.34683033354461E-07
(PID.TID 0000.0001) // =======================================================
(PID.TID 0000.0001) // Begin MONITOR dynamic field statistics
(PID.TID 0000.0001) // =======================================================
(PID.TID 0000.0001) %MON time_tsnumber                =                 72004
(PID.TID 0000.0001) %MON time_secondsf                =   6.2211456000000E+09
(PID.TID 0000.0001) %MON dynstat_eta_max              =  -2.2098476400086E+00
(PID.TID 0000.0001) %MON dynstat_eta_min              =  -8.3491885464688E+00
(PID.TID 0000.0001) %MON dynstat_eta_mean             =  -3.2992194902038E+00
(PID.TID 0000.0001) %MON dynstat_eta_sd               =   8.7859653081605E-01
(PID.TID 0000.0001) %MON dynstat_eta_del2             =   2.3340765714943E-03
(PID.TID 0000.0001) %MON dynstat_uvel_max             =   2.1397616350417E-01
(PID.TID 0000.0001) %MON dynstat_uvel_min             =  -2.8994169397467E-01
(PID.TID 0000.0001) %MON dynstat_uvel_mean            =  -5.2658739809954E-04
(PID.TID 0000.0001) %MON dynstat_uvel_sd              =   1.4774767489242E-02
(PID.TID 0000.0001) %MON dynstat_uvel_del2            =   6.8042370539814E-05
(PID.TID 0000.0001) %MON dynstat_vvel_max             =   2.1983972512575E-01
(PID.TID 0000.0001) %MON dynstat_vvel_min             =  -2.0089467846922E-01
(PID.TID 0000.0001) %MON dynstat_vvel_mean            =  -3.9861614790837E-04
(PID.TID 0000.0001) %MON dynstat_vvel_sd              =   1.5245972799586E-02
(PID.TID 0000.0001) %MON dynstat_vvel_del2            =   6.3047240941463E-05
(PID.TID 0000.0001) %MON dynstat_wvel_max             =   1.0304985679369E-04
(PID.TID 0000.0001) %MON dynstat_wvel_min             =  -2.1403106005043E-04
(PID.TID 0000.0001) %MON dynstat_wvel_mean            =  -1.7354142549768E-09
(PID.TID 0000.0001) %MON dynstat_wvel_sd              =   5.3610622379188E-06
(PID.TID 0000.0001) %MON dynstat_wvel_del2            =   4.9351984336083E-08
(PID.TID 0000.0001) %MON dynstat_theta_max            =   3.1233409956953E+01
(PID.TID 0000.0001) %MON dynstat_theta_min            =  -6.6508700014737E+00
(PID.TID 0000.0001) %MON dynstat_theta_mean           =   3.0530419218289E+00
(PID.TID 0000.0001) %MON dynstat_theta_sd             =   4.9950813266526E+00
(PID.TID 0000.0001) %MON dynstat_theta_del2           =   2.9720309293461E-03
(PID.TID 0000.0001) %MON dynstat_salt_max             =   5.9534034865252E+01
(PID.TID 0000.0001) %MON dynstat_salt_min             =   1.7775800621162E+01
(PID.TID 0000.0001) %MON dynstat_salt_mean            =   3.4752514201522E+01
(PID.TID 0000.0001) %MON dynstat_salt_sd              =   4.8911146316436E-01
(PID.TID 0000.0001) %MON dynstat_salt_del2            =   1.3641324452481E-03
(PID.TID 0000.0001) %MON forcing_qnet_max             =   6.5998082847995E+02
(PID.TID 0000.0001) %MON forcing_qnet_min             =  -2.5397712351580E+02
(PID.TID 0000.0001) %MON forcing_qnet_mean            =  -1.3377162861829E+01
(PID.TID 0000.0001) %MON forcing_qnet_sd              =   1.2419978063568E+02
(PID.TID 0000.0001) %MON forcing_qnet_del2            =   9.9402323221986E-01
(PID.TID 0000.0001) %MON forcing_qsw_max              =  -0.0000000000000E+00
(PID.TID 0000.0001) %MON forcing_qsw_min              =  -3.0187928232211E+02
(PID.TID 0000.0001) %MON forcing_qsw_mean             =  -1.8294156176102E+02
(PID.TID 0000.0001) %MON forcing_qsw_sd               =   7.9640879688997E+01
(PID.TID 0000.0001) %MON forcing_qsw_del2             =   2.9938309113674E-01
(PID.TID 0000.0001) %MON forcing_empmr_max            =   7.1199110351992E-04
(PID.TID 0000.0001) %MON forcing_empmr_min            =  -4.3134767583132E-04
(PID.TID 0000.0001) %MON forcing_empmr_mean           =  -1.2372889897744E-06
(PID.TID 0000.0001) %MON forcing_empmr_sd             =   6.1719102756765E-05
(PID.TID 0000.0001) %MON forcing_empmr_del2           =   1.1263507029131E-06
(PID.TID 0000.0001) %MON forcing_fu_max               =   2.4746198790331E-01
(PID.TID 0000.0001) %MON forcing_fu_min               =  -2.1236929972025E-01
(PID.TID 0000.0001) %MON forcing_fu_mean              =  -4.3103863045173E-03
(PID.TID 0000.0001) %MON forcing_fu_sd                =   6.3841821571722E-02
(PID.TID 0000.0001) %MON forcing_fu_del2              =   2.1262593913960E-04
(PID.TID 0000.0001) %MON forcing_fv_max               =   2.6086070515377E-01
(PID.TID 0000.0001) %MON forcing_fv_min               =  -3.2928363582178E-01
(PID.TID 0000.0001) %MON forcing_fv_mean              =  -1.3966613383707E-02
(PID.TID 0000.0001) %MON forcing_fv_sd                =   7.4850110997795E-02
(PID.TID 0000.0001) %MON forcing_fv_del2              =   2.3108067314310E-04
(PID.TID 0000.0001) %MON trAdv_CFL_u_max              =   8.1771836999550E-02
(PID.TID 0000.0001) %MON trAdv_CFL_v_max              =   8.9104700652309E-02
(PID.TID 0000.0001) %MON trAdv_CFL_w_max              =   7.7204896328253E-02
(PID.TID 0000.0001) %MON advcfl_uvel_max              =   8.4471708902201E-02
(PID.TID 0000.0001) %MON advcfl_vvel_max              =   8.3859242659187E-02
(PID.TID 0000.0001) %MON advcfl_wvel_max              =   6.9782202220214E-02
(PID.TID 0000.0001) %MON advcfl_W_hf_max              =   7.7204896328253E-02
(PID.TID 0000.0001) %MON pe_b_mean                    =   1.4345092179422E-02
(PID.TID 0000.0001) %MON ke_max                       =   4.1445077334608E-02
(PID.TID 0000.0001) %MON ke_mean                      =   2.0831837546000E-04
(PID.TID 0000.0001) %MON ke_vol                       =   1.3386018655615E+18
(PID.TID 0000.0001) %MON vort_r_min                   =  -1.2451220192239E-06
(PID.TID 0000.0001) %MON vort_r_max                   =   1.2893373152998E-06
(PID.TID 0000.0001) %MON vort_a_mean                  =  -2.0549865324846E-05
(PID.TID 0000.0001) %MON vort_a_sd                    =   7.5259723205882E-05
(PID.TID 0000.0001) %MON vort_p_mean                  =  -2.4806334414670E-05
(PID.TID 0000.0001) %MON vort_p_sd                    =   1.2827598832759E-04
(PID.TID 0000.0001) %MON surfExpan_theta_mean         =   3.9858453924540E-08
(PID.TID 0000.0001) %MON surfExpan_salt_mean          =   2.0827044455612E-08
(PID.TID 0000.0001) // =======================================================
(PID.TID 0000.0001) // End MONITOR dynamic field statistics
(PID.TID 0000.0001) // =======================================================
(PID.TID 0000.0001) // =======================================================
(PID.TID 0000.0001) // Begin MONITOR SEAICE statistics
(PID.TID 0000.0001) // =======================================================
(PID.TID 0000.0001) %MON seaice_tsnumber              =                 72004
(PID.TID 0000.0001) %MON seaice_time_sec              =   6.2211456000000E+09
(PID.TID 0000.0001) %MON seaice_uice_max              =   2.5728245295972E-01
(PID.TID 0000.0001) %MON seaice_uice_min              =  -3.0140106248460E-01
(PID.TID 0000.0001) %MON seaice_uice_mean             =  -3.9217141410527E-04
(PID.TID 0000.0001) %MON seaice_uice_sd               =   2.8460876561945E-02
(PID.TID 0000.0001) %MON seaice_uice_del2             =   5.3720527869383E-04
(PID.TID 0000.0001) %MON seaice_vice_max              =   3.5440311976758E-01
(PID.TID 0000.0001) %MON seaice_vice_min              =  -1.9426012626175E-01
(PID.TID 0000.0001) %MON seaice_vice_mean             =   1.2763852431763E-03
(PID.TID 0000.0001) %MON seaice_vice_sd               =   2.4229727200353E-02
(PID.TID 0000.0001) %MON seaice_vice_del2             =   4.6737731059376E-04
(PID.TID 0000.0001) // =======================================================
(PID.TID 0000.0001) // End MONITOR SEAICE statistics
(PID.TID 0000.0001) // =======================================================
(PID.TID 0000.0001) // =======================================================
(PID.TID 0000.0001) // Begin MONITOR Therm.SeaIce statistics
(PID.TID 0000.0001) // =======================================================
(PID.TID 0000.0001) %MON thSI_time_sec                =   6.2211456000000E+09
(PID.TID 0000.0001) %MON thSI_Ice_Area_G              =   1.6806241828956E+13
(PID.TID 0000.0001) %MON thSI_Ice_Area_S              =   4.3642317377730E+12
(PID.TID 0000.0001) %MON thSI_Ice_Area_N              =   1.2442010091183E+13
(PID.TID 0000.0001) %MON thSI_IceH_ave_G              =   1.8043814148087E+00
(PID.TID 0000.0001) %MON thSI_IceH_ave_S              =   1.1743647347305E+00
(PID.TID 0000.0001) %MON thSI_IceH_ave_N              =   2.0253697254092E+00
(PID.TID 0000.0001) %MON thSI_IceH_max_S              =   2.1194388374959E+00
(PID.TID 0000.0001) %MON thSI_IceH_max_N              =   5.2052950244661E+00
(PID.TID 0000.0001) %MON thSI_SnwH_ave_G              =   2.0937403908994E-01
(PID.TID 0000.0001) %MON thSI_SnwH_ave_S              =   1.7179890155681E-01
(PID.TID 0000.0001) %MON thSI_SnwH_ave_N              =   2.2255411261275E-01
(PID.TID 0000.0001) %MON thSI_SnwH_max_S              =   5.7257600774546E-01
(PID.TID 0000.0001) %MON thSI_SnwH_max_N              =   4.2744448362528E-01
(PID.TID 0000.0001) %MON thSI_Tsrf_ave_G              =  -1.9306168083599E+01
(PID.TID 0000.0001) %MON thSI_Tsrf_ave_S              =  -2.1677172990522E-02
(PID.TID 0000.0001) %MON thSI_Tsrf_ave_N              =  -2.6070508142969E+01
(PID.TID 0000.0001) %MON thSI_Tsrf_min_S              =  -5.4285024622110E+00
(PID.TID 0000.0001) %MON thSI_Tsrf_min_N              =  -3.2724222794072E+01
(PID.TID 0000.0001) %MON thSI_Tsrf_max_S              =   3.4162636138580E+00
(PID.TID 0000.0001) %MON thSI_Tsrf_max_N              =   6.8589349866375E+00
(PID.TID 0000.0001) %MON thSI_Tic1_ave_G              =  -1.0886679897757E+01
(PID.TID 0000.0001) %MON thSI_Tic1_ave_S              =  -1.2443260613048E+00
(PID.TID 0000.0001) %MON thSI_Tic1_ave_N              =  -1.2847776582977E+01
(PID.TID 0000.0001) %MON thSI_Tic1_min_S              =  -2.5523818977548E+00
(PID.TID 0000.0001) %MON thSI_Tic1_min_N              =  -1.8567039246445E+01
(PID.TID 0000.0001) %MON thSI_Tic1_max_S              =   0.0000000000000E+00
(PID.TID 0000.0001) %MON thSI_Tic1_max_N              =   0.0000000000000E+00
(PID.TID 0000.0001) %MON thSI_Tic2_ave_G              =  -4.6953180270785E+00
(PID.TID 0000.0001) %MON thSI_Tic2_ave_S              =  -1.5978657517143E+00
(PID.TID 0000.0001) %MON thSI_Tic2_ave_N              =  -5.3252890375676E+00
(PID.TID 0000.0001) %MON thSI_Tic2_min_S              =  -2.0500382186331E+00
(PID.TID 0000.0001) %MON thSI_Tic2_min_N              =  -7.8263693924305E+00
(PID.TID 0000.0001) %MON thSI_Tic2_max_S              =   0.0000000000000E+00
(PID.TID 0000.0001) %MON thSI_Tic2_max_N              =   0.0000000000000E+00
(PID.TID 0000.0001) %MON thSI_TotEnerg_G              =  -9.8865136004114E+21
(PID.TID 0000.0001) // =======================================================
(PID.TID 0000.0001) // End MONITOR Therm.SeaIce statistics
(PID.TID 0000.0001) // =======================================================
 EXTERNAL_FIELDS_LOAD,     72004 : iP,iLd,i0,i1=   12    1   12    1 ; Wght=  0.3666666667  0.6333333333
 SEAICE_LSR: ipass, FLEX_FACTOR, LSR_ERRORfu, LSR_ERRORfv, residIni =     1   0.309412 0.561138E-03 0.172489E-02 0.586230E-02
 SEAICE_LSR: Residual Initial ipass,Uice,Vice=         1  1.81356052E-03  5.57472065E-03
 SEAICE_LSR (ipass=        1) iters,dU,Resid=        2  7.72493029E-05  7.21420050E-05
 SEAICE_LSR (ipass=        1) iters,dV,Resid=        2  9.36776724E-05  1.17914009E-04
 SEAICE_LSR: ipass, FLEX_FACTOR, LSR_ERRORfu, LSR_ERRORfv, residIni =     2   0.221006 0.460211E-04 0.473287E-04 0.298701E-03
 SEAICE_LSR: Residual Initial ipass,Uice,Vice=         2  2.08234408E-04  2.14151000E-04
 SEAICE_LSR (ipass=        2) iters,dU,Resid=        4  2.39551590E-05  2.39459679E-05
 SEAICE_LSR (ipass=        2) iters,dV,Resid=        4  3.44230958E-05  4.75031145E-05
 SEAICE_LSR: ipass, FLEX_FACTOR, LSR_ERRORfu, LSR_ERRORfv, residIni =     3   0.210867 0.282103E-04 0.257075E-04 0.180999E-03
 SEAICE_LSR: Residual Initial ipass,Uice,Vice=         3  1.33782500E-04  1.21913150E-04
 SEAICE_LSR (ipass=        3) iters,dU,Resid=        4  1.42611426E-05  1.42986242E-05
 SEAICE_LSR (ipass=        3) iters,dV,Resid=        4  1.82442641E-05  2.62582887E-05
 SEAICE_LSR: ipass, FLEX_FACTOR, LSR_ERRORfu, LSR_ERRORfv, residIni =     4   0.206528 0.209167E-04 0.211115E-04 0.143897E-03
 SEAICE_LSR: Residual Initial ipass,Uice,Vice=         4  1.01277819E-04  1.02220987E-04
 SEAICE_LSR (ipass=        4) iters,dU,Resid=        2  1.73086008E-05  1.68016311E-05
 SEAICE_LSR (ipass=        4) iters,dV,Resid=        2  1.73978061E-05  2.23910083E-05
 SEAICE_LSR: ipass, FLEX_FACTOR, LSR_ERRORfu, LSR_ERRORfv, residIni =     5   0.204239 0.183808E-04 0.182982E-04 0.126989E-03
 SEAICE_LSR: Residual Initial ipass,Uice,Vice=         5  8.99967939E-05  8.95924477E-05
 SEAICE_LSR (ipass=        5) iters,dU,Resid=        2  1.60683716E-05  1.54622319E-05
 SEAICE_LSR (ipass=        5) iters,dV,Resid=        2  1.52984334E-05  1.98559477E-05
 SEAICE_LSR: ipass, FLEX_FACTOR, LSR_ERRORfu, LSR_ERRORfv, residIni =     6   0.202139 0.159720E-04 0.163167E-04 0.112956E-03
 SEAICE_LSR: Residual Initial ipass,Uice,Vice=         6  7.90148185E-05  8.07204101E-05
 SEAICE_LSR (ipass=        6) iters,dU,Resid=        2  1.39446393E-05  1.33956366E-05
 SEAICE_LSR (ipass=        6) iters,dV,Resid=        2  1.33878263E-05  1.77162999E-05
 SEAICE_LSR: ipass, FLEX_FACTOR, LSR_ERRORfu, LSR_ERRORfv, residIni =     7   0.200242 0.141368E-04 0.145750E-04 0.101401E-03
 SEAICE_LSR: Residual Initial ipass,Uice,Vice=         7  7.05986885E-05  7.27869320E-05
 SEAICE_LSR (ipass=        7) iters,dU,Resid=        2  1.20453250E-05  1.15806595E-05
 SEAICE_LSR (ipass=        7) iters,dV,Resid=        2  1.17212038E-05  1.59186345E-05
 SEAICE_LSR: ipass, FLEX_FACTOR, LSR_ERRORfu, LSR_ERRORfv, residIni =     8   0.198492 0.126326E-04 0.130832E-04 0.916240E-04
 SEAICE_LSR: Residual Initial ipass,Uice,Vice=         8  6.36428019E-05  6.59132412E-05
 SEAICE_LSR (ipass=        8) iters,dU,Resid=        2  1.04197118E-05  1.00275918E-05
 SEAICE_LSR (ipass=        8) iters,dV,Resid=        2  1.03028162E-05  1.43819711E-05
 SEAICE_LSR: ipass, FLEX_FACTOR, LSR_ERRORfu, LSR_ERRORfv, residIni =     9   0.196849 0.113599E-04 0.117899E-04 0.831713E-04
 SEAICE_LSR: Residual Initial ipass,Uice,Vice=         9  5.77086877E-05  5.98929726E-05
 SEAICE_LSR (ipass=        9) iters,dU,Resid=        2  9.02306153E-06  8.68892716E-06
 SEAICE_LSR (ipass=        9) iters,dV,Resid=        2  9.10513393E-06  1.30508572E-05
 SEAICE_LSR: ipass, FLEX_FACTOR, LSR_ERRORfu, LSR_ERRORfv, residIni =    10   0.195288 0.102561E-04 0.106594E-04 0.757457E-04
 SEAICE_LSR: Residual Initial ipass,Uice,Vice=        10  5.25176497E-05  5.45830385E-05
 SEAICE_LSR (ipass=       10) iters,dU,Resid=        2  7.82493392E-06  7.53722714E-06
 SEAICE_LSR (ipass=       10) iters,dV,Resid=        2  8.08896952E-06  1.18825068E-05
 cg2d: Sum(rhs),rhsMax =   2.21814938028250E+03  2.12899458599799E+01
(PID.TID 0000.0001)      cg2d_init_res =   2.60987011414799E+00
(PID.TID 0000.0001)      cg2d_iters(min,last) =      -1      69
(PID.TID 0000.0001)      cg2d_last_res =   5.42895613028142E-07
(PID.TID 0000.0001) // =======================================================
(PID.TID 0000.0001) // Begin MONITOR dynamic field statistics
(PID.TID 0000.0001) // =======================================================
(PID.TID 0000.0001) %MON time_tsnumber                =                 72005
(PID.TID 0000.0001) %MON time_secondsf                =   6.2212320000000E+09
(PID.TID 0000.0001) %MON dynstat_eta_max              =  -2.2112971846931E+00
(PID.TID 0000.0001) %MON dynstat_eta_min              =  -8.3483095425217E+00
(PID.TID 0000.0001) %MON dynstat_eta_mean             =  -3.2991490223764E+00
(PID.TID 0000.0001) %MON dynstat_eta_sd               =   8.7773143303231E-01
(PID.TID 0000.0001) %MON dynstat_eta_del2             =   2.3130610883292E-03
(PID.TID 0000.0001) %MON dynstat_uvel_max             =   2.1407402729887E-01
(PID.TID 0000.0001) %MON dynstat_uvel_min             =  -2.8956499099351E-01
(PID.TID 0000.0001) %MON dynstat_uvel_mean            =  -5.2613418898739E-04
(PID.TID 0000.0001) %MON dynstat_uvel_sd              =   1.4770409717706E-02
(PID.TID 0000.0001) %MON dynstat_uvel_del2            =   6.7992946232086E-05
(PID.TID 0000.0001) %MON dynstat_vvel_max             =   2.1917276310740E-01
(PID.TID 0000.0001) %MON dynstat_vvel_min             =  -2.0094856369416E-01
(PID.TID 0000.0001) %MON dynstat_vvel_mean            =  -3.9769873368242E-04
(PID.TID 0000.0001) %MON dynstat_vvel_sd              =   1.5246496149859E-02
(PID.TID 0000.0001) %MON dynstat_vvel_del2            =   6.2991040325563E-05
(PID.TID 0000.0001) %MON dynstat_wvel_max             =   1.0361463978570E-04
(PID.TID 0000.0001) %MON dynstat_wvel_min             =  -2.1389298402517E-04
(PID.TID 0000.0001) %MON dynstat_wvel_mean            =  -1.5060997931267E-09
(PID.TID 0000.0001) %MON dynstat_wvel_sd              =   5.3590351195111E-06
(PID.TID 0000.0001) %MON dynstat_wvel_del2            =   4.9306413085425E-08
(PID.TID 0000.0001) %MON dynstat_theta_max            =   3.1242721841960E+01
(PID.TID 0000.0001) %MON dynstat_theta_min            =  -6.6523302384880E+00
(PID.TID 0000.0001) %MON dynstat_theta_mean           =   3.0531182570256E+00
(PID.TID 0000.0001) %MON dynstat_theta_sd             =   4.9951429471319E+00
(PID.TID 0000.0001) %MON dynstat_theta_del2           =   2.9757426798848E-03
(PID.TID 0000.0001) %MON dynstat_salt_max             =   5.9539948087409E+01
(PID.TID 0000.0001) %MON dynstat_salt_min             =   1.7775826886301E+01
(PID.TID 0000.0001) %MON dynstat_salt_mean            =   3.4752513679359E+01
(PID.TID 0000.0001) %MON dynstat_salt_sd              =   4.8910473236850E-01
(PID.TID 0000.0001) %MON dynstat_salt_del2            =   1.3648618957306E-03
(PID.TID 0000.0001) %MON forcing_qnet_max             =   6.6172792654764E+02
(PID.TID 0000.0001) %MON forcing_qnet_min             =  -2.5401668711447E+02
(PID.TID 0000.0001) %MON forcing_qnet_mean            =  -1.3456078097243E+01
(PID.TID 0000.0001) %MON forcing_qnet_sd              =   1.2424481147112E+02
(PID.TID 0000.0001) %MON forcing_qnet_del2            =   9.9260293045705E-01
(PID.TID 0000.0001) %MON forcing_qsw_max              =  -0.0000000000000E+00
(PID.TID 0000.0001) %MON forcing_qsw_min              =  -3.0186728538630E+02
(PID.TID 0000.0001) %MON forcing_qsw_mean             =  -1.8308042574619E+02
(PID.TID 0000.0001) %MON forcing_qsw_sd               =   7.9576567810275E+01
(PID.TID 0000.0001) %MON forcing_qsw_del2             =   2.9646754273630E-01
(PID.TID 0000.0001) %MON forcing_empmr_max            =   7.0033662824004E-04
(PID.TID 0000.0001) %MON forcing_empmr_min            =  -4.3351451605077E-04
(PID.TID 0000.0001) %MON forcing_empmr_mean           =  -8.4414584866490E-07
(PID.TID 0000.0001) %MON forcing_empmr_sd             =   5.9501954632861E-05
(PID.TID 0000.0001) %MON forcing_empmr_del2           =   1.0775617499426E-06
(PID.TID 0000.0001) %MON forcing_fu_max               =   2.4741393863310E-01
(PID.TID 0000.0001) %MON forcing_fu_min               =  -2.1551509637860E-01
(PID.TID 0000.0001) %MON forcing_fu_mean              =  -4.2736857162418E-03
(PID.TID 0000.0001) %MON forcing_fu_sd                =   6.3889864577325E-02
(PID.TID 0000.0001) %MON forcing_fu_del2              =   2.1363314033889E-04
(PID.TID 0000.0001) %MON forcing_fv_max               =   2.6354394672640E-01
(PID.TID 0000.0001) %MON forcing_fv_min               =  -3.3007153975572E-01
(PID.TID 0000.0001) %MON forcing_fv_mean              =  -1.3975306469323E-02
(PID.TID 0000.0001) %MON forcing_fv_sd                =   7.4912548458393E-02
(PID.TID 0000.0001) %MON forcing_fv_del2              =   2.3173714797188E-04
(PID.TID 0000.0001) %MON trAdv_CFL_u_max              =   8.1665596819278E-02
(PID.TID 0000.0001) %MON trAdv_CFL_v_max              =   8.9202585379774E-02
(PID.TID 0000.0001) %MON trAdv_CFL_w_max              =   7.7155269517409E-02
(PID.TID 0000.0001) %MON advcfl_uvel_max              =   8.4609730887029E-02
(PID.TID 0000.0001) %MON advcfl_vvel_max              =   8.3951444342043E-02
(PID.TID 0000.0001) %MON advcfl_wvel_max              =   6.9737184225566E-02
(PID.TID 0000.0001) %MON advcfl_W_hf_max              =   7.7155269517409E-02
(PID.TID 0000.0001) %MON pe_b_mean                    =   1.4344568732067E-02
(PID.TID 0000.0001) %MON ke_max                       =   4.1318741137095E-02
(PID.TID 0000.0001) %MON ke_mean                      =   2.0826607384937E-04
(PID.TID 0000.0001) %MON ke_vol                       =   1.3386019031461E+18
(PID.TID 0000.0001) %MON vort_r_min                   =  -1.2505219010793E-06
(PID.TID 0000.0001) %MON vort_r_max                   =   1.2865223870444E-06
(PID.TID 0000.0001) %MON vort_a_mean                  =  -2.0549865324846E-05
(PID.TID 0000.0001) %MON vort_a_sd                    =   7.5259723068011E-05
(PID.TID 0000.0001) %MON vort_p_mean                  =  -2.4806333312761E-05
(PID.TID 0000.0001) %MON vort_p_sd                    =   1.2827597546212E-04
(PID.TID 0000.0001) %MON surfExpan_theta_mean         =   4.1248059920217E-08
(PID.TID 0000.0001) %MON surfExpan_salt_mean          =   1.9703943581467E-08
(PID.TID 0000.0001) // =======================================================
(PID.TID 0000.0001) // End MONITOR dynamic field statistics
(PID.TID 0000.0001) // =======================================================
(PID.TID 0000.0001) // =======================================================
(PID.TID 0000.0001) // Begin MONITOR SEAICE statistics
(PID.TID 0000.0001) // =======================================================
(PID.TID 0000.0001) %MON seaice_tsnumber              =                 72005
(PID.TID 0000.0001) %MON seaice_time_sec              =   6.2212320000000E+09
(PID.TID 0000.0001) %MON seaice_uice_max              =   2.6009657219269E-01
(PID.TID 0000.0001) %MON seaice_uice_min              =  -3.0209549646122E-01
(PID.TID 0000.0001) %MON seaice_uice_mean             =  -3.8624041735838E-04
(PID.TID 0000.0001) %MON seaice_uice_sd               =   2.8326183638999E-02
(PID.TID 0000.0001) %MON seaice_uice_del2             =   5.3021653490666E-04
(PID.TID 0000.0001) %MON seaice_vice_max              =   3.0721606308905E-01
(PID.TID 0000.0001) %MON seaice_vice_min              =  -2.4414732261659E-01
(PID.TID 0000.0001) %MON seaice_vice_mean             =   1.2393548662155E-03
(PID.TID 0000.0001) %MON seaice_vice_sd               =   2.4247025612017E-02
(PID.TID 0000.0001) %MON seaice_vice_del2             =   4.4477073755787E-04
(PID.TID 0000.0001) // =======================================================
(PID.TID 0000.0001) // End MONITOR SEAICE statistics
(PID.TID 0000.0001) // =======================================================
(PID.TID 0000.0001) // =======================================================
(PID.TID 0000.0001) // Begin MONITOR Therm.SeaIce statistics
(PID.TID 0000.0001) // =======================================================
(PID.TID 0000.0001) %MON thSI_time_sec                =   6.2212320000000E+09
(PID.TID 0000.0001) %MON thSI_Ice_Area_G              =   1.6708889773243E+13
(PID.TID 0000.0001) %MON thSI_Ice_Area_S              =   4.2044859375554E+12
(PID.TID 0000.0001) %MON thSI_Ice_Area_N              =   1.2504403835688E+13
(PID.TID 0000.0001) %MON thSI_IceH_ave_G              =   1.8124504733700E+00
(PID.TID 0000.0001) %MON thSI_IceH_ave_S              =   1.1789627482699E+00
(PID.TID 0000.0001) %MON thSI_IceH_ave_N              =   2.0254546490825E+00
(PID.TID 0000.0001) %MON thSI_IceH_max_S              =   2.1178175018049E+00
(PID.TID 0000.0001) %MON thSI_IceH_max_N              =   5.2064184506009E+00
(PID.TID 0000.0001) %MON thSI_SnwH_ave_G              =   2.0939823945360E-01
(PID.TID 0000.0001) %MON thSI_SnwH_ave_S              =   1.6613215419835E-01
(PID.TID 0000.0001) %MON thSI_SnwH_ave_N              =   2.2394604592396E-01
(PID.TID 0000.0001) %MON thSI_SnwH_max_S              =   5.6796071111110E-01
(PID.TID 0000.0001) %MON thSI_SnwH_max_N              =   4.3053649033371E-01
(PID.TID 0000.0001) %MON thSI_Tsrf_ave_G              =  -1.9515787329062E+01
(PID.TID 0000.0001) %MON thSI_Tsrf_ave_S              =  -2.0039942513959E-02
(PID.TID 0000.0001) %MON thSI_Tsrf_ave_N              =  -2.6071045524973E+01
(PID.TID 0000.0001) %MON thSI_Tsrf_min_S              =  -5.4463777187653E+00
(PID.TID 0000.0001) %MON thSI_Tsrf_min_N              =  -3.2722916121280E+01
(PID.TID 0000.0001) %MON thSI_Tsrf_max_S              =   3.4627103286803E+00
(PID.TID 0000.0001) %MON thSI_Tsrf_max_N              =   6.8295067869799E+00
(PID.TID 0000.0001) %MON thSI_Tic1_ave_G              =  -1.0949926559122E+01
(PID.TID 0000.0001) %MON thSI_Tic1_ave_S              =  -1.1966887856794E+00
(PID.TID 0000.0001) %MON thSI_Tic1_ave_N              =  -1.2858796260213E+01
(PID.TID 0000.0001) %MON thSI_Tic1_min_S              =  -2.5445842332764E+00
(PID.TID 0000.0001) %MON thSI_Tic1_min_N              =  -1.8585123155676E+01
(PID.TID 0000.0001) %MON thSI_Tic1_max_S              =   0.0000000000000E+00
(PID.TID 0000.0001) %MON thSI_Tic1_max_N              =   0.0000000000000E+00
(PID.TID 0000.0001) %MON thSI_Tic2_ave_G              =  -4.7200165301205E+00
(PID.TID 0000.0001) %MON thSI_Tic2_ave_S              =  -1.5814039239318E+00
(PID.TID 0000.0001) %MON thSI_Tic2_ave_N              =  -5.3342948494422E+00
(PID.TID 0000.0001) %MON thSI_Tic2_min_S              =  -2.0361364486966E+00
(PID.TID 0000.0001) %MON thSI_Tic2_min_N              =  -7.8531805082796E+00
(PID.TID 0000.0001) %MON thSI_Tic2_max_S              =   0.0000000000000E+00
(PID.TID 0000.0001) %MON thSI_Tic2_max_N              =   0.0000000000000E+00
(PID.TID 0000.0001) %MON thSI_TotEnerg_G              =  -9.8724305007129E+21
(PID.TID 0000.0001) // =======================================================
(PID.TID 0000.0001) // End MONITOR Therm.SeaIce statistics
(PID.TID 0000.0001) // =======================================================
 EXTERNAL_FIELDS_LOAD,     72005 : iP,iLd,i0,i1=   12    1   12    1 ; Wght=  0.3333333333  0.6666666667
 SEAICE_LSR: ipass, FLEX_FACTOR, LSR_ERRORfu, LSR_ERRORfv, residIni =     1   0.317518 0.566916E-03 0.217825E-02 0.708879E-02
 SEAICE_LSR: Residual Initial ipass,Uice,Vice=         1  1.78546007E-03  6.86025052E-03
 SEAICE_LSR (ipass=        1) iters,dU,Resid=        2  6.83092928E-05  6.36191796E-05
 SEAICE_LSR (ipass=        1) iters,dV,Resid=        2  8.73931546E-05  1.10404456E-04
 SEAICE_LSR: ipass, FLEX_FACTOR, LSR_ERRORfu, LSR_ERRORfv, residIni =     2   0.218978 0.432758E-04 0.406766E-04 0.271223E-03
 SEAICE_LSR: Residual Initial ipass,Uice,Vice=         2  1.97626478E-04  1.85756714E-04
 SEAICE_LSR (ipass=        2) iters,dU,Resid=        4  2.07710967E-05  2.07776759E-05
 SEAICE_LSR (ipass=        2) iters,dV,Resid=        4  3.12566420E-05  4.32900548E-05
 SEAICE_LSR: ipass, FLEX_FACTOR, LSR_ERRORfu, LSR_ERRORfv, residIni =     3   0.208321 0.249129E-04 0.216324E-04 0.158381E-03
 SEAICE_LSR: Residual Initial ipass,Uice,Vice=         3  1.19589093E-04  1.03841875E-04
 SEAICE_LSR (ipass=        3) iters,dU,Resid=        4  1.24098700E-05  1.24408303E-05
 SEAICE_LSR (ipass=        3) iters,dV,Resid=        4  1.65375546E-05  2.39934566E-05
 SEAICE_LSR: ipass, FLEX_FACTOR, LSR_ERRORfu, LSR_ERRORfv, residIni =     4   0.204077 0.186902E-04 0.176176E-04 0.125858E-03
 SEAICE_LSR: Residual Initial ipass,Uice,Vice=         4  9.15843823E-05  8.63282349E-05
 SEAICE_LSR (ipass=        4) iters,dU,Resid=        2  1.59422225E-05  1.54592109E-05
 SEAICE_LSR (ipass=        4) iters,dV,Resid=        2  1.57301755E-05  2.03895920E-05
 SEAICE_LSR: ipass, FLEX_FACTOR, LSR_ERRORfu, LSR_ERRORfv, residIni =     5   0.201685 0.160172E-04 0.153781E-04 0.110095E-03
 SEAICE_LSR: Residual Initial ipass,Uice,Vice=         5  7.94168541E-05  7.62482033E-05
 SEAICE_LSR (ipass=        5) iters,dU,Resid=        2  1.48799715E-05  1.43135871E-05
 SEAICE_LSR (ipass=        5) iters,dV,Resid=        2  1.38453749E-05  1.81487760E-05
 SEAICE_LSR: ipass, FLEX_FACTOR, LSR_ERRORfu, LSR_ERRORfv, residIni =     6   0.199558 0.136852E-04 0.138259E-04 0.974831E-04
 SEAICE_LSR: Residual Initial ipass,Uice,Vice=         6  6.85775189E-05  6.92825510E-05
 SEAICE_LSR (ipass=        6) iters,dU,Resid=        2  1.29961462E-05  1.24847571E-05
 SEAICE_LSR (ipass=        6) iters,dV,Resid=        2  1.21253221E-05  1.62331417E-05
 SEAICE_LSR: ipass, FLEX_FACTOR, LSR_ERRORfu, LSR_ERRORfv, residIni =     7   0.197660 0.119825E-04 0.124052E-04 0.872573E-04
 SEAICE_LSR: Residual Initial ipass,Uice,Vice=         7  6.06216923E-05  6.27601901E-05
 SEAICE_LSR (ipass=        7) iters,dU,Resid=        2  1.13118236E-05  1.08785662E-05
 SEAICE_LSR (ipass=        7) iters,dV,Resid=        2  1.06234261E-05  1.46165862E-05
 SEAICE_LSR: ipass, FLEX_FACTOR, LSR_ERRORfu, LSR_ERRORfv, residIni =     8   0.195925 0.106363E-04 0.111652E-04 0.787062E-04
 SEAICE_LSR: Residual Initial ipass,Uice,Vice=         8  5.42877323E-05  5.69868809E-05
 SEAICE_LSR (ipass=        8) iters,dU,Resid=        2  9.86288553E-06  9.49700356E-06
 SEAICE_LSR (ipass=        8) iters,dV,Resid=        2  9.34760535E-06  1.32282056E-05
 SEAICE_LSR: ipass, FLEX_FACTOR, LSR_ERRORfu, LSR_ERRORfv, residIni =     9   0.194309 0.952203E-05 0.100843E-04 0.713783E-04
 SEAICE_LSR: Residual Initial ipass,Uice,Vice=         9  4.90044894E-05  5.18981662E-05
 SEAICE_LSR (ipass=        9) iters,dU,Resid=        2  8.60566366E-06  8.29402190E-06
 SEAICE_LSR (ipass=        9) iters,dV,Resid=        2  8.27243114E-06  1.20219727E-05
 cg2d: Sum(rhs),rhsMax =   2.21811173202017E+03  2.13089300082976E+01
(PID.TID 0000.0001)      cg2d_init_res =   2.55315149573519E+00
(PID.TID 0000.0001)      cg2d_iters(min,last) =      -1      69
(PID.TID 0000.0001)      cg2d_last_res =   5.71455713906731E-07
(PID.TID 0000.0001) // =======================================================
(PID.TID 0000.0001) // Begin MONITOR dynamic field statistics
(PID.TID 0000.0001) // =======================================================
(PID.TID 0000.0001) %MON time_tsnumber                =                 72006
(PID.TID 0000.0001) %MON time_secondsf                =   6.2213184000000E+09
(PID.TID 0000.0001) %MON dynstat_eta_max              =  -2.2127346119199E+00
(PID.TID 0000.0001) %MON dynstat_eta_min              =  -8.3475574978253E+00
(PID.TID 0000.0001) %MON dynstat_eta_mean             =  -3.2990930264958E+00
(PID.TID 0000.0001) %MON dynstat_eta_sd               =   8.7689949507732E-01
(PID.TID 0000.0001) %MON dynstat_eta_del2             =   2.2939333273939E-03
(PID.TID 0000.0001) %MON dynstat_uvel_max             =   2.1410064092711E-01
(PID.TID 0000.0001) %MON dynstat_uvel_min             =  -2.8917166387595E-01
(PID.TID 0000.0001) %MON dynstat_uvel_mean            =  -5.2568495722763E-04
(PID.TID 0000.0001) %MON dynstat_uvel_sd              =   1.4765994971924E-02
(PID.TID 0000.0001) %MON dynstat_uvel_del2            =   6.7944849030937E-05
(PID.TID 0000.0001) %MON dynstat_vvel_max             =   2.1846594238869E-01
(PID.TID 0000.0001) %MON dynstat_vvel_min             =  -2.0099744647505E-01
(PID.TID 0000.0001) %MON dynstat_vvel_mean            =  -3.9674381509707E-04
(PID.TID 0000.0001) %MON dynstat_vvel_sd              =   1.5246775941964E-02
(PID.TID 0000.0001) %MON dynstat_vvel_del2            =   6.2937248660047E-05
(PID.TID 0000.0001) %MON dynstat_wvel_max             =   1.0421093974476E-04
(PID.TID 0000.0001) %MON dynstat_wvel_min             =  -2.1381488280423E-04
(PID.TID 0000.0001) %MON dynstat_wvel_mean            =  -1.4148586274741E-09
(PID.TID 0000.0001) %MON dynstat_wvel_sd              =   5.3572653819000E-06
(PID.TID 0000.0001) %MON dynstat_wvel_del2            =   4.9255347243476E-08
(PID.TID 0000.0001) %MON dynstat_theta_max            =   3.1251450471896E+01
(PID.TID 0000.0001) %MON dynstat_theta_min            =  -6.6536584212619E+00
(PID.TID 0000.0001) %MON dynstat_theta_mean           =   3.0531944577537E+00
(PID.TID 0000.0001) %MON dynstat_theta_sd             =   4.9952071828763E+00
(PID.TID 0000.0001) %MON dynstat_theta_del2           =   2.9790661069428E-03
(PID.TID 0000.0001) %MON dynstat_salt_max             =   5.9545007079616E+01
(PID.TID 0000.0001) %MON dynstat_salt_min             =   1.7775842156985E+01
(PID.TID 0000.0001) %MON dynstat_salt_mean            =   3.4752513278701E+01
(PID.TID 0000.0001) %MON dynstat_salt_sd              =   4.8909767016099E-01
(PID.TID 0000.0001) %MON dynstat_salt_del2            =   1.3655909871650E-03
(PID.TID 0000.0001) %MON forcing_qnet_max             =   6.6345368213392E+02
(PID.TID 0000.0001) %MON forcing_qnet_min             =  -2.5404850748906E+02
(PID.TID 0000.0001) %MON forcing_qnet_mean            =  -1.3427825846010E+01
(PID.TID 0000.0001) %MON forcing_qnet_sd              =   1.2422031145156E+02
(PID.TID 0000.0001) %MON forcing_qnet_del2            =   9.9001887484978E-01
(PID.TID 0000.0001) %MON forcing_qsw_max              =  -0.0000000000000E+00
(PID.TID 0000.0001) %MON forcing_qsw_min              =  -3.0185528845048E+02
(PID.TID 0000.0001) %MON forcing_qsw_mean             =  -1.8320145253462E+02
(PID.TID 0000.0001) %MON forcing_qsw_sd               =   7.9507644590374E+01
(PID.TID 0000.0001) %MON forcing_qsw_del2             =   2.9200210130166E-01
(PID.TID 0000.0001) %MON forcing_empmr_max            =   6.8276859108485E-04
(PID.TID 0000.0001) %MON forcing_empmr_min            =  -4.3568501881398E-04
(PID.TID 0000.0001) %MON forcing_empmr_mean           =  -6.7078398637898E-07
(PID.TID 0000.0001) %MON forcing_empmr_sd             =   5.8111844158504E-05
(PID.TID 0000.0001) %MON forcing_empmr_del2           =   1.0418959594996E-06
(PID.TID 0000.0001) %MON forcing_fu_max               =   2.4736588936290E-01
(PID.TID 0000.0001) %MON forcing_fu_min               =  -2.1866089303695E-01
(PID.TID 0000.0001) %MON forcing_fu_mean              =  -4.2371282989187E-03
(PID.TID 0000.0001) %MON forcing_fu_sd                =   6.3953850314639E-02
(PID.TID 0000.0001) %MON forcing_fu_del2              =   2.1458470058496E-04
(PID.TID 0000.0001) %MON forcing_fv_max               =   2.6622718829904E-01
(PID.TID 0000.0001) %MON forcing_fv_min               =  -3.3085944368965E-01
(PID.TID 0000.0001) %MON forcing_fv_mean              =  -1.3985520272743E-02
(PID.TID 0000.0001) %MON forcing_fv_sd                =   7.4985256850136E-02
(PID.TID 0000.0001) %MON forcing_fv_del2              =   2.3240312371171E-04
(PID.TID 0000.0001) %MON trAdv_CFL_u_max              =   8.1554668205585E-02
(PID.TID 0000.0001) %MON trAdv_CFL_v_max              =   8.9278409514793E-02
(PID.TID 0000.0001) %MON trAdv_CFL_w_max              =   7.7127344932132E-02
(PID.TID 0000.0001) %MON advcfl_uvel_max              =   8.4744681832605E-02
(PID.TID 0000.0001) %MON advcfl_vvel_max              =   8.4022883443914E-02
(PID.TID 0000.0001) %MON advcfl_wvel_max              =   6.9711720280321E-02
(PID.TID 0000.0001) %MON advcfl_W_hf_max              =   7.7127344932132E-02
(PID.TID 0000.0001) %MON pe_b_mean                    =   1.4344078899959E-02
(PID.TID 0000.0001) %MON ke_max                       =   4.1188746364083E-02
(PID.TID 0000.0001) %MON ke_mean                      =   2.0820956257266E-04
(PID.TID 0000.0001) %MON ke_vol                       =   1.3386019287885E+18
(PID.TID 0000.0001) %MON vort_r_min                   =  -1.2561368681444E-06
(PID.TID 0000.0001) %MON vort_r_max                   =   1.2837801198990E-06
(PID.TID 0000.0001) %MON vort_a_mean                  =  -2.0549865324846E-05
(PID.TID 0000.0001) %MON vort_a_sd                    =   7.5259722913505E-05
(PID.TID 0000.0001) %MON vort_p_mean                  =  -2.4806332457974E-05
(PID.TID 0000.0001) %MON vort_p_sd                    =   1.2827596716729E-04
(PID.TID 0000.0001) %MON surfExpan_theta_mean         =   4.2671512234548E-08
(PID.TID 0000.0001) %MON surfExpan_salt_mean          =   1.8840558260589E-08
(PID.TID 0000.0001) // =======================================================
(PID.TID 0000.0001) // End MONITOR dynamic field statistics
(PID.TID 0000.0001) // =======================================================
(PID.TID 0000.0001) // =======================================================
(PID.TID 0000.0001) // Begin MONITOR SEAICE statistics
(PID.TID 0000.0001) // =======================================================
(PID.TID 0000.0001) %MON seaice_tsnumber              =                 72006
(PID.TID 0000.0001) %MON seaice_time_sec              =   6.2213184000000E+09
(PID.TID 0000.0001) %MON seaice_uice_max              =   2.6275790049173E-01
(PID.TID 0000.0001) %MON seaice_uice_min              =  -2.9665184645413E-01
(PID.TID 0000.0001) %MON seaice_uice_mean             =  -3.7777216400777E-04
(PID.TID 0000.0001) %MON seaice_uice_sd               =   2.8127052765623E-02
(PID.TID 0000.0001) %MON seaice_uice_del2             =   5.2490280520572E-04
(PID.TID 0000.0001) %MON seaice_vice_max              =   3.4258324341626E-01
(PID.TID 0000.0001) %MON seaice_vice_min              =  -1.9986128110701E-01
(PID.TID 0000.0001) %MON seaice_vice_mean             =   1.1928205731089E-03
(PID.TID 0000.0001) %MON seaice_vice_sd               =   2.3135035342726E-02
(PID.TID 0000.0001) %MON seaice_vice_del2             =   4.5254751652706E-04
(PID.TID 0000.0001) // =======================================================
(PID.TID 0000.0001) // End MONITOR SEAICE statistics
(PID.TID 0000.0001) // =======================================================
(PID.TID 0000.0001) // =======================================================
(PID.TID 0000.0001) // Begin MONITOR Therm.SeaIce statistics
(PID.TID 0000.0001) // =======================================================
(PID.TID 0000.0001) %MON thSI_time_sec                =   6.2213184000000E+09
(PID.TID 0000.0001) %MON thSI_Ice_Area_G              =   1.6613960644095E+13
(PID.TID 0000.0001) %MON thSI_Ice_Area_S              =   4.0517467779793E+12
(PID.TID 0000.0001) %MON thSI_Ice_Area_N              =   1.2562213866116E+13
(PID.TID 0000.0001) %MON thSI_IceH_ave_G              =   1.8205101814140E+00
(PID.TID 0000.0001) %MON thSI_IceH_ave_S              =   1.1838828949479E+00
(PID.TID 0000.0001) %MON thSI_IceH_ave_N              =   2.0258444150294E+00
(PID.TID 0000.0001) %MON thSI_IceH_max_S              =   2.1161580577546E+00
(PID.TID 0000.0001) %MON thSI_IceH_max_N              =   5.2075605125954E+00
(PID.TID 0000.0001) %MON thSI_SnwH_ave_G              =   2.0966942526304E-01
(PID.TID 0000.0001) %MON thSI_SnwH_ave_S              =   1.6092812019402E-01
(PID.TID 0000.0001) %MON thSI_SnwH_ave_N              =   2.2539017543277E-01
(PID.TID 0000.0001) %MON thSI_SnwH_max_S              =   5.6294373848506E-01
(PID.TID 0000.0001) %MON thSI_SnwH_max_N              =   4.3382888183851E-01
(PID.TID 0000.0001) %MON thSI_Tsrf_ave_G              =  -1.9729926736109E+01
(PID.TID 0000.0001) %MON thSI_Tsrf_ave_S              =  -2.4825050878037E-02
(PID.TID 0000.0001) %MON thSI_Tsrf_ave_N              =  -2.6085500929782E+01
(PID.TID 0000.0001) %MON thSI_Tsrf_min_S              =  -5.4581874206513E+00
(PID.TID 0000.0001) %MON thSI_Tsrf_min_N              =  -3.2721693267326E+01
(PID.TID 0000.0001) %MON thSI_Tsrf_max_S              =   3.5086381107720E+00
(PID.TID 0000.0001) %MON thSI_Tsrf_max_N              =   6.8199454926642E+00
(PID.TID 0000.0001) %MON thSI_Tic1_ave_G              =  -1.1010004359650E+01
(PID.TID 0000.0001) %MON thSI_Tic1_ave_S              =  -1.1504503142967E+00
(PID.TID 0000.0001) %MON thSI_Tic1_ave_N              =  -1.2868390859570E+01
(PID.TID 0000.0001) %MON thSI_Tic1_min_S              =  -2.5377226021683E+00
(PID.TID 0000.0001) %MON thSI_Tic1_min_N              =  -1.8595812872227E+01
(PID.TID 0000.0001) %MON thSI_Tic1_max_S              =   0.0000000000000E+00
(PID.TID 0000.0001) %MON thSI_Tic1_max_N              =   0.0000000000000E+00
(PID.TID 0000.0001) %MON thSI_Tic2_ave_G              =  -4.7432847923730E+00
(PID.TID 0000.0001) %MON thSI_Tic2_ave_S              =  -1.5654128740149E+00
(PID.TID 0000.0001) %MON thSI_Tic2_ave_N              =  -5.3422687062887E+00
(PID.TID 0000.0001) %MON thSI_Tic2_min_S              =  -2.0225329891877E+00
(PID.TID 0000.0001) %MON thSI_Tic2_min_N              =  -7.8787072165574E+00
(PID.TID 0000.0001) %MON thSI_Tic2_max_S              =   0.0000000000000E+00
(PID.TID 0000.0001) %MON thSI_Tic2_max_N              =   0.0000000000000E+00
(PID.TID 0000.0001) %MON thSI_TotEnerg_G              =  -9.8593659967515E+21
(PID.TID 0000.0001) // =======================================================
(PID.TID 0000.0001) // End MONITOR Therm.SeaIce statistics
(PID.TID 0000.0001) // =======================================================
 EXTERNAL_FIELDS_LOAD,     72006 : iP,iLd,i0,i1=   12    1   12    1 ; Wght=  0.3000000000  0.7000000000
 SEAICE_LSR: ipass, FLEX_FACTOR, LSR_ERRORfu, LSR_ERRORfv, residIni =     1   0.291199 0.686963E-03 0.822685E-03 0.368061E-02
 SEAICE_LSR: Residual Initial ipass,Uice,Vice=         1  2.35908715E-03  2.82516708E-03
 SEAICE_LSR (ipass=        1) iters,dU,Resid=        2  6.50032774E-05  6.04661943E-05
 SEAICE_LSR (ipass=        1) iters,dV,Resid=        2  8.11033051E-05  1.03709359E-04
 SEAICE_LSR: ipass, FLEX_FACTOR, LSR_ERRORfu, LSR_ERRORfv, residIni =     2   0.218807 0.399002E-04 0.432729E-04 0.269007E-03
 SEAICE_LSR: Residual Initial ipass,Uice,Vice=         2  1.82353378E-04  1.97767556E-04
 SEAICE_LSR (ipass=        2) iters,dU,Resid=        4  1.97727485E-05  1.98020834E-05
 SEAICE_LSR (ipass=        2) iters,dV,Resid=        4  2.92095685E-05  4.05760181E-05
 SEAICE_LSR: ipass, FLEX_FACTOR, LSR_ERRORfu, LSR_ERRORfv, residIni =     3   0.207592 0.230996E-04 0.216027E-04 0.152352E-03
 SEAICE_LSR: Residual Initial ipass,Uice,Vice=         3  1.11274091E-04  1.04063453E-04
 SEAICE_LSR (ipass=        3) iters,dU,Resid=        4  1.20032553E-05  1.20398394E-05
 SEAICE_LSR (ipass=        3) iters,dV,Resid=        4  1.54971506E-05  2.25953897E-05
 SEAICE_LSR: ipass, FLEX_FACTOR, LSR_ERRORfu, LSR_ERRORfv, residIni =     4   0.202932 0.167096E-04 0.171794E-04 0.118096E-03
 SEAICE_LSR: Residual Initial ipass,Uice,Vice=         4  8.23409310E-05  8.46561638E-05
 SEAICE_LSR (ipass=        4) iters,dU,Resid=        2  1.60829566E-05  1.55789009E-05
 SEAICE_LSR (ipass=        4) iters,dV,Resid=        2  1.50030196E-05  1.94010233E-05
 SEAICE_LSR: ipass, FLEX_FACTOR, LSR_ERRORfu, LSR_ERRORfv, residIni =     5   0.200714 0.147614E-04 0.148112E-04 0.104183E-03
 SEAICE_LSR: Residual Initial ipass,Uice,Vice=         5  7.35442502E-05  7.37925744E-05
 SEAICE_LSR (ipass=        5) iters,dU,Resid=        4  6.29905724E-06  6.24550787E-06
 SEAICE_LSR (ipass=        5) iters,dV,Resid=        4  8.01865459E-06  1.17431994E-05
 SEAICE_LSR: ipass, FLEX_FACTOR, LSR_ERRORfu, LSR_ERRORfv, residIni =     6   0.198170 0.118695E-04 0.132893E-04 0.899139E-04
 SEAICE_LSR: Residual Initial ipass,Uice,Vice=         6  5.98954012E-05  6.70601026E-05
 SEAICE_LSR (ipass=        6) iters,dU,Resid=        2  1.04590162E-05  1.00254554E-05
 SEAICE_LSR (ipass=        6) iters,dV,Resid=        2  9.28036370E-06  1.23104476E-05
 SEAICE_LSR: ipass, FLEX_FACTOR, LSR_ERRORfu, LSR_ERRORfv, residIni =     7   0.196659 0.111392E-04 0.117237E-04 0.822327E-04
 SEAICE_LSR: Residual Initial ipass,Uice,Vice=         7  5.66423078E-05  5.96142749E-05
 SEAICE_LSR (ipass=        7) iters,dU,Resid=        2  1.05615472E-05  1.01276817E-05
 SEAICE_LSR (ipass=        7) iters,dV,Resid=        2  8.66735045E-06  1.18965499E-05
 SEAICE_LSR: ipass, FLEX_FACTOR, LSR_ERRORfu, LSR_ERRORfv, residIni =     8   0.195023 0.996053E-05 0.105884E-04 0.745404E-04
 SEAICE_LSR: Residual Initial ipass,Uice,Vice=         8  5.10736776E-05  5.42931537E-05
 SEAICE_LSR (ipass=        8) iters,dU,Resid=        2  9.76000761E-06  9.39375902E-06
 SEAICE_LSR (ipass=        8) iters,dV,Resid=        2  7.97664403E-06  1.12881634E-05
 SEAICE_LSR: ipass, FLEX_FACTOR, LSR_ERRORfu, LSR_ERRORfv, residIni =     9   0.193466 0.892307E-05 0.961032E-05 0.677850E-04
 SEAICE_LSR: Residual Initial ipass,Uice,Vice=         9  4.61221655E-05  4.96744655E-05
 SEAICE_LSR (ipass=        9) iters,dU,Resid=        2  8.81902011E-06  8.52005089E-06
 SEAICE_LSR (ipass=        9) iters,dV,Resid=        2  7.27942777E-06  1.06115786E-05
 SEAICE_LSR: ipass, FLEX_FACTOR, LSR_ERRORfu, LSR_ERRORfv, residIni =    10   0.191978 0.803304E-05 0.873362E-05 0.618101E-04
 SEAICE_LSR: Residual Initial ipass,Uice,Vice=        10  4.18436071E-05  4.54928816E-05
 SEAICE_LSR (ipass=       10) iters,dU,Resid=        2  7.87077329E-06  7.62283650E-06
 SEAICE_LSR (ipass=       10) iters,dV,Resid=        2  6.61284546E-06  9.89636558E-06
 cg2d: Sum(rhs),rhsMax =   2.21808124304914E+03  2.13250469449704E+01
(PID.TID 0000.0001)      cg2d_init_res =   2.43876833071828E+00
(PID.TID 0000.0001)      cg2d_iters(min,last) =      -1      70
(PID.TID 0000.0001)      cg2d_last_res =   4.62128123819126E-07
(PID.TID 0000.0001) // =======================================================
(PID.TID 0000.0001) // Begin MONITOR dynamic field statistics
(PID.TID 0000.0001) // =======================================================
(PID.TID 0000.0001) %MON time_tsnumber                =                 72007
(PID.TID 0000.0001) %MON time_secondsf                =   6.2214048000000E+09
(PID.TID 0000.0001) %MON dynstat_eta_max              =  -2.2137600269432E+00
(PID.TID 0000.0001) %MON dynstat_eta_min              =  -8.3474784961976E+00
(PID.TID 0000.0001) %MON dynstat_eta_mean             =  -3.2990476789372E+00
(PID.TID 0000.0001) %MON dynstat_eta_sd               =   8.7609078783928E-01
(PID.TID 0000.0001) %MON dynstat_eta_del2             =   2.2771729876152E-03
(PID.TID 0000.0001) %MON dynstat_uvel_max             =   2.1405669557674E-01
(PID.TID 0000.0001) %MON dynstat_uvel_min             =  -2.8876128307975E-01
(PID.TID 0000.0001) %MON dynstat_uvel_mean            =  -5.2523409353930E-04
(PID.TID 0000.0001) %MON dynstat_uvel_sd              =   1.4761576634718E-02
(PID.TID 0000.0001) %MON dynstat_uvel_del2            =   6.7898612771333E-05
(PID.TID 0000.0001) %MON dynstat_vvel_max             =   2.1772633205456E-01
(PID.TID 0000.0001) %MON dynstat_vvel_min             =  -2.0104161275654E-01
(PID.TID 0000.0001) %MON dynstat_vvel_mean            =  -3.9579961336436E-04
(PID.TID 0000.0001) %MON dynstat_vvel_sd              =   1.5246774570420E-02
(PID.TID 0000.0001) %MON dynstat_vvel_del2            =   6.2886579366942E-05
(PID.TID 0000.0001) %MON dynstat_wvel_max             =   1.0482926461688E-04
(PID.TID 0000.0001) %MON dynstat_wvel_min             =  -2.1348881970503E-04
(PID.TID 0000.0001) %MON dynstat_wvel_mean            =  -1.2924687973745E-09
(PID.TID 0000.0001) %MON dynstat_wvel_sd              =   5.3553233294970E-06
(PID.TID 0000.0001) %MON dynstat_wvel_del2            =   4.9197288185661E-08
(PID.TID 0000.0001) %MON dynstat_theta_max            =   3.1259604785234E+01
(PID.TID 0000.0001) %MON dynstat_theta_min            =  -6.6548569283651E+00
(PID.TID 0000.0001) %MON dynstat_theta_mean           =   3.0532703107743E+00
(PID.TID 0000.0001) %MON dynstat_theta_sd             =   4.9952740610265E+00
(PID.TID 0000.0001) %MON dynstat_theta_del2           =   2.9817406212092E-03
(PID.TID 0000.0001) %MON dynstat_salt_max             =   5.9549478410409E+01
(PID.TID 0000.0001) %MON dynstat_salt_min             =   1.7775846766820E+01
(PID.TID 0000.0001) %MON dynstat_salt_mean            =   3.4752512965838E+01
(PID.TID 0000.0001) %MON dynstat_salt_sd              =   4.8909123804642E-01
(PID.TID 0000.0001) %MON dynstat_salt_del2            =   1.3663027165328E-03
(PID.TID 0000.0001) %MON forcing_qnet_max             =   6.6515910365520E+02
(PID.TID 0000.0001) %MON forcing_qnet_min             =  -2.5407181722672E+02
(PID.TID 0000.0001) %MON forcing_qnet_mean            =  -1.3362256335103E+01
(PID.TID 0000.0001) %MON forcing_qnet_sd              =   1.2422024636429E+02
(PID.TID 0000.0001) %MON forcing_qnet_del2            =   9.9138083613533E-01
(PID.TID 0000.0001) %MON forcing_qsw_max              =  -0.0000000000000E+00
(PID.TID 0000.0001) %MON forcing_qsw_min              =  -3.0184329151467E+02
(PID.TID 0000.0001) %MON forcing_qsw_mean             =  -1.8331533652085E+02
(PID.TID 0000.0001) %MON forcing_qsw_sd               =   7.9441950705528E+01
(PID.TID 0000.0001) %MON forcing_qsw_del2             =   2.8798038369533E-01
(PID.TID 0000.0001) %MON forcing_empmr_max            =   6.6081673232838E-04
(PID.TID 0000.0001) %MON forcing_empmr_min            =  -4.3785911509076E-04
(PID.TID 0000.0001) %MON forcing_empmr_mean           =  -5.4322596228550E-07
(PID.TID 0000.0001) %MON forcing_empmr_sd             =   5.7062829100143E-05
(PID.TID 0000.0001) %MON forcing_empmr_del2           =   1.0187686663880E-06
(PID.TID 0000.0001) %MON forcing_fu_max               =   2.4731784009269E-01
(PID.TID 0000.0001) %MON forcing_fu_min               =  -2.2180668969530E-01
(PID.TID 0000.0001) %MON forcing_fu_mean              =  -4.1986500791560E-03
(PID.TID 0000.0001) %MON forcing_fu_sd                =   6.4028566725149E-02
(PID.TID 0000.0001) %MON forcing_fu_del2              =   2.1604155524573E-04
(PID.TID 0000.0001) %MON forcing_fv_max               =   2.6891042987167E-01
(PID.TID 0000.0001) %MON forcing_fv_min               =  -3.3164734762358E-01
(PID.TID 0000.0001) %MON forcing_fv_mean              =  -1.3995491505992E-02
(PID.TID 0000.0001) %MON forcing_fv_sd                =   7.5068830272639E-02
(PID.TID 0000.0001) %MON forcing_fv_del2              =   2.3347391017768E-04
(PID.TID 0000.0001) %MON trAdv_CFL_u_max              =   8.1438930098039E-02
(PID.TID 0000.0001) %MON trAdv_CFL_v_max              =   8.9331704270841E-02
(PID.TID 0000.0001) %MON trAdv_CFL_w_max              =   7.7009583239110E-02
(PID.TID 0000.0001) %MON advcfl_uvel_max              =   8.4875068953273E-02
(PID.TID 0000.0001) %MON advcfl_vvel_max              =   8.4073119185952E-02
(PID.TID 0000.0001) %MON advcfl_wvel_max              =   6.9605411405716E-02
(PID.TID 0000.0001) %MON advcfl_W_hf_max              =   7.7009583239110E-02
(PID.TID 0000.0001) %MON pe_b_mean                    =   1.4343645780418E-02
(PID.TID 0000.0001) %MON ke_max                       =   4.1054946693292E-02
(PID.TID 0000.0001) %MON ke_mean                      =   2.0814904938540E-04
(PID.TID 0000.0001) %MON ke_vol                       =   1.3386019491646E+18
(PID.TID 0000.0001) %MON vort_r_min                   =  -1.2619344243995E-06
(PID.TID 0000.0001) %MON vort_r_max                   =   1.2811174406929E-06
(PID.TID 0000.0001) %MON vort_a_mean                  =  -2.0549865324846E-05
(PID.TID 0000.0001) %MON vort_a_sd                    =   7.5259722745053E-05
(PID.TID 0000.0001) %MON vort_p_mean                  =  -2.4806331689357E-05
(PID.TID 0000.0001) %MON vort_p_sd                    =   1.2827596106678E-04
(PID.TID 0000.0001) %MON surfExpan_theta_mean         =   4.3788993748892E-08
(PID.TID 0000.0001) %MON surfExpan_salt_mean          =   1.8388062678805E-08
(PID.TID 0000.0001) // =======================================================
(PID.TID 0000.0001) // End MONITOR dynamic field statistics
(PID.TID 0000.0001) // =======================================================
(PID.TID 0000.0001) // =======================================================
(PID.TID 0000.0001) // Begin MONITOR SEAICE statistics
(PID.TID 0000.0001) // =======================================================
(PID.TID 0000.0001) %MON seaice_tsnumber              =                 72007
(PID.TID 0000.0001) %MON seaice_time_sec              =   6.2214048000000E+09
(PID.TID 0000.0001) %MON seaice_uice_max              =   2.6519036733015E-01
(PID.TID 0000.0001) %MON seaice_uice_min              =  -2.9408359188288E-01
(PID.TID 0000.0001) %MON seaice_uice_mean             =  -3.0837260379493E-04
(PID.TID 0000.0001) %MON seaice_uice_sd               =   2.7980417537803E-02
(PID.TID 0000.0001) %MON seaice_uice_del2             =   5.2013238977168E-04
(PID.TID 0000.0001) %MON seaice_vice_max              =   2.9717691157769E-01
(PID.TID 0000.0001) %MON seaice_vice_min              =  -2.4277254013254E-01
(PID.TID 0000.0001) %MON seaice_vice_mean             =   1.2414813305418E-03
(PID.TID 0000.0001) %MON seaice_vice_sd               =   2.3599999945116E-02
(PID.TID 0000.0001) %MON seaice_vice_del2             =   4.4182776065013E-04
(PID.TID 0000.0001) // =======================================================
(PID.TID 0000.0001) // End MONITOR SEAICE statistics
(PID.TID 0000.0001) // =======================================================
(PID.TID 0000.0001) // =======================================================
(PID.TID 0000.0001) // Begin MONITOR Therm.SeaIce statistics
(PID.TID 0000.0001) // =======================================================
(PID.TID 0000.0001) %MON thSI_time_sec                =   6.2214048000000E+09
(PID.TID 0000.0001) %MON thSI_Ice_Area_G              =   1.6538268663897E+13
(PID.TID 0000.0001) %MON thSI_Ice_Area_S              =   3.9204066205072E+12
(PID.TID 0000.0001) %MON thSI_Ice_Area_N              =   1.2617862043390E+13
(PID.TID 0000.0001) %MON thSI_IceH_ave_G              =   1.8266307929687E+00
(PID.TID 0000.0001) %MON thSI_IceH_ave_S              =   1.1840444376210E+00
(PID.TID 0000.0001) %MON thSI_IceH_ave_N              =   2.0262842519374E+00
(PID.TID 0000.0001) %MON thSI_IceH_max_S              =   2.1144599231477E+00
(PID.TID 0000.0001) %MON thSI_IceH_max_N              =   5.2087211247427E+00
(PID.TID 0000.0001) %MON thSI_SnwH_ave_G              =   2.0987034113081E-01
(PID.TID 0000.0001) %MON thSI_SnwH_ave_S              =   1.5497168679483E-01
(PID.TID 0000.0001) %MON thSI_SnwH_ave_N              =   2.2692751350880E-01
(PID.TID 0000.0001) %MON thSI_SnwH_max_S              =   5.5753465142723E-01
(PID.TID 0000.0001) %MON thSI_SnwH_max_N              =   4.3728308553744E-01
(PID.TID 0000.0001) %MON thSI_Tsrf_ave_G              =  -1.9913305861231E+01
(PID.TID 0000.0001) %MON thSI_Tsrf_ave_S              =  -2.0769397953534E-02
(PID.TID 0000.0001) %MON thSI_Tsrf_ave_N              =  -2.6093975088802E+01
(PID.TID 0000.0001) %MON thSI_Tsrf_min_S              =  -5.4629396114852E+00
(PID.TID 0000.0001) %MON thSI_Tsrf_min_N              =  -3.2720554610001E+01
(PID.TID 0000.0001) %MON thSI_Tsrf_max_S              =   3.5542375592337E+00
(PID.TID 0000.0001) %MON thSI_Tsrf_max_N              =   6.8086540675004E+00
(PID.TID 0000.0001) %MON thSI_Tic1_ave_G              =  -1.1069147510957E+01
(PID.TID 0000.0001) %MON thSI_Tic1_ave_S              =  -1.1101160242868E+00
(PID.TID 0000.0001) %MON thSI_Tic1_ave_N              =  -1.2877279282225E+01
(PID.TID 0000.0001) %MON thSI_Tic1_min_S              =  -2.5317154541508E+00
(PID.TID 0000.0001) %MON thSI_Tic1_min_N              =  -1.8598406729026E+01
(PID.TID 0000.0001) %MON thSI_Tic1_max_S              =   0.0000000000000E+00
(PID.TID 0000.0001) %MON thSI_Tic1_max_N              =   0.0000000000000E+00
(PID.TID 0000.0001) %MON thSI_Tic2_ave_G              =  -4.7664293671694E+00
(PID.TID 0000.0001) %MON thSI_Tic2_ave_S              =  -1.5514201666767E+00
(PID.TID 0000.0001) %MON thSI_Tic2_ave_N              =  -5.3501367576028E+00
(PID.TID 0000.0001) %MON thSI_Tic2_min_S              =  -2.0092036781334E+00
(PID.TID 0000.0001) %MON thSI_Tic2_min_N              =  -7.9024613166350E+00
(PID.TID 0000.0001) %MON thSI_Tic2_max_S              =   0.0000000000000E+00
(PID.TID 0000.0001) %MON thSI_Tic2_max_N              =   0.0000000000000E+00
(PID.TID 0000.0001) %MON thSI_TotEnerg_G              =  -9.8469138042338E+21
(PID.TID 0000.0001) // =======================================================
(PID.TID 0000.0001) // End MONITOR Therm.SeaIce statistics
(PID.TID 0000.0001) // =======================================================
 EXTERNAL_FIELDS_LOAD,     72007 : iP,iLd,i0,i1=   12    1   12    1 ; Wght=  0.2666666667  0.7333333333
 SEAICE_LSR: ipass, FLEX_FACTOR, LSR_ERRORfu, LSR_ERRORfv, residIni =     1   0.326230 0.209397E-02 0.186899E-02 0.860358E-02
 SEAICE_LSR: Residual Initial ipass,Uice,Vice=         1  6.41869714E-03  5.72903997E-03
 SEAICE_LSR (ipass=        1) iters,dU,Resid=        2  6.37145807E-05  5.96160642E-05
 SEAICE_LSR (ipass=        1) iters,dV,Resid=        2  7.80516017E-05  9.91065395E-05
 SEAICE_LSR: ipass, FLEX_FACTOR, LSR_ERRORfu, LSR_ERRORfv, residIni =     2   0.222771 0.605740E-04 0.394131E-04 0.324403E-03
 SEAICE_LSR: Residual Initial ipass,Uice,Vice=         2  2.71911390E-04  1.76922012E-04
 SEAICE_LSR (ipass=        2) iters,dU,Resid=        4  1.94804917E-05  1.95547003E-05
 SEAICE_LSR (ipass=        2) iters,dV,Resid=        4  2.74908167E-05  3.82420578E-05
 SEAICE_LSR: ipass, FLEX_FACTOR, LSR_ERRORfu, LSR_ERRORfv, residIni =     3   0.208158 0.245816E-04 0.215423E-04 0.157021E-03
 SEAICE_LSR: Residual Initial ipass,Uice,Vice=         3  1.18091243E-04  1.03489920E-04
 SEAICE_LSR (ipass=        3) iters,dU,Resid=        4  1.15186411E-05  1.15650692E-05
 SEAICE_LSR (ipass=        3) iters,dV,Resid=        4  1.45400420E-05  2.12316490E-05
 SEAICE_LSR: ipass, FLEX_FACTOR, LSR_ERRORfu, LSR_ERRORfv, residIni =     4   0.202382 0.156223E-04 0.171180E-04 0.114511E-03
 SEAICE_LSR: Residual Initial ipass,Uice,Vice=         4  7.71922243E-05  8.45825424E-05
 SEAICE_LSR (ipass=        4) iters,dU,Resid=        2  1.55564158E-05  1.50692575E-05
 SEAICE_LSR (ipass=        4) iters,dV,Resid=        2  1.41866716E-05  1.83946881E-05
 SEAICE_LSR: ipass, FLEX_FACTOR, LSR_ERRORfu, LSR_ERRORfv, residIni =     5   0.200363 0.141517E-04 0.147742E-04 0.102107E-03
 SEAICE_LSR: Residual Initial ipass,Uice,Vice=         5  7.06304008E-05  7.37372211E-05
 SEAICE_LSR (ipass=        5) iters,dU,Resid=        4  6.22634073E-06  6.19026042E-06
 SEAICE_LSR (ipass=        5) iters,dV,Resid=        4  7.49693390E-06  1.09497652E-05
 SEAICE_LSR: ipass, FLEX_FACTOR, LSR_ERRORfu, LSR_ERRORfv, residIni =     6   0.197911 0.114427E-04 0.132751E-04 0.885556E-04
 SEAICE_LSR: Residual Initial ipass,Uice,Vice=         6  5.78176693E-05  6.70761104E-05
 SEAICE_LSR (ipass=        6) iters,dU,Resid=        2  1.02354252E-05  9.82487546E-06
 SEAICE_LSR (ipass=        6) iters,dV,Resid=        2  8.77302501E-06  1.17124792E-05
 cg2d: Sum(rhs),rhsMax =   2.21805775873465E+03  2.13372954778530E+01
(PID.TID 0000.0001)      cg2d_init_res =   2.43439574093281E+00
(PID.TID 0000.0001)      cg2d_iters(min,last) =      -1      69
(PID.TID 0000.0001)      cg2d_last_res =   5.38682829885140E-07
(PID.TID 0000.0001) // =======================================================
(PID.TID 0000.0001) // Begin MONITOR dynamic field statistics
(PID.TID 0000.0001) // =======================================================
(PID.TID 0000.0001) %MON time_tsnumber                =                 72008
(PID.TID 0000.0001) %MON time_secondsf                =   6.2214912000000E+09
(PID.TID 0000.0001) %MON dynstat_eta_max              =  -2.2135550807785E+00
(PID.TID 0000.0001) %MON dynstat_eta_min              =  -8.3480559001223E+00
(PID.TID 0000.0001) %MON dynstat_eta_mean             =  -3.2990127497057E+00
(PID.TID 0000.0001) %MON dynstat_eta_sd               =   8.7531406783503E-01
(PID.TID 0000.0001) %MON dynstat_eta_del2             =   2.2610012344283E-03
(PID.TID 0000.0001) %MON dynstat_uvel_max             =   2.1419717832251E-01
(PID.TID 0000.0001) %MON dynstat_uvel_min             =  -2.8833357074739E-01
(PID.TID 0000.0001) %MON dynstat_uvel_mean            =  -5.2478116860212E-04
(PID.TID 0000.0001) %MON dynstat_uvel_sd              =   1.4757218897654E-02
(PID.TID 0000.0001) %MON dynstat_uvel_del2            =   6.7854433549898E-05
(PID.TID 0000.0001) %MON dynstat_vvel_max             =   2.1696140213031E-01
(PID.TID 0000.0001) %MON dynstat_vvel_min             =  -2.0108133380439E-01
(PID.TID 0000.0001) %MON dynstat_vvel_mean            =  -3.9490323134857E-04
(PID.TID 0000.0001) %MON dynstat_vvel_sd              =   1.5246442519852E-02
(PID.TID 0000.0001) %MON dynstat_vvel_del2            =   6.2838629359458E-05
(PID.TID 0000.0001) %MON dynstat_wvel_max             =   1.0545657062576E-04
(PID.TID 0000.0001) %MON dynstat_wvel_min             =  -2.1327799017774E-04
(PID.TID 0000.0001) %MON dynstat_wvel_mean            =  -1.2388062022212E-09
(PID.TID 0000.0001) %MON dynstat_wvel_sd              =   5.3538424747474E-06
(PID.TID 0000.0001) %MON dynstat_wvel_del2            =   4.9136954726817E-08
(PID.TID 0000.0001) %MON dynstat_theta_max            =   3.1267193360843E+01
(PID.TID 0000.0001) %MON dynstat_theta_min            =  -6.6559265423228E+00
(PID.TID 0000.0001) %MON dynstat_theta_mean           =   3.0533457654466E+00
(PID.TID 0000.0001) %MON dynstat_theta_sd             =   4.9953426721181E+00
(PID.TID 0000.0001) %MON dynstat_theta_del2           =   2.9839325675789E-03
(PID.TID 0000.0001) %MON dynstat_salt_max             =   5.9553200792795E+01
(PID.TID 0000.0001) %MON dynstat_salt_min             =   1.7775841106913E+01
(PID.TID 0000.0001) %MON dynstat_salt_mean            =   3.4752512731513E+01
(PID.TID 0000.0001) %MON dynstat_salt_sd              =   4.8908433272863E-01
(PID.TID 0000.0001) %MON dynstat_salt_del2            =   1.3669215957275E-03
(PID.TID 0000.0001) %MON forcing_qnet_max             =   6.6684569419836E+02
(PID.TID 0000.0001) %MON forcing_qnet_min             =  -2.5408597082528E+02
(PID.TID 0000.0001) %MON forcing_qnet_mean            =  -1.3291799706743E+01
(PID.TID 0000.0001) %MON forcing_qnet_sd              =   1.2428676269333E+02
(PID.TID 0000.0001) %MON forcing_qnet_del2            =   9.9479592334645E-01
(PID.TID 0000.0001) %MON forcing_qsw_max              =  -0.0000000000000E+00
(PID.TID 0000.0001) %MON forcing_qsw_min              =  -3.0183129457886E+02
(PID.TID 0000.0001) %MON forcing_qsw_mean             =  -1.8341676820395E+02
(PID.TID 0000.0001) %MON forcing_qsw_sd               =   7.9370657446856E+01
(PID.TID 0000.0001) %MON forcing_qsw_del2             =   2.8352339403791E-01
(PID.TID 0000.0001) %MON forcing_empmr_max            =   6.3572334544516E-04
(PID.TID 0000.0001) %MON forcing_empmr_min            =  -4.8465096490833E-04
(PID.TID 0000.0001) %MON forcing_empmr_mean           =  -4.1842308566663E-07
(PID.TID 0000.0001) %MON forcing_empmr_sd             =   5.6338985461359E-05
(PID.TID 0000.0001) %MON forcing_empmr_del2           =   1.0018230273842E-06
(PID.TID 0000.0001) %MON forcing_fu_max               =   2.4726979082249E-01
(PID.TID 0000.0001) %MON forcing_fu_min               =  -2.2495248635365E-01
(PID.TID 0000.0001) %MON forcing_fu_mean              =  -4.1613640166686E-03
(PID.TID 0000.0001) %MON forcing_fu_sd                =   6.4118558074085E-02
(PID.TID 0000.0001) %MON forcing_fu_del2              =   2.1738968991117E-04
(PID.TID 0000.0001) %MON forcing_fv_max               =   2.7159367144430E-01
(PID.TID 0000.0001) %MON forcing_fv_min               =  -3.3243525155752E-01
(PID.TID 0000.0001) %MON forcing_fv_mean              =  -1.4006274824070E-02
(PID.TID 0000.0001) %MON forcing_fv_sd                =   7.5162229588904E-02
(PID.TID 0000.0001) %MON forcing_fv_del2              =   2.3441267307004E-04
(PID.TID 0000.0001) %MON trAdv_CFL_u_max              =   8.1318304151416E-02
(PID.TID 0000.0001) %MON trAdv_CFL_v_max              =   8.9362302335503E-02
(PID.TID 0000.0001) %MON trAdv_CFL_w_max              =   7.6934071556454E-02
(PID.TID 0000.0001) %MON advcfl_uvel_max              =   8.4999605934191E-02
(PID.TID 0000.0001) %MON advcfl_vvel_max              =   8.4101994623339E-02
(PID.TID 0000.0001) %MON advcfl_wvel_max              =   6.9536673023989E-02
(PID.TID 0000.0001) %MON advcfl_W_hf_max              =   7.6934071556454E-02
(PID.TID 0000.0001) %MON pe_b_mean                    =   1.4343259526686E-02
(PID.TID 0000.0001) %MON ke_max                       =   4.0917239814101E-02
(PID.TID 0000.0001) %MON ke_mean                      =   2.0808471712418E-04
(PID.TID 0000.0001) %MON ke_vol                       =   1.3386019656660E+18
(PID.TID 0000.0001) %MON vort_r_min                   =  -1.2678811635639E-06
(PID.TID 0000.0001) %MON vort_r_max                   =   1.2785395830450E-06
(PID.TID 0000.0001) %MON vort_a_mean                  =  -2.0549865324846E-05
(PID.TID 0000.0001) %MON vort_a_sd                    =   7.5259722568715E-05
(PID.TID 0000.0001) %MON vort_p_mean                  =  -2.4806331009131E-05
(PID.TID 0000.0001) %MON vort_p_sd                    =   1.2827595754892E-04
(PID.TID 0000.0001) %MON surfExpan_theta_mean         =   4.4983798814975E-08
(PID.TID 0000.0001) %MON surfExpan_salt_mean          =   1.8150789850205E-08
(PID.TID 0000.0001) // =======================================================
(PID.TID 0000.0001) // End MONITOR dynamic field statistics
(PID.TID 0000.0001) // =======================================================
(PID.TID 0000.0001) // =======================================================
(PID.TID 0000.0001) // Begin MONITOR SEAICE statistics
(PID.TID 0000.0001) // =======================================================
(PID.TID 0000.0001) %MON seaice_tsnumber              =                 72008
(PID.TID 0000.0001) %MON seaice_time_sec              =   6.2214912000000E+09
(PID.TID 0000.0001) %MON seaice_uice_max              =   2.7006769367078E-01
(PID.TID 0000.0001) %MON seaice_uice_min              =  -2.9154392549175E-01
(PID.TID 0000.0001) %MON seaice_uice_mean             =  -8.6016706310621E-05
(PID.TID 0000.0001) %MON seaice_uice_sd               =   2.7968907560299E-02
(PID.TID 0000.0001) %MON seaice_uice_del2             =   5.3130126046602E-04
(PID.TID 0000.0001) %MON seaice_vice_max              =   2.9192199496284E-01
(PID.TID 0000.0001) %MON seaice_vice_min              =  -2.0114910538520E-01
(PID.TID 0000.0001) %MON seaice_vice_mean             =   1.1867717883742E-03
(PID.TID 0000.0001) %MON seaice_vice_sd               =   2.2582165264062E-02
(PID.TID 0000.0001) %MON seaice_vice_del2             =   4.4592827184726E-04
(PID.TID 0000.0001) // =======================================================
(PID.TID 0000.0001) // End MONITOR SEAICE statistics
(PID.TID 0000.0001) // =======================================================
(PID.TID 0000.0001) // =======================================================
(PID.TID 0000.0001) // Begin MONITOR Therm.SeaIce statistics
(PID.TID 0000.0001) // =======================================================
(PID.TID 0000.0001) %MON thSI_time_sec                =   6.2214912000000E+09
(PID.TID 0000.0001) %MON thSI_Ice_Area_G              =   1.6432829442081E+13
(PID.TID 0000.0001) %MON thSI_Ice_Area_S              =   3.7685585124789E+12
(PID.TID 0000.0001) %MON thSI_Ice_Area_N              =   1.2664270929602E+13
(PID.TID 0000.0001) %MON thSI_IceH_ave_G              =   1.8362494249051E+00
(PID.TID 0000.0001) %MON thSI_IceH_ave_S              =   1.1925259098087E+00
(PID.TID 0000.0001) %MON thSI_IceH_ave_N              =   2.0278048445566E+00
(PID.TID 0000.0001) %MON thSI_IceH_max_S              =   2.1127231671873E+00
(PID.TID 0000.0001) %MON thSI_IceH_max_N              =   5.2099002599548E+00
(PID.TID 0000.0001) %MON thSI_SnwH_ave_G              =   2.1052130580935E-01
(PID.TID 0000.0001) %MON thSI_SnwH_ave_S              =   1.4987358756847E-01
(PID.TID 0000.0001) %MON thSI_SnwH_ave_N              =   2.2856849353216E-01
(PID.TID 0000.0001) %MON thSI_SnwH_max_S              =   5.5174485202723E-01
(PID.TID 0000.0001) %MON thSI_SnwH_max_N              =   4.4086905594188E-01
(PID.TID 0000.0001) %MON thSI_Tsrf_ave_G              =  -2.0133064936365E+01
(PID.TID 0000.0001) %MON thSI_Tsrf_ave_S              =  -2.7225788688325E-02
(PID.TID 0000.0001) %MON thSI_Tsrf_ave_N              =  -2.6116041113335E+01
(PID.TID 0000.0001) %MON thSI_Tsrf_min_S              =  -5.4593605284350E+00
(PID.TID 0000.0001) %MON thSI_Tsrf_min_N              =  -3.2719507919494E+01
(PID.TID 0000.0001) %MON thSI_Tsrf_max_S              =   3.5996958002667E+00
(PID.TID 0000.0001) %MON thSI_Tsrf_max_N              =   6.7979532513907E+00
(PID.TID 0000.0001) %MON thSI_Tic1_ave_G              =  -1.1125082245978E+01
(PID.TID 0000.0001) %MON thSI_Tic1_ave_S              =  -1.0748246178840E+00
(PID.TID 0000.0001) %MON thSI_Tic1_ave_N              =  -1.2883872019657E+01
(PID.TID 0000.0001) %MON thSI_Tic1_min_S              =  -2.5263402104404E+00
(PID.TID 0000.0001) %MON thSI_Tic1_min_N              =  -1.8592083312077E+01
(PID.TID 0000.0001) %MON thSI_Tic1_max_S              =   0.0000000000000E+00
(PID.TID 0000.0001) %MON thSI_Tic1_max_N              =   0.0000000000000E+00
(PID.TID 0000.0001) %MON thSI_Tic2_ave_G              =  -4.7870723774429E+00
(PID.TID 0000.0001) %MON thSI_Tic2_ave_S              =  -1.5334734505958E+00
(PID.TID 0000.0001) %MON thSI_Tic2_ave_N              =  -5.3564504702188E+00
(PID.TID 0000.0001) %MON thSI_Tic2_min_S              =  -2.0045376882001E+00
(PID.TID 0000.0001) %MON thSI_Tic2_min_N              =  -7.9240755139537E+00
(PID.TID 0000.0001) %MON thSI_Tic2_max_S              =   0.0000000000000E+00
(PID.TID 0000.0001) %MON thSI_Tic2_max_N              =   0.0000000000000E+00
(PID.TID 0000.0001) %MON thSI_TotEnerg_G              =  -9.8352788980408E+21
(PID.TID 0000.0001) // =======================================================
(PID.TID 0000.0001) // End MONITOR Therm.SeaIce statistics
(PID.TID 0000.0001) // =======================================================
 EXTERNAL_FIELDS_LOAD,     72008 : iP,iLd,i0,i1=   12    1   12    1 ; Wght=  0.2333333333  0.7666666667
 SEAICE_LSR: ipass, FLEX_FACTOR, LSR_ERRORfu, LSR_ERRORfv, residIni =     1   0.317155 0.208280E-02 0.795811E-03 0.703018E-02
 SEAICE_LSR: Residual Initial ipass,Uice,Vice=         1  6.56713124E-03  2.50921877E-03
 SEAICE_LSR (ipass=        1) iters,dU,Resid=        2  6.91588162E-05  6.49246463E-05
 SEAICE_LSR (ipass=        1) iters,dV,Resid=        2  7.73454237E-05  9.83977292E-05
 SEAICE_LSR: ipass, FLEX_FACTOR, LSR_ERRORfu, LSR_ERRORfv, residIni =     2   0.239113 0.127377E-03 0.921421E-04 0.657472E-03
 SEAICE_LSR: Residual Initial ipass,Uice,Vice=         2  5.32705938E-04  3.85349752E-04
 SEAICE_LSR (ipass=        2) iters,dU,Resid=        2  4.33443326E-05  4.26318326E-05
 SEAICE_LSR (ipass=        2) iters,dV,Resid=        2  4.68189284E-05  5.85808462E-05
 SEAICE_LSR: ipass, FLEX_FACTOR, LSR_ERRORfu, LSR_ERRORfv, residIni =     3   0.213223 0.327896E-04 0.286477E-04 0.204206E-03
 SEAICE_LSR: Residual Initial ipass,Uice,Vice=         3  1.53781057E-04  1.34355969E-04
 SEAICE_LSR (ipass=        3) iters,dU,Resid=        4  1.75297860E-05  1.76453897E-05
 SEAICE_LSR (ipass=        3) iters,dV,Resid=        4  2.14492383E-05  3.11189747E-05
 SEAICE_LSR: ipass, FLEX_FACTOR, LSR_ERRORfu, LSR_ERRORfv, residIni =     4   0.206746 0.189490E-04 0.233892E-04 0.145598E-03
 SEAICE_LSR: Residual Initial ipass,Uice,Vice=         4  9.16533216E-05  1.13129885E-04
 SEAICE_LSR (ipass=        4) iters,dU,Resid=        4  8.55720423E-06  8.55770101E-06
 SEAICE_LSR (ipass=        4) iters,dV,Resid=        4  1.18015129E-05  1.73037082E-05
 SEAICE_LSR: ipass, FLEX_FACTOR, LSR_ERRORfu, LSR_ERRORfv, residIni =     5   0.204285 0.159401E-04 0.205511E-04 0.127314E-03
 SEAICE_LSR: Residual Initial ipass,Uice,Vice=         5  7.80287165E-05  1.00600246E-04
 SEAICE_LSR (ipass=        5) iters,dU,Resid=        2  1.32805470E-05  1.27011713E-05
 SEAICE_LSR (ipass=        5) iters,dV,Resid=        2  1.28157867E-05  1.69540500E-05
 SEAICE_LSR: ipass, FLEX_FACTOR, LSR_ERRORfu, LSR_ERRORfv, residIni =     6   0.202793 0.148553E-04 0.185479E-04 0.117181E-03
 SEAICE_LSR: Residual Initial ipass,Uice,Vice=         6  7.32534817E-05  9.14623761E-05
 SEAICE_LSR (ipass=        6) iters,dU,Resid=        2  1.31856991E-05  1.26126480E-05
 SEAICE_LSR (ipass=        6) iters,dV,Resid=        2  1.15772367E-05  1.55796252E-05
 SEAICE_LSR: ipass, FLEX_FACTOR, LSR_ERRORfu, LSR_ERRORfv, residIni =     7   0.201179 0.132297E-04 0.169751E-04 0.106978E-03
 SEAICE_LSR: Residual Initial ipass,Uice,Vice=         7  6.57608903E-05  8.43783554E-05
 SEAICE_LSR (ipass=        7) iters,dU,Resid=        2  1.22431206E-05  1.17642846E-05
 SEAICE_LSR (ipass=        7) iters,dV,Resid=        2  1.03090711E-05  1.41875545E-05
 SEAICE_LSR: ipass, FLEX_FACTOR, LSR_ERRORfu, LSR_ERRORfv, residIni =     8   0.199656 0.118284E-04 0.155949E-04 0.980349E-04
 SEAICE_LSR: Residual Initial ipass,Uice,Vice=         8  5.92439444E-05  7.81088411E-05
 SEAICE_LSR (ipass=        8) iters,dU,Resid=        2  1.12005131E-05  1.08127818E-05
 SEAICE_LSR (ipass=        8) iters,dV,Resid=        2  9.11101086E-06  1.29001405E-05
 SEAICE_LSR: ipass, FLEX_FACTOR, LSR_ERRORfu, LSR_ERRORfv, residIni =     9   0.198219 0.106373E-04 0.143636E-04 0.901711E-04
 SEAICE_LSR: Residual Initial ipass,Uice,Vice=         9  5.36642809E-05  7.24636118E-05
 SEAICE_LSR (ipass=        9) iters,dU,Resid=        2  1.01347728E-05  9.81702169E-06
 SEAICE_LSR (ipass=        9) iters,dV,Resid=        2  8.05401342E-06  1.17214922E-05
 SEAICE_LSR: ipass, FLEX_FACTOR, LSR_ERRORfu, LSR_ERRORfv, residIni =    10   0.196851 0.960369E-05 0.132612E-04 0.831772E-04
 SEAICE_LSR: Residual Initial ipass,Uice,Vice=        10  4.87866956E-05  6.73669607E-05
 SEAICE_LSR (ipass=       10) iters,dU,Resid=        2  9.08726874E-06  8.82238550E-06
 SEAICE_LSR (ipass=       10) iters,dV,Resid=        2  7.14196435E-06  1.06596238E-05
 cg2d: Sum(rhs),rhsMax =   2.21807206227294E+03  2.13417522518268E+01
(PID.TID 0000.0001)      cg2d_init_res =   2.46124123466735E+00
(PID.TID 0000.0001)      cg2d_iters(min,last) =      -1      70
(PID.TID 0000.0001)      cg2d_last_res =   4.50011869583859E-07
(PID.TID 0000.0001) // =======================================================
(PID.TID 0000.0001) // Begin MONITOR dynamic field statistics
(PID.TID 0000.0001) // =======================================================
(PID.TID 0000.0001) %MON time_tsnumber                =                 72009
(PID.TID 0000.0001) %MON time_secondsf                =   6.2215776000000E+09
(PID.TID 0000.0001) %MON dynstat_eta_max              =  -2.2133088319640E+00
(PID.TID 0000.0001) %MON dynstat_eta_min              =  -8.3489698470077E+00
(PID.TID 0000.0001) %MON dynstat_eta_mean             =  -3.2990340239737E+00
(PID.TID 0000.0001) %MON dynstat_eta_sd               =   8.7461566992431E-01
(PID.TID 0000.0001) %MON dynstat_eta_del2             =   2.2447345870957E-03
(PID.TID 0000.0001) %MON dynstat_uvel_max             =   2.1449355425845E-01
(PID.TID 0000.0001) %MON dynstat_uvel_min             =  -2.8788844476672E-01
(PID.TID 0000.0001) %MON dynstat_uvel_mean            =  -5.2432767929142E-04
(PID.TID 0000.0001) %MON dynstat_uvel_sd              =   1.4752982605842E-02
(PID.TID 0000.0001) %MON dynstat_uvel_del2            =   6.7812429175900E-05
(PID.TID 0000.0001) %MON dynstat_vvel_max             =   2.1617887880160E-01
(PID.TID 0000.0001) %MON dynstat_vvel_min             =  -2.0111689430211E-01
(PID.TID 0000.0001) %MON dynstat_vvel_mean            =  -3.9407061162079E-04
(PID.TID 0000.0001) %MON dynstat_vvel_sd              =   1.5245748348100E-02
(PID.TID 0000.0001) %MON dynstat_vvel_del2            =   6.2793082504346E-05
(PID.TID 0000.0001) %MON dynstat_wvel_max             =   1.0608536901546E-04
(PID.TID 0000.0001) %MON dynstat_wvel_min             =  -2.1297134382526E-04
(PID.TID 0000.0001) %MON dynstat_wvel_mean            =  -1.0731056415713E-09
(PID.TID 0000.0001) %MON dynstat_wvel_sd              =   5.3527511302208E-06
(PID.TID 0000.0001) %MON dynstat_wvel_del2            =   4.9084140182169E-08
(PID.TID 0000.0001) %MON dynstat_theta_max            =   3.1274224649083E+01
(PID.TID 0000.0001) %MON dynstat_theta_min            =  -6.6568685504869E+00
(PID.TID 0000.0001) %MON dynstat_theta_mean           =   3.0534216741632E+00
(PID.TID 0000.0001) %MON dynstat_theta_sd             =   4.9954120127317E+00
(PID.TID 0000.0001) %MON dynstat_theta_del2           =   2.9865068296902E-03
(PID.TID 0000.0001) %MON dynstat_salt_max             =   5.9555923645496E+01
(PID.TID 0000.0001) %MON dynstat_salt_min             =   1.7775825660794E+01
(PID.TID 0000.0001) %MON dynstat_salt_mean            =   3.4752512953332E+01
(PID.TID 0000.0001) %MON dynstat_salt_sd              =   4.8907592060897E-01
(PID.TID 0000.0001) %MON dynstat_salt_del2            =   1.3675458616804E-03
(PID.TID 0000.0001) %MON forcing_qnet_max             =   6.6851053250232E+02
(PID.TID 0000.0001) %MON forcing_qnet_min             =  -2.5409045241505E+02
(PID.TID 0000.0001) %MON forcing_qnet_mean            =  -1.3371403602170E+01
(PID.TID 0000.0001) %MON forcing_qnet_sd              =   1.2412705403853E+02
(PID.TID 0000.0001) %MON forcing_qnet_del2            =   9.9265346402476E-01
(PID.TID 0000.0001) %MON forcing_qsw_max              =  -0.0000000000000E+00
(PID.TID 0000.0001) %MON forcing_qsw_min              =  -3.0181929764305E+02
(PID.TID 0000.0001) %MON forcing_qsw_mean             =  -1.8352558278736E+02
(PID.TID 0000.0001) %MON forcing_qsw_sd               =   7.9303088912660E+01
(PID.TID 0000.0001) %MON forcing_qsw_del2             =   2.7980626305308E-01
(PID.TID 0000.0001) %MON forcing_empmr_max            =   7.1007719706418E-04
(PID.TID 0000.0001) %MON forcing_empmr_min            =  -4.4221777613249E-04
(PID.TID 0000.0001) %MON forcing_empmr_mean           =   2.5484800206043E-07
(PID.TID 0000.0001) %MON forcing_empmr_sd             =   5.6496894778355E-05
(PID.TID 0000.0001) %MON forcing_empmr_del2           =   1.0848721759047E-06
(PID.TID 0000.0001) %MON forcing_fu_max               =   2.4722174155228E-01
(PID.TID 0000.0001) %MON forcing_fu_min               =  -2.2809828301201E-01
(PID.TID 0000.0001) %MON forcing_fu_mean              =  -4.1233642845332E-03
(PID.TID 0000.0001) %MON forcing_fu_sd                =   6.4219277913625E-02
(PID.TID 0000.0001) %MON forcing_fu_del2              =   2.1887279898666E-04
(PID.TID 0000.0001) %MON forcing_fv_max               =   2.7427691301694E-01
(PID.TID 0000.0001) %MON forcing_fv_min               =  -3.3322315549145E-01
(PID.TID 0000.0001) %MON forcing_fv_mean              =  -1.4016353007940E-02
(PID.TID 0000.0001) %MON forcing_fv_sd                =   7.5265946376727E-02
(PID.TID 0000.0001) %MON forcing_fv_del2              =   2.3566667455862E-04
(PID.TID 0000.0001) %MON trAdv_CFL_u_max              =   8.1192767173874E-02
(PID.TID 0000.0001) %MON trAdv_CFL_v_max              =   8.9370341315768E-02
(PID.TID 0000.0001) %MON trAdv_CFL_w_max              =   7.6823748709780E-02
(PID.TID 0000.0001) %MON advcfl_uvel_max              =   8.5117216436628E-02
(PID.TID 0000.0001) %MON advcfl_vvel_max              =   8.4109639202144E-02
(PID.TID 0000.0001) %MON advcfl_wvel_max              =   6.9436694741518E-02
(PID.TID 0000.0001) %MON advcfl_W_hf_max              =   7.6823748709780E-02
(PID.TID 0000.0001) %MON pe_b_mean                    =   1.4342909366808E-02
(PID.TID 0000.0001) %MON ke_max                       =   4.0775580527459E-02
(PID.TID 0000.0001) %MON ke_mean                      =   2.0801695154542E-04
(PID.TID 0000.0001) %MON ke_vol                       =   1.3386019783763E+18
(PID.TID 0000.0001) %MON vort_r_min                   =  -1.2739436615741E-06
(PID.TID 0000.0001) %MON vort_r_max                   =   1.2760498967354E-06
(PID.TID 0000.0001) %MON vort_a_mean                  =  -2.0549865324846E-05
(PID.TID 0000.0001) %MON vort_a_sd                    =   7.5259722391544E-05
(PID.TID 0000.0001) %MON vort_p_mean                  =  -2.4806330415630E-05
(PID.TID 0000.0001) %MON vort_p_sd                    =   1.2827595628209E-04
(PID.TID 0000.0001) %MON surfExpan_theta_mean         =   4.6358777310882E-08
(PID.TID 0000.0001) %MON surfExpan_salt_mean          =   1.8074098295149E-08
(PID.TID 0000.0001) // =======================================================
(PID.TID 0000.0001) // End MONITOR dynamic field statistics
(PID.TID 0000.0001) // =======================================================
(PID.TID 0000.0001) // =======================================================
(PID.TID 0000.0001) // Begin MONITOR SEAICE statistics
(PID.TID 0000.0001) // =======================================================
(PID.TID 0000.0001) %MON seaice_tsnumber              =                 72009
(PID.TID 0000.0001) %MON seaice_time_sec              =   6.2215776000000E+09
(PID.TID 0000.0001) %MON seaice_uice_max              =   2.7057537957501E-01
(PID.TID 0000.0001) %MON seaice_uice_min              =  -2.8903039062888E-01
(PID.TID 0000.0001) %MON seaice_uice_mean             =  -1.8520771818288E-04
(PID.TID 0000.0001) %MON seaice_uice_sd               =   2.7314673380879E-02
(PID.TID 0000.0001) %MON seaice_uice_del2             =   5.2908688562592E-04
(PID.TID 0000.0001) %MON seaice_vice_max              =   2.8704724498087E-01
(PID.TID 0000.0001) %MON seaice_vice_min              =  -2.0486219178369E-01
(PID.TID 0000.0001) %MON seaice_vice_mean             =   1.1371624420599E-03
(PID.TID 0000.0001) %MON seaice_vice_sd               =   2.2691670205507E-02
(PID.TID 0000.0001) %MON seaice_vice_del2             =   4.5543089890839E-04
(PID.TID 0000.0001) // =======================================================
(PID.TID 0000.0001) // End MONITOR SEAICE statistics
(PID.TID 0000.0001) // =======================================================
(PID.TID 0000.0001) // =======================================================
(PID.TID 0000.0001) // Begin MONITOR Therm.SeaIce statistics
(PID.TID 0000.0001) // =======================================================
(PID.TID 0000.0001) %MON thSI_time_sec                =   6.2215776000000E+09
(PID.TID 0000.0001) %MON thSI_Ice_Area_G              =   1.6416510029956E+13
(PID.TID 0000.0001) %MON thSI_Ice_Area_S              =   3.6628192911054E+12
(PID.TID 0000.0001) %MON thSI_Ice_Area_N              =   1.2753690738850E+13
(PID.TID 0000.0001) %MON thSI_IceH_ave_G              =   1.8372311654108E+00
(PID.TID 0000.0001) %MON thSI_IceH_ave_S              =   1.1898827773563E+00
(PID.TID 0000.0001) %MON thSI_IceH_ave_N              =   2.0231475571741E+00
(PID.TID 0000.0001) %MON thSI_IceH_max_S              =   2.1109473404246E+00
(PID.TID 0000.0001) %MON thSI_IceH_max_N              =   5.2110983841981E+00
(PID.TID 0000.0001) %MON thSI_SnwH_ave_G              =   2.1016410248698E-01
(PID.TID 0000.0001) %MON thSI_SnwH_ave_S              =   1.4285969585050E-01
(PID.TID 0000.0001) %MON thSI_SnwH_ave_N              =   2.2949371334649E-01
(PID.TID 0000.0001) %MON thSI_SnwH_max_S              =   5.4558250488121E-01
(PID.TID 0000.0001) %MON thSI_SnwH_max_N              =   4.4456736143426E-01
(PID.TID 0000.0001) %MON thSI_Tsrf_ave_G              =  -2.0249107656867E+01
(PID.TID 0000.0001) %MON thSI_Tsrf_ave_S              =  -2.5673553735783E-02
(PID.TID 0000.0001) %MON thSI_Tsrf_ave_N              =  -2.6057213410891E+01
(PID.TID 0000.0001) %MON thSI_Tsrf_min_S              =  -5.4462210714469E+00
(PID.TID 0000.0001) %MON thSI_Tsrf_min_N              =  -3.2718550910476E+01
(PID.TID 0000.0001) %MON thSI_Tsrf_max_S              =   3.6451792995421E+00
(PID.TID 0000.0001) %MON thSI_Tsrf_max_N              =   6.7871758532712E+00
(PID.TID 0000.0001) %MON thSI_Tic1_ave_G              =  -1.1174775769740E+01
(PID.TID 0000.0001) %MON thSI_Tic1_ave_S              =  -1.0413342165697E+00
(PID.TID 0000.0001) %MON thSI_Tic1_ave_N              =  -1.2886418806462E+01
(PID.TID 0000.0001) %MON thSI_Tic1_min_S              =  -2.5213225998850E+00
(PID.TID 0000.0001) %MON thSI_Tic1_min_N              =  -1.8617189623756E+01
(PID.TID 0000.0001) %MON thSI_Tic1_max_S              =   0.0000000000000E+00
(PID.TID 0000.0001) %MON thSI_Tic1_max_N              =   0.0000000000000E+00
(PID.TID 0000.0001) %MON thSI_Tic2_ave_G              =  -4.8066290461689E+00
(PID.TID 0000.0001) %MON thSI_Tic2_ave_S              =  -1.5208453325389E+00
(PID.TID 0000.0001) %MON thSI_Tic2_ave_N              =  -5.3616318834674E+00
(PID.TID 0000.0001) %MON thSI_Tic2_min_S              =  -2.0040120578714E+00
(PID.TID 0000.0001) %MON thSI_Tic2_min_N              =  -7.9430828400868E+00
(PID.TID 0000.0001) %MON thSI_Tic2_max_S              =   0.0000000000000E+00
(PID.TID 0000.0001) %MON thSI_Tic2_max_N              =   0.0000000000000E+00
(PID.TID 0000.0001) %MON thSI_TotEnerg_G              =  -9.8299041907217E+21
(PID.TID 0000.0001) // =======================================================
(PID.TID 0000.0001) // End MONITOR Therm.SeaIce statistics
(PID.TID 0000.0001) // =======================================================
 EXTERNAL_FIELDS_LOAD,     72009 : iP,iLd,i0,i1=   12    1   12    1 ; Wght=  0.2000000000  0.8000000000
 SEAICE_LSR: ipass, FLEX_FACTOR, LSR_ERRORfu, LSR_ERRORfv, residIni =     1   0.312030 0.136495E-02 0.138846E-02 0.623986E-02
 SEAICE_LSR: Residual Initial ipass,Uice,Vice=         1  4.37441543E-03  4.44976287E-03
 SEAICE_LSR (ipass=        1) iters,dU,Resid=        2  6.43401632E-05  6.07385413E-05
 SEAICE_LSR (ipass=        1) iters,dV,Resid=        2  7.12660852E-05  8.96804751E-05
 SEAICE_LSR: ipass, FLEX_FACTOR, LSR_ERRORfu, LSR_ERRORfv, residIni =     2   0.228321 0.843717E-04 0.441519E-04 0.417070E-03
 SEAICE_LSR: Residual Initial ipass,Uice,Vice=         2  3.69530646E-04  1.93376151E-04
 SEAICE_LSR (ipass=        2) iters,dU,Resid=        2  4.00662520E-05  3.95881350E-05
 SEAICE_LSR (ipass=        2) iters,dV,Resid=        2  4.34905167E-05  5.44811651E-05
 SEAICE_LSR: ipass, FLEX_FACTOR, LSR_ERRORfu, LSR_ERRORfv, residIni =     3   0.213311 0.314309E-04 0.304403E-04 0.205124E-03
 SEAICE_LSR: Residual Initial ipass,Uice,Vice=         3  1.47347746E-04  1.42703541E-04
 SEAICE_LSR (ipass=        3) iters,dU,Resid=        4  1.61977578E-05  1.63199441E-05
 SEAICE_LSR (ipass=        3) iters,dV,Resid=        4  1.99865692E-05  2.89950300E-05
 SEAICE_LSR: ipass, FLEX_FACTOR, LSR_ERRORfu, LSR_ERRORfv, residIni =     4   0.207472 0.173946E-04 0.261508E-04 0.151382E-03
 SEAICE_LSR: Residual Initial ipass,Uice,Vice=         4  8.38408101E-05  1.26044867E-04
 SEAICE_LSR (ipass=        4) iters,dU,Resid=        2  1.68972880E-05  1.64495986E-05
 SEAICE_LSR (ipass=        4) iters,dV,Resid=        2  1.72496844E-05  2.31905354E-05
 SEAICE_LSR: ipass, FLEX_FACTOR, LSR_ERRORfu, LSR_ERRORfv, residIni =     5   0.205701 0.157625E-04 0.235067E-04 0.137590E-03
 SEAICE_LSR: Residual Initial ipass,Uice,Vice=         5  7.66282298E-05  1.14275957E-04
 SEAICE_LSR (ipass=        5) iters,dU,Resid=        2  1.49992162E-05  1.44924298E-05
 SEAICE_LSR (ipass=        5) iters,dV,Resid=        2  1.43233514E-05  1.93105393E-05
 SEAICE_LSR: ipass, FLEX_FACTOR, LSR_ERRORfu, LSR_ERRORfv, residIni =     6   0.204090 0.138560E-04 0.216507E-04 0.125949E-03
 SEAICE_LSR: Residual Initial ipass,Uice,Vice=         6  6.78916211E-05  1.06084369E-04
 SEAICE_LSR (ipass=        6) iters,dU,Resid=        2  1.30312193E-05  1.25843940E-05
 SEAICE_LSR (ipass=        6) iters,dV,Resid=        2  1.19776281E-05  1.63390793E-05
 SEAICE_LSR: ipass, FLEX_FACTOR, LSR_ERRORfu, LSR_ERRORfv, residIni =     7   0.202664 0.123123E-04 0.201084E-04 0.116342E-03
 SEAICE_LSR: Residual Initial ipass,Uice,Vice=         7  6.07522019E-05  9.92200880E-05
 SEAICE_LSR (ipass=        7) iters,dU,Resid=        2  1.14642226E-05  1.10907555E-05
 SEAICE_LSR (ipass=        7) iters,dV,Resid=        2  1.00914215E-05  1.40711846E-05
 SEAICE_LSR: ipass, FLEX_FACTOR, LSR_ERRORfu, LSR_ERRORfv, residIni =     8   0.201381 0.110577E-04 0.187792E-04 0.108217E-03
 SEAICE_LSR: Residual Initial ipass,Uice,Vice=         8  5.49091634E-05  9.32521063E-05
 SEAICE_LSR (ipass=        8) iters,dU,Resid=        2  1.01708065E-05  9.86002150E-06
 SEAICE_LSR (ipass=        8) iters,dV,Resid=        2  8.59004258E-06  1.22707444E-05
 SEAICE_LSR: ipass, FLEX_FACTOR, LSR_ERRORfu, LSR_ERRORfv, residIni =     9   0.200206 0.100015E-04 0.176186E-04 0.101193E-03
 SEAICE_LSR: Residual Initial ipass,Uice,Vice=         9  4.99559095E-05  8.80021190E-05
 SEAICE_LSR (ipass=        9) iters,dU,Resid=        2  9.04720695E-06  8.78756942E-06
 SEAICE_LSR (ipass=        9) iters,dV,Resid=        2  7.39495404E-06  1.08200765E-05
 SEAICE_LSR: ipass, FLEX_FACTOR, LSR_ERRORfu, LSR_ERRORfv, residIni =    10   0.199118 0.909479E-05 0.165924E-04 0.950269E-04
 SEAICE_LSR: Residual Initial ipass,Uice,Vice=        10  4.56754465E-05  8.33298051E-05
 SEAICE_LSR (ipass=       10) iters,dU,Resid=        2  8.04745752E-06  7.82932614E-06
 SEAICE_LSR (ipass=       10) iters,dV,Resid=        2  6.43255009E-06  9.62829607E-06
 cg2d: Sum(rhs),rhsMax =   2.21809575098317E+03  2.13440066453317E+01
(PID.TID 0000.0001)      cg2d_init_res =   2.51137982878937E+00
(PID.TID 0000.0001)      cg2d_iters(min,last) =      -1      69
(PID.TID 0000.0001)      cg2d_last_res =   5.39011450609218E-07
(PID.TID 0000.0001) // =======================================================
(PID.TID 0000.0001) // Begin MONITOR dynamic field statistics
(PID.TID 0000.0001) // =======================================================
(PID.TID 0000.0001) %MON time_tsnumber                =                 72010
(PID.TID 0000.0001) %MON time_secondsf                =   6.2216640000000E+09
(PID.TID 0000.0001) %MON dynstat_eta_max              =  -2.2130037208426E+00
(PID.TID 0000.0001) %MON dynstat_eta_min              =  -8.3498803521990E+00
(PID.TID 0000.0001) %MON dynstat_eta_mean             =  -3.2990692572118E+00
(PID.TID 0000.0001) %MON dynstat_eta_sd               =   8.7394729800669E-01
(PID.TID 0000.0001) %MON dynstat_eta_del2             =   2.2316820812040E-03
(PID.TID 0000.0001) %MON dynstat_uvel_max             =   2.1477034944468E-01
(PID.TID 0000.0001) %MON dynstat_uvel_min             =  -2.8742599692458E-01
(PID.TID 0000.0001) %MON dynstat_uvel_mean            =  -5.2385562864865E-04
(PID.TID 0000.0001) %MON dynstat_uvel_sd              =   1.4748918265309E-02
(PID.TID 0000.0001) %MON dynstat_uvel_del2            =   6.7772883058214E-05
(PID.TID 0000.0001) %MON dynstat_vvel_max             =   2.1538667674415E-01
(PID.TID 0000.0001) %MON dynstat_vvel_min             =  -2.0114855732405E-01
(PID.TID 0000.0001) %MON dynstat_vvel_mean            =  -3.9330432247050E-04
(PID.TID 0000.0001) %MON dynstat_vvel_sd              =   1.5244659687056E-02
(PID.TID 0000.0001) %MON dynstat_vvel_del2            =   6.2750198876050E-05
(PID.TID 0000.0001) %MON dynstat_wvel_max             =   1.0670042668397E-04
(PID.TID 0000.0001) %MON dynstat_wvel_min             =  -2.1267062051003E-04
(PID.TID 0000.0001) %MON dynstat_wvel_mean            =  -1.0371965621608E-09
(PID.TID 0000.0001) %MON dynstat_wvel_sd              =   5.3517728027252E-06
(PID.TID 0000.0001) %MON dynstat_wvel_del2            =   4.9023223292239E-08
(PID.TID 0000.0001) %MON dynstat_theta_max            =   3.1280707184254E+01
(PID.TID 0000.0001) %MON dynstat_theta_min            =  -6.6576837822872E+00
(PID.TID 0000.0001) %MON dynstat_theta_mean           =   3.0534971995880E+00
(PID.TID 0000.0001) %MON dynstat_theta_sd             =   4.9954826157633E+00
(PID.TID 0000.0001) %MON dynstat_theta_del2           =   2.9884565948250E-03
(PID.TID 0000.0001) %MON dynstat_salt_max             =   5.9557555141210E+01
(PID.TID 0000.0001) %MON dynstat_salt_min             =   1.7775801058903E+01
(PID.TID 0000.0001) %MON dynstat_salt_mean            =   3.4752513292578E+01
(PID.TID 0000.0001) %MON dynstat_salt_sd              =   4.8906678935797E-01
(PID.TID 0000.0001) %MON dynstat_salt_del2            =   1.3679298909508E-03
(PID.TID 0000.0001) %MON forcing_qnet_max             =   6.7015489555080E+02
(PID.TID 0000.0001) %MON forcing_qnet_min             =  -2.5408488140030E+02
(PID.TID 0000.0001) %MON forcing_qnet_mean            =  -1.3293084103782E+01
(PID.TID 0000.0001) %MON forcing_qnet_sd              =   1.2421950652141E+02
(PID.TID 0000.0001) %MON forcing_qnet_del2            =   1.0180186484130E+00
(PID.TID 0000.0001) %MON forcing_qsw_max              =  -0.0000000000000E+00
(PID.TID 0000.0001) %MON forcing_qsw_min              =  -3.0180730070724E+02
(PID.TID 0000.0001) %MON forcing_qsw_mean             =  -1.8360659595943E+02
(PID.TID 0000.0001) %MON forcing_qsw_sd               =   7.9224495390702E+01
(PID.TID 0000.0001) %MON forcing_qsw_del2             =   2.7477360639706E-01
(PID.TID 0000.0001) %MON forcing_empmr_max            =   1.0645320358781E-03
(PID.TID 0000.0001) %MON forcing_empmr_min            =  -5.7809056616216E-04
(PID.TID 0000.0001) %MON forcing_empmr_mean           =   4.2206483111455E-07
(PID.TID 0000.0001) %MON forcing_empmr_sd             =   5.8222534157531E-05
(PID.TID 0000.0001) %MON forcing_empmr_del2           =   1.2228769147327E-06
(PID.TID 0000.0001) %MON forcing_fu_max               =   2.4734156444157E-01
(PID.TID 0000.0001) %MON forcing_fu_min               =  -2.3124407967036E-01
(PID.TID 0000.0001) %MON forcing_fu_mean              =  -4.0859237033728E-03
(PID.TID 0000.0001) %MON forcing_fu_sd                =   6.4334317835141E-02
(PID.TID 0000.0001) %MON forcing_fu_del2              =   2.2060707899620E-04
(PID.TID 0000.0001) %MON forcing_fv_max               =   2.7696015458957E-01
(PID.TID 0000.0001) %MON forcing_fv_min               =  -3.3401105942538E-01
(PID.TID 0000.0001) %MON forcing_fv_mean              =  -1.4027192094739E-02
(PID.TID 0000.0001) %MON forcing_fv_sd                =   7.5379167479556E-02
(PID.TID 0000.0001) %MON forcing_fv_del2              =   2.3694484618247E-04
(PID.TID 0000.0001) %MON trAdv_CFL_u_max              =   8.1062344993681E-02
(PID.TID 0000.0001) %MON trAdv_CFL_v_max              =   8.9356216952457E-02
(PID.TID 0000.0001) %MON trAdv_CFL_w_max              =   7.6715813911367E-02
(PID.TID 0000.0001) %MON advcfl_uvel_max              =   8.5227056733954E-02
(PID.TID 0000.0001) %MON advcfl_vvel_max              =   8.4096425324632E-02
(PID.TID 0000.0001) %MON advcfl_wvel_max              =   6.9338647592705E-02
(PID.TID 0000.0001) %MON advcfl_W_hf_max              =   7.6715813911367E-02
(PID.TID 0000.0001) %MON pe_b_mean                    =   1.4342596268399E-02
(PID.TID 0000.0001) %MON ke_max                       =   4.0629973687638E-02
(PID.TID 0000.0001) %MON ke_mean                      =   2.0794597070001E-04
(PID.TID 0000.0001) %MON ke_vol                       =   1.3386019706348E+18
(PID.TID 0000.0001) %MON vort_r_min                   =  -1.2800880623162E-06
(PID.TID 0000.0001) %MON vort_r_max                   =   1.2736498214750E-06
(PID.TID 0000.0001) %MON vort_a_mean                  =  -2.0549865324846E-05
(PID.TID 0000.0001) %MON vort_a_sd                    =   7.5259722220216E-05
(PID.TID 0000.0001) %MON vort_p_mean                  =  -2.4806330177431E-05
(PID.TID 0000.0001) %MON vort_p_sd                    =   1.2827596241356E-04
(PID.TID 0000.0001) %MON surfExpan_theta_mean         =   4.7072331613509E-08
(PID.TID 0000.0001) %MON surfExpan_salt_mean          =   1.8427883837302E-08
(PID.TID 0000.0001) // =======================================================
(PID.TID 0000.0001) // End MONITOR dynamic field statistics
(PID.TID 0000.0001) // =======================================================
(PID.TID 0000.0001) // =======================================================
(PID.TID 0000.0001) // Begin MONITOR SEAICE statistics
(PID.TID 0000.0001) // =======================================================
(PID.TID 0000.0001) %MON seaice_tsnumber              =                 72010
(PID.TID 0000.0001) %MON seaice_time_sec              =   6.2216640000000E+09
(PID.TID 0000.0001) %MON seaice_uice_max              =   2.7161844514611E-01
(PID.TID 0000.0001) %MON seaice_uice_min              =  -2.8645264619384E-01
(PID.TID 0000.0001) %MON seaice_uice_mean             =  -1.1842302731758E-04
(PID.TID 0000.0001) %MON seaice_uice_sd               =   2.7675546988815E-02
(PID.TID 0000.0001) %MON seaice_uice_del2             =   5.4015516938272E-04
(PID.TID 0000.0001) %MON seaice_vice_max              =   2.8137645994151E-01
(PID.TID 0000.0001) %MON seaice_vice_min              =  -2.1184290483746E-01
(PID.TID 0000.0001) %MON seaice_vice_mean             =   1.1494600080519E-03
(PID.TID 0000.0001) %MON seaice_vice_sd               =   2.2126738209234E-02
(PID.TID 0000.0001) %MON seaice_vice_del2             =   4.5765806473440E-04
(PID.TID 0000.0001) // =======================================================
(PID.TID 0000.0001) // End MONITOR SEAICE statistics
(PID.TID 0000.0001) // =======================================================
(PID.TID 0000.0001) // =======================================================
(PID.TID 0000.0001) // Begin MONITOR Therm.SeaIce statistics
(PID.TID 0000.0001) // =======================================================
(PID.TID 0000.0001) %MON thSI_time_sec                =   6.2216640000000E+09
(PID.TID 0000.0001) %MON thSI_Ice_Area_G              =   1.6390278027949E+13
(PID.TID 0000.0001) %MON thSI_Ice_Area_S              =   3.5650814494994E+12
(PID.TID 0000.0001) %MON thSI_Ice_Area_N              =   1.2825196578449E+13
(PID.TID 0000.0001) %MON thSI_IceH_ave_G              =   1.8395398721196E+00
(PID.TID 0000.0001) %MON thSI_IceH_ave_S              =   1.1855939489355E+00
(PID.TID 0000.0001) %MON thSI_IceH_ave_N              =   2.0213203591054E+00
(PID.TID 0000.0001) %MON thSI_IceH_max_S              =   2.1091327631544E+00
(PID.TID 0000.0001) %MON thSI_IceH_max_N              =   5.2123159004307E+00
(PID.TID 0000.0001) %MON thSI_SnwH_ave_G              =   2.0997975207349E-01
(PID.TID 0000.0001) %MON thSI_SnwH_ave_S              =   1.3560301389200E-01
(PID.TID 0000.0001) %MON thSI_SnwH_ave_N              =   2.3065461096888E-01
(PID.TID 0000.0001) %MON thSI_SnwH_max_S              =   5.3896841469096E-01
(PID.TID 0000.0001) %MON thSI_SnwH_max_N              =   4.4836491369205E-01
(PID.TID 0000.0001) %MON thSI_Tsrf_ave_G              =  -2.0401596400300E+01
(PID.TID 0000.0001) %MON thSI_Tsrf_ave_S              =  -2.2449473797608E-02
(PID.TID 0000.0001) %MON thSI_Tsrf_ave_N              =  -2.6066485684444E+01
(PID.TID 0000.0001) %MON thSI_Tsrf_min_S              =  -5.4221039384162E+00
(PID.TID 0000.0001) %MON thSI_Tsrf_min_N              =  -3.2717696779175E+01
(PID.TID 0000.0001) %MON thSI_Tsrf_max_S              =   3.6908422251846E+00
(PID.TID 0000.0001) %MON thSI_Tsrf_max_N              =   6.7770864879243E+00
(PID.TID 0000.0001) %MON thSI_Tic1_ave_G              =  -1.1223695585338E+01
(PID.TID 0000.0001) %MON thSI_Tic1_ave_S              =  -1.0083715416633E+00
(PID.TID 0000.0001) %MON thSI_Tic1_ave_N              =  -1.2889248356030E+01
(PID.TID 0000.0001) %MON thSI_Tic1_min_S              =  -2.5163126775511E+00
(PID.TID 0000.0001) %MON thSI_Tic1_min_N              =  -1.8668528598837E+01
(PID.TID 0000.0001) %MON thSI_Tic1_max_S              =   0.0000000000000E+00
(PID.TID 0000.0001) %MON thSI_Tic1_max_N              =   0.0000000000000E+00
(PID.TID 0000.0001) %MON thSI_Tic2_ave_G              =  -4.8241300641094E+00
(PID.TID 0000.0001) %MON thSI_Tic2_ave_S              =  -1.4999803308961E+00
(PID.TID 0000.0001) %MON thSI_Tic2_ave_N              =  -5.3661145155744E+00
(PID.TID 0000.0001) %MON thSI_Tic2_min_S              =  -2.0042196244194E+00
(PID.TID 0000.0001) %MON thSI_Tic2_min_N              =  -7.9598714929455E+00
(PID.TID 0000.0001) %MON thSI_Tic2_max_S              =   0.0000000000000E+00
(PID.TID 0000.0001) %MON thSI_Tic2_max_N              =   0.0000000000000E+00
(PID.TID 0000.0001) %MON thSI_TotEnerg_G              =  -9.8256899668985E+21
(PID.TID 0000.0001) // =======================================================
(PID.TID 0000.0001) // End MONITOR Therm.SeaIce statistics
(PID.TID 0000.0001) // =======================================================
 Compute Stats, Diag. #     23  ETAN      vol(   0 ): 3.639E+15  Parms: SM      M1      
 Compute Stats, Diag. #     30  UVEL      vol(   0 ): 1.230E+19  Parms: UUR     MR      
 Compute Stats, Diag. #     31  VVEL      vol(   0 ): 1.242E+19  Parms: VVR     MR      
 Compute Stats, Diag. #     32  WVEL      vol(   0 ): 1.315E+19  Parms: WM      LR      
 Compute Stats, Diag. #     26  THETA     vol(   0 ): 1.339E+19  Parms: SMR     MR      
 Compute Stats, Diag. #     27  SALT      vol(   0 ): 1.339E+19  Parms: SMR     MR      
 Compute Stats, Diag. #     80  CONVADJ   vol(   0 ): 1.315E+19  Parms: SMR     LR      
 Compute Stats, Diag. #     25  DETADT2   vol(   0 ): 3.639E+15  Parms: SM      M1      
 Compute Stats, Diag. #    325  SI_Fract  vol(   0 ): 3.639E+15  Parms: SM P    M1      
 Compute Stats, Diag. #    325  SI_Fract  vol(   1 ): 1.289E+15  Parms: SM P    M1      
 Compute Stats, Diag. #    325  SI_Fract  vol(   3 ): 7.935E+14  Parms: SM P    M1      
 Compute Stats, Diag. #    326  SI_Thick  vol(   0 ): 1.678E+14  Parms: SM PC   M1      
    use Counter Mate  #    325  SI_Fract  vol(   0 ): 3.639E+15 integral 1.678E+14
 Compute Stats, Diag. #    326  SI_Thick  vol(   1 ): 4.327E+13  Parms: SM PC   M1      
    use Counter Mate  #    325  SI_Fract  vol(   1 ): 1.289E+15 integral 4.327E+13
 Compute Stats, Diag. #    326  SI_Thick  vol(   3 ): 1.246E+14  Parms: SM PC   M1      
    use Counter Mate  #    325  SI_Fract  vol(   3 ): 7.935E+14 integral 1.246E+14
 Compute Stats, Diag. #    327  SI_SnowH  vol(   0 ): 1.678E+14  Parms: SM PC   M1      
    use Counter Mate  #    325  SI_Fract  vol(   0 ): 3.639E+15 integral 1.678E+14
 Compute Stats, Diag. #    327  SI_SnowH  vol(   1 ): 4.327E+13  Parms: SM PC   M1      
    use Counter Mate  #    325  SI_Fract  vol(   1 ): 1.289E+15 integral 4.327E+13
 Compute Stats, Diag. #    327  SI_SnowH  vol(   3 ): 1.246E+14  Parms: SM PC   M1      
    use Counter Mate  #    325  SI_Fract  vol(   3 ): 7.935E+14 integral 1.246E+14
 Compute Stats, Diag. #    328  SI_Tsrf   vol(   0 ): 1.678E+14  Parms: SM  C   M1      
    use Counter Mate  #    325  SI_Fract  vol(   0 ): 3.639E+15 integral 1.678E+14
 Compute Stats, Diag. #    328  SI_Tsrf   vol(   1 ): 4.327E+13  Parms: SM  C   M1      
    use Counter Mate  #    325  SI_Fract  vol(   1 ): 1.289E+15 integral 4.327E+13
 Compute Stats, Diag. #    328  SI_Tsrf   vol(   3 ): 1.246E+14  Parms: SM  C   M1      
    use Counter Mate  #    325  SI_Fract  vol(   3 ): 7.935E+14 integral 1.246E+14
 Compute Stats, Diag. #    329  SI_Tice1  vol(   0 ): 1.678E+14  Parms: SM  C   M1      
    use Counter Mate  #    325  SI_Fract  vol(   0 ): 3.639E+15 integral 1.678E+14
 Compute Stats, Diag. #    329  SI_Tice1  vol(   1 ): 4.327E+13  Parms: SM  C   M1      
    use Counter Mate  #    325  SI_Fract  vol(   1 ): 1.289E+15 integral 4.327E+13
 Compute Stats, Diag. #    329  SI_Tice1  vol(   3 ): 1.246E+14  Parms: SM  C   M1      
    use Counter Mate  #    325  SI_Fract  vol(   3 ): 7.935E+14 integral 1.246E+14
 Compute Stats, Diag. #    330  SI_Tice2  vol(   0 ): 1.678E+14  Parms: SM  C   M1      
    use Counter Mate  #    325  SI_Fract  vol(   0 ): 3.639E+15 integral 1.678E+14
 Compute Stats, Diag. #    330  SI_Tice2  vol(   1 ): 4.327E+13  Parms: SM  C   M1      
    use Counter Mate  #    325  SI_Fract  vol(   1 ): 1.289E+15 integral 4.327E+13
 Compute Stats, Diag. #    330  SI_Tice2  vol(   3 ): 1.246E+14  Parms: SM  C   M1      
    use Counter Mate  #    325  SI_Fract  vol(   3 ): 7.935E+14 integral 1.246E+14
 Compute Stats, Diag. #    331  SI_Qice1  vol(   0 ): 3.033E+14  Parms: SM  C   M1      
    use Counter Mate  #    326  SI_Thick  vol(   0 ): 1.678E+14 integral 3.033E+14
 Compute Stats, Diag. #    331  SI_Qice1  vol(   1 ): 5.086E+13  Parms: SM  C   M1      
    use Counter Mate  #    326  SI_Thick  vol(   1 ): 4.327E+13 integral 5.086E+13
 Compute Stats, Diag. #    331  SI_Qice1  vol(   3 ): 2.525E+14  Parms: SM  C   M1      
    use Counter Mate  #    326  SI_Thick  vol(   3 ): 1.246E+14 integral 2.525E+14
 Compute Stats, Diag. #    332  SI_Qice2  vol(   0 ): 3.033E+14  Parms: SM  C   M1      
    use Counter Mate  #    326  SI_Thick  vol(   0 ): 1.678E+14 integral 3.033E+14
 Compute Stats, Diag. #    332  SI_Qice2  vol(   1 ): 5.086E+13  Parms: SM  C   M1      
    use Counter Mate  #    326  SI_Thick  vol(   1 ): 4.327E+13 integral 5.086E+13
 Compute Stats, Diag. #    332  SI_Qice2  vol(   3 ): 2.525E+14  Parms: SM  C   M1      
    use Counter Mate  #    326  SI_Thick  vol(   3 ): 1.246E+14 integral 2.525E+14
 Compute Stats, Diag. #    335  SIsnwPrc  vol(   0 ): 1.678E+14  Parms: SM  C   M1      
    use Counter Mate  #    325  SI_Fract  vol(   0 ): 3.639E+15 integral 1.678E+14
 Compute Stats, Diag. #    335  SIsnwPrc  vol(   1 ): 4.327E+13  Parms: SM  C   M1      
    use Counter Mate  #    325  SI_Fract  vol(   1 ): 1.289E+15 integral 4.327E+13
 Compute Stats, Diag. #    335  SIsnwPrc  vol(   3 ): 1.246E+14  Parms: SM  C   M1      
    use Counter Mate  #    325  SI_Fract  vol(   3 ): 7.935E+14 integral 1.246E+14
 Compute Stats, Diag. #    334  SIalbedo  vol(   0 ): 1.678E+14  Parms: SM PC   M1      
    use Counter Mate  #    325  SI_Fract  vol(   0 ): 3.639E+15 integral 1.678E+14
 Compute Stats, Diag. #    334  SIalbedo  vol(   1 ): 4.327E+13  Parms: SM PC   M1      
    use Counter Mate  #    325  SI_Fract  vol(   1 ): 1.289E+15 integral 4.327E+13
 Compute Stats, Diag. #    334  SIalbedo  vol(   3 ): 1.246E+14  Parms: SM PC   M1      
    use Counter Mate  #    325  SI_Fract  vol(   3 ): 7.935E+14 integral 1.246E+14
 Compute Stats, Diag. #    333  SIsnwAge  vol(   0 ): 3.639E+15  Parms: SM P    M1      
 Compute Stats, Diag. #    333  SIsnwAge  vol(   1 ): 1.289E+15  Parms: SM P    M1      
 Compute Stats, Diag. #    333  SIsnwAge  vol(   3 ): 7.935E+14  Parms: SM P    M1      
 Compute Stats, Diag. #    338  SIflx2oc  vol(   0 ): 3.639E+15  Parms: SM      M1      
 Compute Stats, Diag. #    338  SIflx2oc  vol(   1 ): 1.289E+15  Parms: SM      M1      
 Compute Stats, Diag. #    338  SIflx2oc  vol(   3 ): 7.935E+14  Parms: SM      M1      
 Compute Stats, Diag. #    339  SIfrw2oc  vol(   0 ): 3.639E+15  Parms: SM      M1      
 Compute Stats, Diag. #    339  SIfrw2oc  vol(   1 ): 1.289E+15  Parms: SM      M1      
 Compute Stats, Diag. #    339  SIfrw2oc  vol(   3 ): 7.935E+14  Parms: SM      M1      
 Compute Stats, Diag. #    340  SIsaltFx  vol(   0 ): 3.639E+15  Parms: SM      M1      
 Compute Stats, Diag. #    340  SIsaltFx  vol(   1 ): 1.289E+15  Parms: SM      M1      
 Compute Stats, Diag. #    340  SIsaltFx  vol(   3 ): 7.935E+14  Parms: SM      M1      
 Compute Stats, Diag. #    336  SIflxAtm  vol(   0 ): 3.639E+15  Parms: SM      M1      
 Compute Stats, Diag. #    336  SIflxAtm  vol(   1 ): 1.289E+15  Parms: SM      M1      
 Compute Stats, Diag. #    336  SIflxAtm  vol(   3 ): 7.935E+14  Parms: SM      M1      
 Compute Stats, Diag. #    337  SIfrwAtm  vol(   0 ): 3.639E+15  Parms: SM      M1      
 Compute Stats, Diag. #    337  SIfrwAtm  vol(   1 ): 1.289E+15  Parms: SM      M1      
 Compute Stats, Diag. #    337  SIfrwAtm  vol(   3 ): 7.935E+14  Parms: SM      M1      
(PID.TID 0000.0001) DIAGSTATS_CLOSE_IO: close file: dynStDiag.0000072000.txt , unit=     9
(PID.TID 0000.0001) DIAGSTATS_CLOSE_IO: close file: thSIceStDiag.0000072000.txt , unit=    10
(PID.TID 0000.0001) %CHECKPOINT     72010 ckptA
(PID.TID 0000.0001)   Seconds in section "ALL                    [THE_MODEL_MAIN]":
(PID.TID 0000.0001)           User time:   11.962725266814232
(PID.TID 0000.0001)         System time:   4.4046998023986816E-002
(PID.TID 0000.0001)     Wall clock time:   12.011092185974121
(PID.TID 0000.0001)          No. starts:           1
(PID.TID 0000.0001)           No. stops:           1
(PID.TID 0000.0001)   Seconds in section "INITIALISE_FIXED       [THE_MODEL_MAIN]":
(PID.TID 0000.0001)           User time:  0.13946400489658117
(PID.TID 0000.0001)         System time:   1.5967000741511583E-002
(PID.TID 0000.0001)     Wall clock time:  0.15553903579711914
(PID.TID 0000.0001)          No. starts:           1
(PID.TID 0000.0001)           No. stops:           1
(PID.TID 0000.0001)   Seconds in section "THE_MAIN_LOOP          [THE_MODEL_MAIN]":
(PID.TID 0000.0001)           User time:   11.823227584362030
(PID.TID 0000.0001)         System time:   2.8069999068975449E-002
(PID.TID 0000.0001)     Wall clock time:   11.855520963668823
(PID.TID 0000.0001)          No. starts:           1
(PID.TID 0000.0001)           No. stops:           1
(PID.TID 0000.0001)   Seconds in section "INITIALISE_VARIA    [THE_MAIN_LOOP]":
(PID.TID 0000.0001)           User time:  0.32244199514389038
(PID.TID 0000.0001)         System time:   2.3881001397967339E-002
(PID.TID 0000.0001)     Wall clock time:  0.34648799896240234
(PID.TID 0000.0001)          No. starts:           1
(PID.TID 0000.0001)           No. stops:           1
(PID.TID 0000.0001)   Seconds in section "MAIN LOOP           [THE_MAIN_LOOP]":
(PID.TID 0000.0001)           User time:   11.500766873359680
(PID.TID 0000.0001)         System time:   4.1869990527629852E-003
(PID.TID 0000.0001)     Wall clock time:   11.509013891220093
(PID.TID 0000.0001)          No. starts:           1
(PID.TID 0000.0001)           No. stops:           1
(PID.TID 0000.0001)   Seconds in section "MAIN_DO_LOOP        [THE_MAIN_LOOP]":
(PID.TID 0000.0001)           User time:   11.500704377889633
(PID.TID 0000.0001)         System time:   4.1859969496726990E-003
(PID.TID 0000.0001)     Wall clock time:   11.508949041366577
(PID.TID 0000.0001)          No. starts:          10
(PID.TID 0000.0001)           No. stops:          10
(PID.TID 0000.0001)   Seconds in section "FORWARD_STEP        [MAIN_DO_LOOP]":
(PID.TID 0000.0001)           User time:   11.500587135553360
(PID.TID 0000.0001)         System time:   4.1859969496726990E-003
(PID.TID 0000.0001)     Wall clock time:   11.508833169937134
(PID.TID 0000.0001)          No. starts:          10
(PID.TID 0000.0001)           No. stops:          10
(PID.TID 0000.0001)   Seconds in section "DO_STATEVARS_DIAGS  [FORWARD_STEP]":
(PID.TID 0000.0001)           User time:  0.24644815921783447
(PID.TID 0000.0001)         System time:   1.5100091695785522E-004
(PID.TID 0000.0001)     Wall clock time:  0.24669003486633301
(PID.TID 0000.0001)          No. starts:          30
(PID.TID 0000.0001)           No. stops:          30
(PID.TID 0000.0001)   Seconds in section "LOAD_FIELDS_DRIVER  [FORWARD_STEP]":
(PID.TID 0000.0001)           User time:  0.11765924096107483
(PID.TID 0000.0001)         System time:   0.0000000000000000
(PID.TID 0000.0001)     Wall clock time:  0.11771225929260254
(PID.TID 0000.0001)          No. starts:          10
(PID.TID 0000.0001)           No. stops:          10
(PID.TID 0000.0001)   Seconds in section "EXF_GETFORCING     [LOAD_FLDS_DRIVER]":
(PID.TID 0000.0001)           User time:  0.11297205090522766
(PID.TID 0000.0001)         System time:   0.0000000000000000
(PID.TID 0000.0001)     Wall clock time:  0.11302685737609863
(PID.TID 0000.0001)          No. starts:          10
(PID.TID 0000.0001)           No. stops:          10
(PID.TID 0000.0001)   Seconds in section "EXTERNAL_FLDS_LOAD [LOAD_FLDS_DRIVER]":
(PID.TID 0000.0001)           User time:   4.4861435890197754E-003
(PID.TID 0000.0001)         System time:   0.0000000000000000
(PID.TID 0000.0001)     Wall clock time:   4.4953823089599609E-003
(PID.TID 0000.0001)          No. starts:          10
(PID.TID 0000.0001)           No. stops:          10
(PID.TID 0000.0001)   Seconds in section "DO_ATMOSPHERIC_PHYS [FORWARD_STEP]":
(PID.TID 0000.0001)           User time:   5.9187412261962891E-005
(PID.TID 0000.0001)         System time:   0.0000000000000000
(PID.TID 0000.0001)     Wall clock time:   5.9366226196289062E-005
(PID.TID 0000.0001)          No. starts:          10
(PID.TID 0000.0001)           No. stops:          10
(PID.TID 0000.0001)   Seconds in section "DO_OCEANIC_PHYS     [FORWARD_STEP]":
(PID.TID 0000.0001)           User time:   3.7771258354187012
(PID.TID 0000.0001)         System time:   3.4000724554061890E-005
(PID.TID 0000.0001)     Wall clock time:   3.7785232067108154
(PID.TID 0000.0001)          No. starts:          10
(PID.TID 0000.0001)           No. stops:          10
(PID.TID 0000.0001)   Seconds in section "THSICE_MAIN     [DO_OCEANIC_PHYS]":
(PID.TID 0000.0001)           User time:   7.6940953731536865E-002
(PID.TID 0000.0001)         System time:   0.0000000000000000
(PID.TID 0000.0001)     Wall clock time:   7.6989650726318359E-002
(PID.TID 0000.0001)          No. starts:          10
(PID.TID 0000.0001)           No. stops:          10
(PID.TID 0000.0001)   Seconds in section "SEAICE_MODEL    [DO_OCEANIC_PHYS]":
(PID.TID 0000.0001)           User time:   2.6520456075668335
(PID.TID 0000.0001)         System time:   3.4000724554061890E-005
(PID.TID 0000.0001)     Wall clock time:   2.6530423164367676
(PID.TID 0000.0001)          No. starts:          10
(PID.TID 0000.0001)           No. stops:          10
(PID.TID 0000.0001)   Seconds in section "SEAICE_DYNSOLVER   [SEAICE_MODEL]":
(PID.TID 0000.0001)           User time:   2.4790670275688171
(PID.TID 0000.0001)         System time:   0.0000000000000000
(PID.TID 0000.0001)     Wall clock time:   2.4799733161926270
(PID.TID 0000.0001)          No. starts:          10
(PID.TID 0000.0001)           No. stops:          10
(PID.TID 0000.0001)   Seconds in section "DYNAMICS            [FORWARD_STEP]":
(PID.TID 0000.0001)           User time:   2.6292987465858459
(PID.TID 0000.0001)         System time:   0.0000000000000000
(PID.TID 0000.0001)     Wall clock time:   2.6303310394287109
(PID.TID 0000.0001)          No. starts:          10
(PID.TID 0000.0001)           No. stops:          10
(PID.TID 0000.0001)   Seconds in section "UPDATE_R_STAR       [FORWARD_STEP]":
(PID.TID 0000.0001)           User time:  0.15474951267242432
(PID.TID 0000.0001)         System time:   0.0000000000000000
(PID.TID 0000.0001)     Wall clock time:  0.15484833717346191
(PID.TID 0000.0001)          No. starts:          10
(PID.TID 0000.0001)           No. stops:          10
(PID.TID 0000.0001)   Seconds in section "UPDATE_CG2D         [FORWARD_STEP]":
(PID.TID 0000.0001)           User time:   5.7682514190673828E-002
(PID.TID 0000.0001)         System time:   0.0000000000000000
(PID.TID 0000.0001)     Wall clock time:   5.7693004608154297E-002
(PID.TID 0000.0001)          No. starts:          10
(PID.TID 0000.0001)           No. stops:          10
(PID.TID 0000.0001)   Seconds in section "SOLVE_FOR_PRESSURE  [FORWARD_STEP]":
(PID.TID 0000.0001)           User time:  0.88385903835296631
(PID.TID 0000.0001)         System time:   0.0000000000000000
(PID.TID 0000.0001)     Wall clock time:  0.88407826423645020
(PID.TID 0000.0001)          No. starts:          10
(PID.TID 0000.0001)           No. stops:          10
(PID.TID 0000.0001)   Seconds in section "MOM_CORRECTION_STEP [FORWARD_STEP]":
(PID.TID 0000.0001)           User time:   8.8681936264038086E-002
(PID.TID 0000.0001)         System time:   0.0000000000000000
(PID.TID 0000.0001)     Wall clock time:   8.8764429092407227E-002
(PID.TID 0000.0001)          No. starts:          10
(PID.TID 0000.0001)           No. stops:          10
(PID.TID 0000.0001)   Seconds in section "INTEGR_CONTINUITY   [FORWARD_STEP]":
(PID.TID 0000.0001)           User time:  0.14689528942108154
(PID.TID 0000.0001)         System time:   0.0000000000000000
(PID.TID 0000.0001)     Wall clock time:  0.14694428443908691
(PID.TID 0000.0001)          No. starts:          10
(PID.TID 0000.0001)           No. stops:          10
(PID.TID 0000.0001)   Seconds in section "CALC_R_STAR         [FORWARD_STEP]":
(PID.TID 0000.0001)           User time:   2.8788566589355469E-002
(PID.TID 0000.0001)         System time:   0.0000000000000000
(PID.TID 0000.0001)     Wall clock time:   2.8804779052734375E-002
(PID.TID 0000.0001)          No. starts:          10
(PID.TID 0000.0001)           No. stops:          10
(PID.TID 0000.0001)   Seconds in section "BLOCKING_EXCHANGES  [FORWARD_STEP]":
(PID.TID 0000.0001)           User time:  0.14993405342102051
(PID.TID 0000.0001)         System time:   7.9981982707977295E-006
(PID.TID 0000.0001)     Wall clock time:  0.15001320838928223
(PID.TID 0000.0001)          No. starts:          20
(PID.TID 0000.0001)           No. stops:          20
(PID.TID 0000.0001)   Seconds in section "THERMODYNAMICS      [FORWARD_STEP]":
(PID.TID 0000.0001)           User time:   2.3617115020751953
(PID.TID 0000.0001)         System time:   0.0000000000000000
(PID.TID 0000.0001)     Wall clock time:   2.3624887466430664
(PID.TID 0000.0001)          No. starts:          10
(PID.TID 0000.0001)           No. stops:          10
(PID.TID 0000.0001)   Seconds in section "TRC_CORRECTION_STEP [FORWARD_STEP]":
(PID.TID 0000.0001)           User time:   6.7472457885742188E-005
(PID.TID 0000.0001)         System time:   0.0000000000000000
(PID.TID 0000.0001)     Wall clock time:   6.4611434936523438E-005
(PID.TID 0000.0001)          No. starts:          10
(PID.TID 0000.0001)           No. stops:          10
(PID.TID 0000.0001)   Seconds in section "DO_STATEVARS_TAVE   [FORWARD_STEP]":
(PID.TID 0000.0001)           User time:   6.0915946960449219E-005
(PID.TID 0000.0001)         System time:   0.0000000000000000
(PID.TID 0000.0001)     Wall clock time:   5.9843063354492188E-005
(PID.TID 0000.0001)          No. starts:          10
(PID.TID 0000.0001)           No. stops:          10
(PID.TID 0000.0001)   Seconds in section "MONITOR             [FORWARD_STEP]":
(PID.TID 0000.0001)           User time:  0.77487099170684814
(PID.TID 0000.0001)         System time:   0.0000000000000000
(PID.TID 0000.0001)     Wall clock time:  0.77513766288757324
(PID.TID 0000.0001)          No. starts:          10
(PID.TID 0000.0001)           No. stops:          10
(PID.TID 0000.0001)   Seconds in section "DO_THE_MODEL_IO     [FORWARD_STEP]":
(PID.TID 0000.0001)           User time:   5.0379753112792969E-002
(PID.TID 0000.0001)         System time:   3.9889998733997345E-003
(PID.TID 0000.0001)     Wall clock time:   5.4399490356445312E-002
(PID.TID 0000.0001)          No. starts:          10
(PID.TID 0000.0001)           No. stops:          10
(PID.TID 0000.0001)   Seconds in section "DO_WRITE_PICKUP     [FORWARD_STEP]":
(PID.TID 0000.0001)           User time:   3.0830025672912598E-002
(PID.TID 0000.0001)         System time:   0.0000000000000000
(PID.TID 0000.0001)     Wall clock time:   3.0845642089843750E-002
(PID.TID 0000.0001)          No. starts:          10
(PID.TID 0000.0001)           No. stops:          10
(PID.TID 0000.0001) // ======================================================
(PID.TID 0000.0001) // Tile <-> Tile communication statistics
(PID.TID 0000.0001) // ======================================================
(PID.TID 0000.0001) // o Tile number: 000001
(PID.TID 0000.0001) //         No. X exchanges =              0
(PID.TID 0000.0001) //            Max. X spins =              0
(PID.TID 0000.0001) //            Min. X spins =     1000000000
(PID.TID 0000.0001) //          Total. X spins =              0
(PID.TID 0000.0001) //            Avg. X spins =       0.00E+00
(PID.TID 0000.0001) //         No. Y exchanges =              0
(PID.TID 0000.0001) //            Max. Y spins =              0
(PID.TID 0000.0001) //            Min. Y spins =     1000000000
(PID.TID 0000.0001) //          Total. Y spins =              0
(PID.TID 0000.0001) //            Avg. Y spins =       0.00E+00
(PID.TID 0000.0001) // o Tile number: 000002
(PID.TID 0000.0001) //         No. X exchanges =              0
(PID.TID 0000.0001) //            Max. X spins =              0
(PID.TID 0000.0001) //            Min. X spins =     1000000000
(PID.TID 0000.0001) //          Total. X spins =              0
(PID.TID 0000.0001) //            Avg. X spins =       0.00E+00
(PID.TID 0000.0001) //         No. Y exchanges =              0
(PID.TID 0000.0001) //            Max. Y spins =              0
(PID.TID 0000.0001) //            Min. Y spins =     1000000000
(PID.TID 0000.0001) //          Total. Y spins =              0
(PID.TID 0000.0001) //            Avg. Y spins =       0.00E+00
(PID.TID 0000.0001) // o Tile number: 000003
(PID.TID 0000.0001) //         No. X exchanges =              0
(PID.TID 0000.0001) //            Max. X spins =              0
(PID.TID 0000.0001) //            Min. X spins =     1000000000
(PID.TID 0000.0001) //          Total. X spins =              0
(PID.TID 0000.0001) //            Avg. X spins =       0.00E+00
(PID.TID 0000.0001) //         No. Y exchanges =              0
(PID.TID 0000.0001) //            Max. Y spins =              0
(PID.TID 0000.0001) //            Min. Y spins =     1000000000
(PID.TID 0000.0001) //          Total. Y spins =              0
(PID.TID 0000.0001) //            Avg. Y spins =       0.00E+00
(PID.TID 0000.0001) // o Tile number: 000004
(PID.TID 0000.0001) //         No. X exchanges =              0
(PID.TID 0000.0001) //            Max. X spins =              0
(PID.TID 0000.0001) //            Min. X spins =     1000000000
(PID.TID 0000.0001) //          Total. X spins =              0
(PID.TID 0000.0001) //            Avg. X spins =       0.00E+00
(PID.TID 0000.0001) //         No. Y exchanges =              0
(PID.TID 0000.0001) //            Max. Y spins =              0
(PID.TID 0000.0001) //            Min. Y spins =     1000000000
(PID.TID 0000.0001) //          Total. Y spins =              0
(PID.TID 0000.0001) //            Avg. Y spins =       0.00E+00
(PID.TID 0000.0001) // o Tile number: 000005
(PID.TID 0000.0001) //         No. X exchanges =              0
(PID.TID 0000.0001) //            Max. X spins =              0
(PID.TID 0000.0001) //            Min. X spins =     1000000000
(PID.TID 0000.0001) //          Total. X spins =              0
(PID.TID 0000.0001) //            Avg. X spins =       0.00E+00
(PID.TID 0000.0001) //         No. Y exchanges =              0
(PID.TID 0000.0001) //            Max. Y spins =              0
(PID.TID 0000.0001) //            Min. Y spins =     1000000000
(PID.TID 0000.0001) //          Total. Y spins =              0
(PID.TID 0000.0001) //            Avg. Y spins =       0.00E+00
(PID.TID 0000.0001) // o Tile number: 000006
(PID.TID 0000.0001) //         No. X exchanges =              0
(PID.TID 0000.0001) //            Max. X spins =              0
(PID.TID 0000.0001) //            Min. X spins =     1000000000
(PID.TID 0000.0001) //          Total. X spins =              0
(PID.TID 0000.0001) //            Avg. X spins =       0.00E+00
(PID.TID 0000.0001) //         No. Y exchanges =              0
(PID.TID 0000.0001) //            Max. Y spins =              0
(PID.TID 0000.0001) //            Min. Y spins =     1000000000
(PID.TID 0000.0001) //          Total. Y spins =              0
(PID.TID 0000.0001) //            Avg. Y spins =       0.00E+00
(PID.TID 0000.0001) // o Tile number: 000007
(PID.TID 0000.0001) //         No. X exchanges =              0
(PID.TID 0000.0001) //            Max. X spins =              0
(PID.TID 0000.0001) //            Min. X spins =     1000000000
(PID.TID 0000.0001) //          Total. X spins =              0
(PID.TID 0000.0001) //            Avg. X spins =       0.00E+00
(PID.TID 0000.0001) //         No. Y exchanges =              0
(PID.TID 0000.0001) //            Max. Y spins =              0
(PID.TID 0000.0001) //            Min. Y spins =     1000000000
(PID.TID 0000.0001) //          Total. Y spins =              0
(PID.TID 0000.0001) //            Avg. Y spins =       0.00E+00
(PID.TID 0000.0001) // o Tile number: 000008
(PID.TID 0000.0001) //         No. X exchanges =              0
(PID.TID 0000.0001) //            Max. X spins =              0
(PID.TID 0000.0001) //            Min. X spins =     1000000000
(PID.TID 0000.0001) //          Total. X spins =              0
(PID.TID 0000.0001) //            Avg. X spins =       0.00E+00
(PID.TID 0000.0001) //         No. Y exchanges =              0
(PID.TID 0000.0001) //            Max. Y spins =              0
(PID.TID 0000.0001) //            Min. Y spins =     1000000000
(PID.TID 0000.0001) //          Total. Y spins =              0
(PID.TID 0000.0001) //            Avg. Y spins =       0.00E+00
(PID.TID 0000.0001) // o Tile number: 000009
(PID.TID 0000.0001) //         No. X exchanges =              0
(PID.TID 0000.0001) //            Max. X spins =              0
(PID.TID 0000.0001) //            Min. X spins =     1000000000
(PID.TID 0000.0001) //          Total. X spins =              0
(PID.TID 0000.0001) //            Avg. X spins =       0.00E+00
(PID.TID 0000.0001) //         No. Y exchanges =              0
(PID.TID 0000.0001) //            Max. Y spins =              0
(PID.TID 0000.0001) //            Min. Y spins =     1000000000
(PID.TID 0000.0001) //          Total. Y spins =              0
(PID.TID 0000.0001) //            Avg. Y spins =       0.00E+00
(PID.TID 0000.0001) // o Tile number: 000010
(PID.TID 0000.0001) //         No. X exchanges =              0
(PID.TID 0000.0001) //            Max. X spins =              0
(PID.TID 0000.0001) //            Min. X spins =     1000000000
(PID.TID 0000.0001) //          Total. X spins =              0
(PID.TID 0000.0001) //            Avg. X spins =       0.00E+00
(PID.TID 0000.0001) //         No. Y exchanges =              0
(PID.TID 0000.0001) //            Max. Y spins =              0
(PID.TID 0000.0001) //            Min. Y spins =     1000000000
(PID.TID 0000.0001) //          Total. Y spins =              0
(PID.TID 0000.0001) //            Avg. Y spins =       0.00E+00
(PID.TID 0000.0001) // o Tile number: 000011
(PID.TID 0000.0001) //         No. X exchanges =              0
(PID.TID 0000.0001) //            Max. X spins =              0
(PID.TID 0000.0001) //            Min. X spins =     1000000000
(PID.TID 0000.0001) //          Total. X spins =              0
(PID.TID 0000.0001) //            Avg. X spins =       0.00E+00
(PID.TID 0000.0001) //         No. Y exchanges =              0
(PID.TID 0000.0001) //            Max. Y spins =              0
(PID.TID 0000.0001) //            Min. Y spins =     1000000000
(PID.TID 0000.0001) //          Total. Y spins =              0
(PID.TID 0000.0001) //            Avg. Y spins =       0.00E+00
(PID.TID 0000.0001) // o Tile number: 000012
(PID.TID 0000.0001) //         No. X exchanges =              0
(PID.TID 0000.0001) //            Max. X spins =              0
(PID.TID 0000.0001) //            Min. X spins =     1000000000
(PID.TID 0000.0001) //          Total. X spins =              0
(PID.TID 0000.0001) //            Avg. X spins =       0.00E+00
(PID.TID 0000.0001) //         No. Y exchanges =              0
(PID.TID 0000.0001) //            Max. Y spins =              0
(PID.TID 0000.0001) //            Min. Y spins =     1000000000
(PID.TID 0000.0001) //          Total. Y spins =              0
(PID.TID 0000.0001) //            Avg. Y spins =       0.00E+00
(PID.TID 0000.0001) // o Thread number: 000001
(PID.TID 0000.0001) //            No. barriers =          17454
(PID.TID 0000.0001) //      Max. barrier spins =              1
(PID.TID 0000.0001) //      Min. barrier spins =              1
(PID.TID 0000.0001) //     Total barrier spins =          17454
(PID.TID 0000.0001) //      Avg. barrier spins =       1.00E+00
PROGRAM MAIN: Execution ended Normally
