(PID.TID 0000.0001) 
(PID.TID 0000.0001) // ======================================================
(PID.TID 0000.0001) //                      MITgcm UV
(PID.TID 0000.0001) //                      =========
(PID.TID 0000.0001) // ======================================================
(PID.TID 0000.0001) // execution environment starting up...
(PID.TID 0000.0001) 
(PID.TID 0000.0001) // MITgcmUV version:  checkpoint69a
(PID.TID 0000.0001) // Build user:        hajsong
(PID.TID 0000.0001) // Build host:        acc00
(PID.TID 0000.0001) // Build date:        Sat Sep 28 04:39:06 KST 2024
(PID.TID 0000.0001) 
(PID.TID 0000.0001) // =======================================================
(PID.TID 0000.0001) // Execution Environment parameter file "eedata"
(PID.TID 0000.0001) // =======================================================
(PID.TID 0000.0001) ># Example "eedata" file
(PID.TID 0000.0001) ># Lines beginning "#" are comments
(PID.TID 0000.0001) >#  nTx      :: No. threads per process in X
(PID.TID 0000.0001) >#  nTy      :: No. threads per process in Y
(PID.TID 0000.0001) ># debugMode :: print debug msg (sequence of S/R calls)
(PID.TID 0000.0001) > &EEPARMS
(PID.TID 0000.0001) > useCubedSphereExchange=.TRUE.,
(PID.TID 0000.0001) > nTx=1,
(PID.TID 0000.0001) > nTy=1,
(PID.TID 0000.0001) > &
(PID.TID 0000.0001) ># Note: Some systems use & as the namelist terminator (as shown here).
(PID.TID 0000.0001) >#       Other systems use a / character.
(PID.TID 0000.0001) 
(PID.TID 0000.0001) // =======================================================
(PID.TID 0000.0001) // Computational Grid Specification ( see files "SIZE.h" )
(PID.TID 0000.0001) //                                  ( and "eedata"       )
(PID.TID 0000.0001) // =======================================================
(PID.TID 0000.0001)      nPx =    1 ; /* No. processes in X */
(PID.TID 0000.0001)      nPy =    1 ; /* No. processes in Y */
(PID.TID 0000.0001)      nSx =   12 ; /* No. tiles in X per process */
(PID.TID 0000.0001)      nSy =    1 ; /* No. tiles in Y per process */
(PID.TID 0000.0001)      sNx =   32 ; /* Tile size in X */
(PID.TID 0000.0001)      sNy =   16 ; /* Tile size in Y */
(PID.TID 0000.0001)      OLx =    4 ; /* Tile overlap distance in X */
(PID.TID 0000.0001)      OLy =    4 ; /* Tile overlap distance in Y */
(PID.TID 0000.0001)      nTx =    1 ; /* No. threads in X per process */
(PID.TID 0000.0001)      nTy =    1 ; /* No. threads in Y per process */
(PID.TID 0000.0001)       Nr =   15 ; /* No. levels in the vertical   */
(PID.TID 0000.0001)       Nx =  384 ; /* Total domain size in X ( = nPx*nSx*sNx ) */
(PID.TID 0000.0001)       Ny =   16 ; /* Total domain size in Y ( = nPy*nSy*sNy ) */
(PID.TID 0000.0001)   nTiles =   12 ; /* Total no. tiles per process ( = nSx*nSy ) */
(PID.TID 0000.0001)   nProcs =    1 ; /* Total no. processes ( = nPx*nPy ) */
(PID.TID 0000.0001) nThreads =    1 ; /* Total no. threads per process ( = nTx*nTy ) */
(PID.TID 0000.0001) usingMPI =    F ; /* Flag used to control whether MPI is in use */
(PID.TID 0000.0001)                   /*  note: To execute a program with MPI calls */
(PID.TID 0000.0001)                   /*  it must be launched appropriately e.g     */
(PID.TID 0000.0001)                   /*  "mpirun -np 64 ......"                    */
(PID.TID 0000.0001) useCoupler=   F ; /* Flag used to control communications with   */
(PID.TID 0000.0001)                   /*  other model components, through a coupler */
(PID.TID 0000.0001) useNest2W_parent =    F ;/* Control 2-W Nesting comm */
(PID.TID 0000.0001) useNest2W_child  =    F ;/* Control 2-W Nesting comm */
(PID.TID 0000.0001) debugMode =    F ; /* print debug msg. (sequence of S/R calls)  */
(PID.TID 0000.0001) printMapIncludesZeros=    F ; /* print zeros in Std.Output maps */
(PID.TID 0000.0001) maxLengthPrt1D=   65 /* maxLength of 1D array printed to StdOut */
(PID.TID 0000.0001) 
(PID.TID 0000.0001) // ======================================================
(PID.TID 0000.0001) // Mapping of tiles to threads
(PID.TID 0000.0001) // ======================================================
(PID.TID 0000.0001) // -o- Thread   1, tiles (   1:  12,   1:   1)
(PID.TID 0000.0001) 
(PID.TID 0000.0001) W2_READPARMS: file data.exch2 not found
(PID.TID 0000.0001) => use W2_EXCH2 default: regular 6-facets Cube
(PID.TID 0000.0001) W2_useE2ioLayOut=    T ;/* T: use Exch2 glob IO map; F: use model default */
(PID.TID 0000.0001) W2_mapIO        =  -1 ; /* select option for Exch2 global-IO map */
(PID.TID 0000.0001) W2_printMsg     =  -1 ; /* select option for printing information */
(PID.TID 0000.0001) ===== Start setting W2 TOPOLOGY:
(PID.TID 0000.0001)  write to log-file: w2_tile_topology.0000.log
(PID.TID 0000.0001) =====       setting W2 TOPOLOGY: Done
(PID.TID 0000.0001) 
(PID.TID 0000.0001)  INI_PARMS: opening model parameter file "data"
(PID.TID 0000.0001)  OPEN_COPY_DATA_FILE: opening file data
(PID.TID 0000.0001) // =======================================================
(PID.TID 0000.0001) // Parameter file "data"
(PID.TID 0000.0001) // =======================================================
(PID.TID 0000.0001) ># ====================
(PID.TID 0000.0001) ># | Model parameters |
(PID.TID 0000.0001) ># ====================
(PID.TID 0000.0001) >#
(PID.TID 0000.0001) ># Continuous equation parameters
(PID.TID 0000.0001) > &PARM01
(PID.TID 0000.0001) > tRef=15*20.,
(PID.TID 0000.0001) > sRef=15*35.,
(PID.TID 0000.0001) > viscAh =3.E5,
(PID.TID 0000.0001) > viscAr =1.E-3,
(PID.TID 0000.0001) > diffKrT=3.E-5,
(PID.TID 0000.0001) > diffKrS=3.E-5,
(PID.TID 0000.0001) > ivdc_kappa=10.,
(PID.TID 0000.0001) > implicitDiffusion=.TRUE.,
(PID.TID 0000.0001) > gravity=9.81,
(PID.TID 0000.0001) > rhoConst=1035.,
(PID.TID 0000.0001) > rhoConstFresh=1000.,
(PID.TID 0000.0001) > eosType='JMD95Z',
(PID.TID 0000.0001) > staggerTimeStep=.TRUE.,
(PID.TID 0000.0001) > vectorInvariantMomentum=.TRUE.,
(PID.TID 0000.0001) > implicitFreeSurface=.TRUE.,
(PID.TID 0000.0001) > exactConserv=.TRUE.,
(PID.TID 0000.0001) ># select_rStar=2,
(PID.TID 0000.0001) ># nonlinFreeSurf=4,
(PID.TID 0000.0001) > hFacInf=0.2,
(PID.TID 0000.0001) > hFacSup=2.0,
(PID.TID 0000.0001) > useRealFreshWaterFlux=.TRUE.,
(PID.TID 0000.0001) > allowFreezing=.TRUE.,
(PID.TID 0000.0001) > hFacMin=.1,
(PID.TID 0000.0001) > hFacMinDr=20.,
(PID.TID 0000.0001) > readBinaryPrec=64,
(PID.TID 0000.0001) >#useSingleCpuIO=.TRUE.,
(PID.TID 0000.0001) > globalFiles=.TRUE.,
(PID.TID 0000.0001) ># plotLevel=0,
(PID.TID 0000.0001) > &
(PID.TID 0000.0001) >
(PID.TID 0000.0001) ># Elliptic solver parameters
(PID.TID 0000.0001) > &PARM02
(PID.TID 0000.0001) > cg2dMaxIters=200,
(PID.TID 0000.0001) >#cg2dTargetResidual=1.E-9,
(PID.TID 0000.0001) > cg2dTargetResWunit=1.E-14,
(PID.TID 0000.0001) > &
(PID.TID 0000.0001) >
(PID.TID 0000.0001) ># Time stepping parameters
(PID.TID 0000.0001) > &PARM03
(PID.TID 0000.0001) > nIter0=0,
(PID.TID 0000.0001) > nTimeSteps=1800,
(PID.TID 0000.0001) > deltaTMom   =1200.,
(PID.TID 0000.0001) > deltaTtracer=86400.,
(PID.TID 0000.0001) > deltaTFreeSurf=86400.,
(PID.TID 0000.0001) > deltaTClock =86400.,
(PID.TID 0000.0001) > abEps = 0.1,
(PID.TID 0000.0001) >#forcing_In_AB=.FALSE.,
(PID.TID 0000.0001) > tracForcingOutAB=1,
(PID.TID 0000.0001) > pChkptFreq  =31104000.,
(PID.TID 0000.0001) >#chkptFreq   =311040000.,
(PID.TID 0000.0001) > taveFreq    =1244160000.,
(PID.TID 0000.0001) > dumpFreq    =2592000.,
(PID.TID 0000.0001) > periodicExternalForcing=.TRUE.,
(PID.TID 0000.0001) > externForcingPeriod=2592000.,
(PID.TID 0000.0001) > externForcingCycle=31104000.,
(PID.TID 0000.0001) ># 2 months restoring timescale for temperature
(PID.TID 0000.0001) > tauThetaClimRelax = 5184000.,
(PID.TID 0000.0001) ># 2yrs restoring timescale for salinity
(PID.TID 0000.0001) > tauSaltClimRelax = 62208000.,
(PID.TID 0000.0001) > monitorFreq = 2592000.,
(PID.TID 0000.0001) > pickupStrictlyMatch=.FALSE.,
(PID.TID 0000.0001) > &
(PID.TID 0000.0001) >
(PID.TID 0000.0001) ># Gridding parameters
(PID.TID 0000.0001) > &PARM04
(PID.TID 0000.0001) > usingCurvilinearGrid=.TRUE.,
(PID.TID 0000.0001) > horizGridFile='grid_cs32',
(PID.TID 0000.0001) > radius_fromHorizGrid=6370.E3,
(PID.TID 0000.0001) > delR= 50., 70., 100., 140., 190.,
(PID.TID 0000.0001) >       240., 290., 340., 390., 440.,
(PID.TID 0000.0001) >       490., 540., 590., 640., 690.,
(PID.TID 0000.0001) > &
(PID.TID 0000.0001) >
(PID.TID 0000.0001) ># Input datasets
(PID.TID 0000.0001) > &PARM05
(PID.TID 0000.0001) > bathyFile      ='bathy_Hmin50.bin',
(PID.TID 0000.0001) > hydrogThetaFile='lev_T_cs_15k.bin',
(PID.TID 0000.0001) > hydrogSaltFile ='lev_S_cs_15k.bin',
(PID.TID 0000.0001) > zonalWindFile  ='trenberth_taux.bin',
(PID.TID 0000.0001) > meridWindFile  ='trenberth_tauy.bin',
(PID.TID 0000.0001) > thetaClimFile  ='lev_surfT_cs_12m.bin',
(PID.TID 0000.0001) > saltClimFile   ='lev_surfS_cs_12m.bin',
(PID.TID 0000.0001) > surfQnetFile   ='shiQnet_cs32.bin',
(PID.TID 0000.0001) > EmPmRFile      ='shiEmPR_cs32.bin',
(PID.TID 0000.0001) > &
(PID.TID 0000.0001) 
(PID.TID 0000.0001)  INI_PARMS ; starts to read PARM01
(PID.TID 0000.0001)  INI_PARMS ; read PARM01 : OK
(PID.TID 0000.0001)  INI_PARMS ; starts to read PARM02
(PID.TID 0000.0001)  INI_PARMS ; read PARM02 : OK
(PID.TID 0000.0001)  INI_PARMS ; starts to read PARM03
(PID.TID 0000.0001)  INI_PARMS ; read PARM03 : OK
(PID.TID 0000.0001)  INI_PARMS ; starts to read PARM04
(PID.TID 0000.0001)  INI_PARMS ; read PARM04 : OK
(PID.TID 0000.0001)  INI_PARMS ; starts to read PARM05
(PID.TID 0000.0001)  INI_PARMS ; read PARM05 : OK
(PID.TID 0000.0001)  INI_PARMS: finished reading file "data"
(PID.TID 0000.0001)  PACKAGES_BOOT: opening data.pkg
(PID.TID 0000.0001)  OPEN_COPY_DATA_FILE: opening file data.pkg
(PID.TID 0000.0001) // =======================================================
(PID.TID 0000.0001) // Parameter file "data.pkg"
(PID.TID 0000.0001) // =======================================================
(PID.TID 0000.0001) ># Packages
(PID.TID 0000.0001) > &PACKAGES
(PID.TID 0000.0001) > useGMRedi=.TRUE.,
(PID.TID 0000.0001) > useDiagnostics=.TRUE.,
(PID.TID 0000.0001) ># useMNC=.TRUE.,
(PID.TID 0000.0001) > usePTRACERS=.TRUE.,
(PID.TID 0000.0001) > &
(PID.TID 0000.0001) 
(PID.TID 0000.0001)  PACKAGES_BOOT: finished reading data.pkg
(PID.TID 0000.0001)  PACKAGES_BOOT: On/Off package Summary
 --------  pkgs with a standard "usePKG" On/Off switch in "data.pkg":  --------
 pkg/ggl90                compiled but not used ( useGGL90                 = F )
 pkg/gmredi               compiled   and   used ( useGMRedi                = T )
 pkg/cal                  compiled but not used ( useCAL                   = F )
 pkg/exf                  compiled but not used ( useEXF                   = F )
 pkg/bulk_force           compiled but not used ( useBulkForce             = F )
 pkg/ptracers             compiled   and   used ( usePTRACERS              = T )
 pkg/longstep             compiled   and   used ( usePTRACERS              = T )
 pkg/seaice               compiled but not used ( useSEAICE                = F )
 pkg/thsice               compiled but not used ( useThSIce                = F )
 pkg/diagnostics          compiled   and   used ( useDiagnostics           = T )
 pkg/mnc                  compiled but not used ( useMNC                   = F )
 -------- pkgs without standard "usePKG" On/Off switch in "data.pkg":  --------
 pkg/generic_advdiff      compiled   and   used ( useGAD                   = T )
 pkg/mom_common           compiled   and   used ( momStepping              = T )
 pkg/mom_vecinv           compiled   and   used ( +vectorInvariantMomentum = T )
 pkg/mom_fluxform         compiled but not used ( & not vectorInvariantMom = F )
 pkg/monitor              compiled   and   used ( monitorFreq > 0.         = T )
 pkg/timeave              compiled   and   used ( taveFreq > 0.            = T )
 pkg/debug                compiled but not used ( debugMode                = F )
 pkg/exch2                compiled   and   used
 pkg/rw                   compiled   and   used
 pkg/mdsio                compiled   and   used
(PID.TID 0000.0001)  PACKAGES_BOOT: End of package Summary
(PID.TID 0000.0001) 
(PID.TID 0000.0001)  GM_READPARMS: opening data.gmredi
(PID.TID 0000.0001)  OPEN_COPY_DATA_FILE: opening file data.gmredi
(PID.TID 0000.0001) // =======================================================
(PID.TID 0000.0001) // Parameter file "data.gmredi"
(PID.TID 0000.0001) // =======================================================
(PID.TID 0000.0001) ># GM+Redi package parameters:
(PID.TID 0000.0001) >
(PID.TID 0000.0001) >#-from MOM :
(PID.TID 0000.0001) ># GM_background_K: 	G & Mc.W  diffusion coefficient
(PID.TID 0000.0001) ># GM_maxSlope    :	max slope of isopycnals
(PID.TID 0000.0001) ># GM_Scrit       :	transition for scaling diffusion coefficient
(PID.TID 0000.0001) ># GM_Sd          :	half width scaling for diffusion coefficient
(PID.TID 0000.0001) ># GM_taper_scheme:	slope clipping or one of the tapering schemes
(PID.TID 0000.0001) ># GM_Kmin_horiz  :	horizontal diffusion minimum value
(PID.TID 0000.0001) >
(PID.TID 0000.0001) >#-Option parameters (needs to "define" options in GMREDI_OPTIONS.h")
(PID.TID 0000.0001) ># GM_isopycK     :	isopycnal diffusion coefficient (default=GM_background_K)
(PID.TID 0000.0001) ># GM_AdvForm     :	turn on GM Advective form       (default=Skew flux form)
(PID.TID 0000.0001) >
(PID.TID 0000.0001) > &GM_PARM01
(PID.TID 0000.0001) >  GM_background_K    = 800.,
(PID.TID 0000.0001) >  GM_AdvForm         = .TRUE.,
(PID.TID 0000.0001) ># GM_background_K    = 10.,
(PID.TID 0000.0001) ># GM_Visbeck_alpha   = 1.e-2,
(PID.TID 0000.0001) >  GM_Visbeck_length  = 2.e+5,
(PID.TID 0000.0001) >  GM_Visbeck_depth   = 1.e+3,
(PID.TID 0000.0001) >  GM_Visbeck_maxval_K= 2.5e+3,
(PID.TID 0000.0001) >  GM_taper_scheme    = 'gkw91',
(PID.TID 0000.0001) ># GM_Small_Number    = 1.e-18,
(PID.TID 0000.0001) >  GM_maxSlope        = 1.e-2,
(PID.TID 0000.0001) >  GM_Kmin_horiz      = 50.,
(PID.TID 0000.0001) >  GM_Scrit           = 4.e-3,
(PID.TID 0000.0001) >  GM_Sd              = 1.e-3,
(PID.TID 0000.0001) > &
(PID.TID 0000.0001) >
(PID.TID 0000.0001) 
(PID.TID 0000.0001)  GM_READPARMS: finished reading data.gmredi
(PID.TID 0000.0001)  LONGSTEP_READPARMS: opening data.longstep
(PID.TID 0000.0001)  OPEN_COPY_DATA_FILE: opening file data.longstep
(PID.TID 0000.0001) // =======================================================
(PID.TID 0000.0001) // Parameter file "data.longstep"
(PID.TID 0000.0001) // =======================================================
(PID.TID 0000.0001) > &LONGSTEP_PARM01
(PID.TID 0000.0001) > LS_nIter=5,
(PID.TID 0000.0001) > LS_whenToSample=2,
(PID.TID 0000.0001) > &
(PID.TID 0000.0001) >
(PID.TID 0000.0001) 
(PID.TID 0000.0001)  LONGSTEP_READPARMS: finished reading data.longstep
(PID.TID 0000.0001)  PTRACERS_READPARMS: opening data.ptracers
(PID.TID 0000.0001)  OPEN_COPY_DATA_FILE: opening file data.ptracers
(PID.TID 0000.0001) // =======================================================
(PID.TID 0000.0001) // Parameter file "data.ptracers"
(PID.TID 0000.0001) // =======================================================
(PID.TID 0000.0001) ># Age Tracer set-up: No initial file means Age Tracer
(PID.TID 0000.0001) ># is automatically initialized uniformely to zero.
(PID.TID 0000.0001) > PTRACERS_Iter0=72000,
(PID.TID 0000.0001) >
(PID.TID 0000.0001) > &PTRACERS_PARM01
(PID.TID 0000.0001) > PTRACERS_numInUse=1,
(PID.TID 0000.0001) > PTRACERS_advScheme=33,
(PID.TID 0000.0001) > PTRACERS_diffKh=0.E3,
(PID.TID 0000.0001) > PTRACERS_diffKr=3.E-5,
(PID.TID 0000.0001) >#PTRACERS_initialFile='Your_IC_file.bin',
(PID.TID 0000.0001) > PTRACERS_names(1)='Age_tracer',
(PID.TID 0000.0001) > &
(PID.TID 0000.0001) 
(PID.TID 0000.0001)  PTRACERS_READPARMS: finished reading data.ptracers
(PID.TID 0000.0001)  DIAGNOSTICS_READPARMS: opening data.diagnostics
(PID.TID 0000.0001)  OPEN_COPY_DATA_FILE: opening file data.diagnostics
(PID.TID 0000.0001) // =======================================================
(PID.TID 0000.0001) // Parameter file "data.diagnostics"
(PID.TID 0000.0001) // =======================================================
(PID.TID 0000.0001) ># Diagnostic Package Choices
(PID.TID 0000.0001) >#--------------------
(PID.TID 0000.0001) >#  dumpAtLast (logical): always write output at the end of simulation (default=F)
(PID.TID 0000.0001) >#  diag_mnc   (logical): write to NetCDF files (default=useMNC)
(PID.TID 0000.0001) >#--for each output-stream:
(PID.TID 0000.0001) >#  fileName(n) : prefix of the output file name (max 80c long) for outp.stream n
(PID.TID 0000.0001) >#  frequency(n):< 0 : write snap-shot output every |frequency| seconds
(PID.TID 0000.0001) >#               > 0 : write time-average output every frequency seconds
(PID.TID 0000.0001) >#  timePhase(n)     : write at time = timePhase + multiple of |frequency|
(PID.TID 0000.0001) >#    averagingFreq  : frequency (in s) for periodic averaging interval
(PID.TID 0000.0001) >#    averagingPhase : phase     (in s) for periodic averaging interval
(PID.TID 0000.0001) >#    repeatCycle    : number of averaging intervals in 1 cycle
(PID.TID 0000.0001) >#  levels(:,n) : list of levels to write to file (Notes: declared as REAL)
(PID.TID 0000.0001) >#                when this entry is missing, select all common levels of this list
(PID.TID 0000.0001) >#  fields(:,n) : list of selected diagnostics fields (8.c) in outp.stream n
(PID.TID 0000.0001) >#                (see "available_diagnostics.log" file for the full list of diags)
(PID.TID 0000.0001) >#  missing_value(n) : missing value for real-type fields in output file "n"
(PID.TID 0000.0001) >#  fileFlags(n)     : specific code (8c string) for output file "n"
(PID.TID 0000.0001) >#--------------------
(PID.TID 0000.0001) > &DIAGNOSTICS_LIST
(PID.TID 0000.0001) ># diag_mnc     = .FALSE.,
(PID.TID 0000.0001) >#--
(PID.TID 0000.0001) >  fields(1:12,1) = 'ETAN    ','ETANSQ  ','DETADT2 ','PHIBOT  ','PHIBOTSQ',
(PID.TID 0000.0001) >                   'oceTAUX ','oceTAUY ','TFLUX   ','SFLUX   ','oceFreez',
(PID.TID 0000.0001) >                   'TRELAX  ','SRELAX  ',
(PID.TID 0000.0001) >   levels(1,1) = 1.,
(PID.TID 0000.0001) >#  fileName(1) = 'surfDiag',
(PID.TID 0000.0001) >  frequency(1) =  864000.,
(PID.TID 0000.0001) >
(PID.TID 0000.0001) >  fields(1:15,2) = 'UVEL    ','VVEL    ','WVEL    ','PHIHYD  ',
(PID.TID 0000.0001) >                   'VVELMASS','UVELMASS','WVELSQ  ',
(PID.TID 0000.0001) >                   'THETA   ','UTHMASS ','VTHMASS ','WTHMASS ',
(PID.TID 0000.0001) >                   'SALT    ','USLTMASS','VSLTMASS','WSLTMASS',
(PID.TID 0000.0001) ># do not specify levels => all levels are selected
(PID.TID 0000.0001) >#  fileName(2) = 'dynDiag',
(PID.TID 0000.0001) >  frequency(2) = 1728000.,
(PID.TID 0000.0001) >
(PID.TID 0000.0001) >  fields(1:8,3) =  'DRHODR  ','RHOAnoma','CONVADJ ',
(PID.TID 0000.0001) >                   'GM_Kwx  ','GM_Kwy  ','GM_Kwz  ',
(PID.TID 0000.0001) >                   'GM_PsiX ','GM_PsiY ',
(PID.TID 0000.0001) >#  levels(1,3) = 2., 3., 4., 5., 6., 7., 8., 9., 10., 11., 12., 13.,
(PID.TID 0000.0001) >   fileName(3) = 'oceDiag',
(PID.TID 0000.0001) >  frequency(3) = 864000.,
(PID.TID 0000.0001) >
(PID.TID 0000.0001) >  fields(1:7,4) =  'ADVx_TH ','ADVy_TH ','ADVr_TH ',
(PID.TID 0000.0001) >                   'DFxE_TH ','DFyE_TH ','DFrE_TH ',
(PID.TID 0000.0001) >                   'DFrI_TH ',
(PID.TID 0000.0001) >#                  'ADVx_SLT',
(PID.TID 0000.0001) >#  fileName(4) = 'flxDiag',
(PID.TID 0000.0001) >  frequency(4) = 1728000.,
(PID.TID 0000.0001) > &
(PID.TID 0000.0001) >
(PID.TID 0000.0001) >#--------------------
(PID.TID 0000.0001) ># Parameter for Diagnostics of per level statistics:
(PID.TID 0000.0001) >#--------------------
(PID.TID 0000.0001) >#  diagSt_mnc (logical): write stat-diags to NetCDF files (default=diag_mnc)
(PID.TID 0000.0001) >#  diagSt_regMaskFile : file containing the region-mask to read-in
(PID.TID 0000.0001) >#  nSetRegMskFile   : number of region-mask sets within the region-mask file
(PID.TID 0000.0001) >#  set_regMask(i)   : region-mask set-index that identifies the region "i"
(PID.TID 0000.0001) >#  val_regMask(i)   : region "i" identifier value in the region mask
(PID.TID 0000.0001) >#--for each output-stream:
(PID.TID 0000.0001) >#  stat_fName(n) : prefix of the output file name (max 80c long) for outp.stream n
(PID.TID 0000.0001) >#  stat_freq(n):< 0 : write snap-shot output every |stat_freq| seconds
(PID.TID 0000.0001) >#               > 0 : write time-average output every stat_freq seconds
(PID.TID 0000.0001) >#  stat_phase(n)    : write at time = stat_phase + multiple of |stat_freq|
(PID.TID 0000.0001) >#  stat_region(:,n) : list of "regions" (default: 1 region only=global)
(PID.TID 0000.0001) >#  stat_fields(:,n) : list of selected diagnostics fields (8.c) in outp.stream n
(PID.TID 0000.0001) >#                (see "available_diagnostics.log" file for the full list of diags)
(PID.TID 0000.0001) >#--------------------
(PID.TID 0000.0001) > &DIAG_STATIS_PARMS
(PID.TID 0000.0001) ># an example just to check the agreement with MONITOR output:
(PID.TID 0000.0001) > stat_fields(1:5,1)  = 'ETAN    ','UVEL    ','VVEL    ','WVEL    ', 'THETA   ',
(PID.TID 0000.0001) >  stat_fName(1) = 'dynStDiag',
(PID.TID 0000.0001) >   stat_freq(1) = -864000.,
(PID.TID 0000.0001) ># stat_phase(1) = 0.,
(PID.TID 0000.0001) > &
(PID.TID 0000.0001) >
(PID.TID 0000.0001) 
(PID.TID 0000.0001) S/R DIAGNOSTICS_READPARMS, read namelist "diagnostics_list": start
(PID.TID 0000.0001) S/R DIAGNOSTICS_READPARMS, read namelist "diagnostics_list": OK
(PID.TID 0000.0001) S/R DIAGNOSTICS_READPARMS, read namelist "DIAG_STATIS_PARMS": start
(PID.TID 0000.0001) S/R DIAGNOSTICS_READPARMS, read namelist "DIAG_STATIS_PARMS": OK
(PID.TID 0000.0001) -----------------------------------------------------
(PID.TID 0000.0001)  DIAGNOSTICS_READPARMS: global parameter summary:
(PID.TID 0000.0001)  diag_dBugLevel = /* level of printed debug messages */
(PID.TID 0000.0001)                       2
(PID.TID 0000.0001)     ;
(PID.TID 0000.0001)  dumpAtLast = /* always write time-ave diags at the end */
(PID.TID 0000.0001)                   F
(PID.TID 0000.0001)     ;
(PID.TID 0000.0001)  diag_mnc =   /* write NetCDF output files */
(PID.TID 0000.0001)                   F
(PID.TID 0000.0001)     ;
(PID.TID 0000.0001)  useMissingValue = /* put MissingValue where mask = 0 */
(PID.TID 0000.0001)                   F
(PID.TID 0000.0001)     ;
(PID.TID 0000.0001)  diagCG_maxIters = /* max number of iters in diag_cg2d */
(PID.TID 0000.0001)                     200
(PID.TID 0000.0001)     ;
(PID.TID 0000.0001)  diagCG_resTarget = /* residual target for diag_cg2d */
(PID.TID 0000.0001)                 1.000000000000000E-07
(PID.TID 0000.0001)     ;
(PID.TID 0000.0001)  diagCG_pcOffDFac = /* preconditioner off-diagonal factor */
(PID.TID 0000.0001)                 9.611687812379854E-01
(PID.TID 0000.0001)     ;
(PID.TID 0000.0001) -----------------------------------------------------
(PID.TID 0000.0001)  DIAGNOSTICS_READPARMS: active diagnostics summary:
(PID.TID 0000.0001) -----------------------------------------------------
(PID.TID 0000.0001) Creating Output Stream: oceDiag
(PID.TID 0000.0001) Output Frequency:     864000.000000 ; Phase:           0.000000
(PID.TID 0000.0001)  Averaging Freq.:     864000.000000 , Phase:           0.000000 , Cycle:   1
(PID.TID 0000.0001)  missing value: -9.990000000000E+02
(PID.TID 0000.0001)  Levels:    will be set later
(PID.TID 0000.0001)  Fields:    DRHODR   RHOAnoma CONVADJ  GM_Kwx   GM_Kwy   GM_Kwz   GM_PsiX  GM_PsiY
(PID.TID 0000.0001) -----------------------------------------------------
(PID.TID 0000.0001)  DIAGNOSTICS_READPARMS: statistics diags. summary:
(PID.TID 0000.0001) Creating Stats. Output Stream: dynStDiag
(PID.TID 0000.0001) Output Frequency:    -864000.000000 ; Phase:      432000.000000
(PID.TID 0000.0001)  Regions:   0
(PID.TID 0000.0001)  Fields:    ETAN     UVEL     VVEL     WVEL     THETA
(PID.TID 0000.0001) -----------------------------------------------------
(PID.TID 0000.0001) 
(PID.TID 0000.0001) SET_PARMS: done
(PID.TID 0000.0001) Enter INI_VERTICAL_GRID: setInterFDr=    T ; setCenterDr=    F
(PID.TID 0000.0001) tile:   1 ; Read from file grid_cs32.face001.bin
(PID.TID 0000.0001)   => xC yC dxF dyF rA xG yG dxV dyU rAz dxC dyC rAw rAs dxG dyG AngleCS AngleSN
(PID.TID 0000.0001) tile:   2 ; Read from file grid_cs32.face001.bin
(PID.TID 0000.0001)   => xC yC dxF dyF rA xG yG dxV dyU rAz dxC dyC rAw rAs dxG dyG AngleCS AngleSN
(PID.TID 0000.0001) tile:   3 ; Read from file grid_cs32.face002.bin
(PID.TID 0000.0001)   => xC yC dxF dyF rA xG yG dxV dyU rAz dxC dyC rAw rAs dxG dyG AngleCS AngleSN
(PID.TID 0000.0001) tile:   4 ; Read from file grid_cs32.face002.bin
(PID.TID 0000.0001)   => xC yC dxF dyF rA xG yG dxV dyU rAz dxC dyC rAw rAs dxG dyG AngleCS AngleSN
(PID.TID 0000.0001) tile:   5 ; Read from file grid_cs32.face003.bin
(PID.TID 0000.0001)   => xC yC dxF dyF rA xG yG dxV dyU rAz dxC dyC rAw rAs dxG dyG AngleCS AngleSN
(PID.TID 0000.0001) tile:   6 ; Read from file grid_cs32.face003.bin
(PID.TID 0000.0001)   => xC yC dxF dyF rA xG yG dxV dyU rAz dxC dyC rAw rAs dxG dyG AngleCS AngleSN
(PID.TID 0000.0001) tile:   7 ; Read from file grid_cs32.face004.bin
(PID.TID 0000.0001)   => xC yC dxF dyF rA xG yG dxV dyU rAz dxC dyC rAw rAs dxG dyG AngleCS AngleSN
(PID.TID 0000.0001) tile:   8 ; Read from file grid_cs32.face004.bin
(PID.TID 0000.0001)   => xC yC dxF dyF rA xG yG dxV dyU rAz dxC dyC rAw rAs dxG dyG AngleCS AngleSN
(PID.TID 0000.0001) tile:   9 ; Read from file grid_cs32.face005.bin
(PID.TID 0000.0001)   => xC yC dxF dyF rA xG yG dxV dyU rAz dxC dyC rAw rAs dxG dyG AngleCS AngleSN
(PID.TID 0000.0001) tile:  10 ; Read from file grid_cs32.face005.bin
(PID.TID 0000.0001)   => xC yC dxF dyF rA xG yG dxV dyU rAz dxC dyC rAw rAs dxG dyG AngleCS AngleSN
(PID.TID 0000.0001) tile:  11 ; Read from file grid_cs32.face006.bin
(PID.TID 0000.0001)   => xC yC dxF dyF rA xG yG dxV dyU rAz dxC dyC rAw rAs dxG dyG AngleCS AngleSN
(PID.TID 0000.0001) tile:  12 ; Read from file grid_cs32.face006.bin
(PID.TID 0000.0001)   => xC yC dxF dyF rA xG yG dxV dyU rAz dxC dyC rAw rAs dxG dyG AngleCS AngleSN
(PID.TID 0000.0001) %MON XC_max                       =   1.7854351589505E+02
(PID.TID 0000.0001) %MON XC_min                       =  -1.7854351589505E+02
(PID.TID 0000.0001) %MON XC_mean                      =  -1.4199289892029E-14
(PID.TID 0000.0001) %MON XC_sd                        =   1.0355545336287E+02
(PID.TID 0000.0001) %MON XG_max                       =   1.8000000000000E+02
(PID.TID 0000.0001) %MON XG_min                       =  -1.7708797161002E+02
(PID.TID 0000.0001) %MON XG_mean                      =   1.8603515625000E+00
(PID.TID 0000.0001) %MON XG_sd                        =   1.0357130300504E+02
(PID.TID 0000.0001) %MON DXC_max                      =   3.2375185836900E+05
(PID.TID 0000.0001) %MON DXC_min                      =   1.1142031410131E+05
(PID.TID 0000.0001) %MON DXC_mean                     =   2.8605689051214E+05
(PID.TID 0000.0001) %MON DXC_sd                       =   3.4042087138252E+04
(PID.TID 0000.0001) %MON DXF_max                      =   3.2369947500827E+05
(PID.TID 0000.0001) %MON DXF_min                      =   1.2020820513318E+05
(PID.TID 0000.0001) %MON DXF_mean                     =   2.8605437324820E+05
(PID.TID 0000.0001) %MON DXF_sd                       =   3.4050524252539E+04
(PID.TID 0000.0001) %MON DXG_max                      =   3.2375195872773E+05
(PID.TID 0000.0001) %MON DXG_min                      =   1.0098378008791E+05
(PID.TID 0000.0001) %MON DXG_mean                     =   2.8603818508931E+05
(PID.TID 0000.0001) %MON DXG_sd                       =   3.4140406908005E+04
(PID.TID 0000.0001) %MON DXV_max                      =   3.2380418162750E+05
(PID.TID 0000.0001) %MON DXV_min                      =   8.0152299824136E+04
(PID.TID 0000.0001) %MON DXV_mean                     =   2.8603970633619E+05
(PID.TID 0000.0001) %MON DXV_sd                       =   3.4145142117723E+04
(PID.TID 0000.0001) %MON YC_max                       =   8.7940663871962E+01
(PID.TID 0000.0001) %MON YC_min                       =  -8.7940663871962E+01
(PID.TID 0000.0001) %MON YC_mean                      =  -2.3684757858670E-15
(PID.TID 0000.0001) %MON YC_sd                        =   3.8676242969072E+01
(PID.TID 0000.0001) %MON YG_max                       =   9.0000000000000E+01
(PID.TID 0000.0001) %MON YG_min                       =  -9.0000000000000E+01
(PID.TID 0000.0001) %MON YG_mean                      =  -4.1448326252673E-15
(PID.TID 0000.0001) %MON YG_sd                        =   3.8676895860710E+01
(PID.TID 0000.0001) %MON DYC_max                      =   3.2375185836900E+05
(PID.TID 0000.0001) %MON DYC_min                      =   1.1142031410131E+05
(PID.TID 0000.0001) %MON DYC_mean                     =   2.8605689051214E+05
(PID.TID 0000.0001) %MON DYC_sd                       =   3.4042087138252E+04
(PID.TID 0000.0001) %MON DYF_max                      =   3.2369947500827E+05
(PID.TID 0000.0001) %MON DYF_min                      =   1.2020820513318E+05
(PID.TID 0000.0001) %MON DYF_mean                     =   2.8605437324820E+05
(PID.TID 0000.0001) %MON DYF_sd                       =   3.4050524252539E+04
(PID.TID 0000.0001) %MON DYG_max                      =   3.2375195872773E+05
(PID.TID 0000.0001) %MON DYG_min                      =   1.0098378008791E+05
(PID.TID 0000.0001) %MON DYG_mean                     =   2.8603818508931E+05
(PID.TID 0000.0001) %MON DYG_sd                       =   3.4140406908005E+04
(PID.TID 0000.0001) %MON DYU_max                      =   3.2380418162750E+05
(PID.TID 0000.0001) %MON DYU_min                      =   8.0152299824136E+04
(PID.TID 0000.0001) %MON DYU_mean                     =   2.8603970633619E+05
(PID.TID 0000.0001) %MON DYU_sd                       =   3.4145142117723E+04
(PID.TID 0000.0001) %MON RA_max                       =   1.0479260248419E+11
(PID.TID 0000.0001) %MON RA_min                       =   1.4019007022556E+10
(PID.TID 0000.0001) %MON RA_mean                      =   8.2992246709265E+10
(PID.TID 0000.0001) %MON RA_sd                        =   1.7509089299457E+10
(PID.TID 0000.0001) %MON RAW_max                      =   1.0480965274559E+11
(PID.TID 0000.0001) %MON RAW_min                      =   1.2166903467143E+10
(PID.TID 0000.0001) %MON RAW_mean                     =   8.2992246709235E+10
(PID.TID 0000.0001) %MON RAW_sd                       =   1.7481917919656E+10
(PID.TID 0000.0001) %MON RAS_max                      =   1.0480965274559E+11
(PID.TID 0000.0001) %MON RAS_min                      =   1.2166903467143E+10
(PID.TID 0000.0001) %MON RAS_mean                     =   8.2992246709235E+10
(PID.TID 0000.0001) %MON RAS_sd                       =   1.7481917919656E+10
(PID.TID 0000.0001) %MON RAZ_max                      =   1.0484349334619E+11
(PID.TID 0000.0001) %MON RAZ_min                      =   8.8317900612505E+09
(PID.TID 0000.0001) %MON RAZ_mean                     =   8.2992246709235E+10
(PID.TID 0000.0001) %MON RAZ_sd                       =   1.7482297311044E+10
(PID.TID 0000.0001) %MON AngleCS_max                  =   9.9999994756719E-01
(PID.TID 0000.0001) %MON AngleCS_min                  =  -9.9968286884824E-01
(PID.TID 0000.0001) %MON AngleCS_mean                 =   3.3078922539000E-01
(PID.TID 0000.0001) %MON AngleCS_sd                   =   6.2496278958502E-01
(PID.TID 0000.0001) %MON AngleSN_max                  =   9.9968286884824E-01
(PID.TID 0000.0001) %MON AngleSN_min                  =  -9.9999994756719E-01
(PID.TID 0000.0001) %MON AngleSN_mean                 =  -3.3078922539000E-01
(PID.TID 0000.0001) %MON AngleSN_sd                   =   6.2496278958502E-01
(PID.TID 0000.0001)  MDS_READ_FIELD: opening global file: bathy_Hmin50.bin
(PID.TID 0000.0001) // =======================================================
(PID.TID 0000.0001) // Field Model R_low (ini_masks_etc)
(PID.TID 0000.0001) // CMIN =         -5.200000000000000E+03
(PID.TID 0000.0001) // CMAX =         -5.000000000000000E+01
(PID.TID 0000.0001) // CINT =          1.907407407407407E+02
(PID.TID 0000.0001) // SYMBOLS (CMIN->CMAX): -abcdefghijklmnopqrstuvwxyz+
(PID.TID 0000.0001) //                  0.0: .
(PID.TID 0000.0001) // RANGE I (Lo:Hi:Step):(    -3:   388:     1)
(PID.TID 0000.0001) // RANGE J (Lo:Hi:Step):(    20:    -3:    -1)
(PID.TID 0000.0001) // RANGE K (Lo:Hi:Step):(   1:   1:   1)
(PID.TID 0000.0001) // =======================================================
(PID.TID 0000.0001) K =   1
(PID.TID 0000.0001) //                I=6       I=16      I=26      I=36      I=38      I=48      I=58      I=68      I=70      I=80      I=90      I=100     I=102     I=112     I=122     I=132     I=134     I=144     I=154     I=164     I=166     I=176     I=186     I=196     I=198     I=208     I=218     I=228     I=230     I=240     I=250     I=260     I=262     I=272     I=282     I=292     I=294     I=304     I=314     I=324     I=326     I=336     I=346     I=356     I=358     I=368     I=378     I=388
(PID.TID 0000.0001) // |--J--|321012345|789012345|789012345|789012345|901234567|901234567|901234567|901234567|123456789|123456789|123456789|123456789|345678901|345678901|345678901|345678901|567890123|567890123|567890123|567890123|789012345|789012345|789012345|789012345|901234567|901234567|901234567|901234567|123456789|123456789|123456789|123456789|345678901|345678901|345678901|345678901|567890123|567890123|567890123|567890123|789012345|789012345|789012345|789012345|901234567|901234567|901234567|901234567|
(PID.TID 0000.0001) //     20 fbbbcgfcaa-aae+.......................lccbbc-ddcbcdehkhhmn..++........................lcgfdddhq.+hiilnz++.+oquxyz--adgkf................................okn.skkodcaabcfmtooyxz......+yuiiy....++gb--------a-fc----bba-cp.............tfeecccbbdegb--------ddcca-a-----acbaa------bbaaaabecccbbdeddedcdcccdddcddffggghiggfffdeeff........ywxy.lulo.lv...kcdgddffefffilyx+ijlihjlica---a--cgffel.+edfgeedflcbahgflfffilyx+fffk.+xyyy.........mgeimvskjkllllcbahgfllfhdffhkfffca-aady...llnabdoa--a
(PID.TID 0000.0001) //     19 zmfeccdghfeegcbt......................aadcac--cbbeefjkfefw+..........zpu..............aafifccgnrzgghjry.+++sr+lq.--edfkk................................kqnzrqqkoxtkblwnnsp.vv......skhggt...+++t---------b-da----bbbbfu..............fdddccaadct---------bdaf---------edd-------adlaaaaddccaadcdddcbbbbcdddcccdffffghgffffddeff+..........vnhzy.tllqiedccdhggfggffiiggflligfiljfba---aafddehy...pwvlhfffcbagfccgffiiggfcbdgy..yz..........xigqophijkkiifcbagfcceeffffjlkjgaa---bfvheeln-aesaaab
(PID.TID 0000.0001) //     18 ..wifedfkhfegbbcivlqfoz..............jaad--ba-abcehjnldcclz+........spps.............jaacfihggokeeffgt..++++..hhlfdeddke...............................vkqn+xnnnz..qcz+.zwxtsttz..ysrkhot++++++zig------cabbcbba--aabfu+..............hcbaaaaaccig--------b--f---------egqqqaa----frb---baaaaaccdccbaaabbddddccdffffghfeeeeedeff+........+kkrhw.vqmlnieddcdehgggffgigedbjiffefilhfcaaaacgceei.......zomggfcaecbbffgigedbaaceiy.............zilrddefikkhhgfcaecbbccddefilihecbaacbaajfega-aesfeed
(PID.TID 0000.0001) //     17 ..+wfeefikhgcbbccaaacgn.............icaa--abbbccceiomkfdbbc+.......+s...............icaaccfihfoedddeedy..++...nnqwgfeeke...............................xsrxzz+z.yy.z++..+zsjjllllljllpjos+++.+zhhi-----efdcddb-----adu+...............hcbaa--acchi-----e-----ea--------foqqoqqo--hlwgea-baa--accddba--bbbddddccdfffhhgfeeddccedd.........+nk+..xiioonhfefddegihhghigfdbahfeddfgikhfffdfgccffw........zohhgebbaaaghigfdbaaabdgx..............nheddefiklhghgebbaaaaaccdfhlhfefdcccaabjefbaaafoosso
(PID.TID 0000.0001) //     16 ....wiheddeccdfhfbabdfl............jdbad--bddefhhkqqlgfaakqz..v.+..+...............jdbaddddgifkccccdccd+.++..++ynvz.tkkq.............................++..u+....z.mu....++zyslllllkhggkmpy++...ihhi-----eigfdba----adu+................kdcaaa-acchi-----ea---feb-----a-acnoohfghknvmwnucacaaa-accdcb---bbbcdddddefffggfeeedcccccb..........qhu..hhhkojgffgeefghihhiieedbaccbbdcdfgghhiihcbeiw.........+ynjgebaaaahiieedbaaabcdy..............ygddeghiljgfjgebaaaa-aacccfikkhecccbbbaaabaadfklnqpp
(PID.TID 0000.0001) //     15 ......ylea--acfihebcbbes..........sfcbbnabbcffijnpnqneaaat..umrr+s.z..............sfcbbngfffigcaaabdbcac+.+++++zgmpx...y.............................+++++.ztsvd.mm....++..zslwz.yhhhhnz+++...rhgc----ablifeb--dfdfu+................+lkdca--abcgc----ab----ige----acaaalllkddfiy..yswxbdca--abcccb---bbbbddddeffflhfeeeecbbbbaa..........thk.xgghiligfghfefhhhhiiheedcdba-abbacbcdceffbbfw+..........++ujfbaaa-iiheedcdbbabdmz.............zfdeghikkifdujfbaaa----aacffiljgfffcca--adfikkiihhhf
(PID.TID 0000.0001) //     14 ........c---acgkhdcc--di..........ofddch--adgillkkkifcadcx.ymmqzqikvnnps..........ofddchohffikaaaaabaaa-aw+.+ysnggox++...............................+++++wmegt-.qrv..........yzzzzrjil+++....qhgd-----ajlifcacdlqx+++...............mligea---abgd-----a-----i---cccdeabkklldinqssy..xxvgea---abbbb---abaaddddeedkmeddefdbbbaaaa...........+y.uhghikihgfghefgihhhgeeeeedbc---b--aaaaabaabm..............+viba---hgeeeeeddbaadhw.............nedeghjjhfed+viba-------acdefinmlgiieb-chnnnmlmlgffc
(PID.TID 0000.0001) //     13 .......+b----cfkhec---afz.........nhfdff--cfiljigfjd--efdozy...+ximpnnuz..........nhfdffholghkaaaaaba-a---flkkuswyy++++y..............................+++yqddhp-+zr...........zzzzz++ry++......yd-------iljhcbbchz+......++.........+mmhffc----ad--------------aeecdeidfkkqnqlmqquukqqmfffc----aaba------acdddcbcineddgdbaaa----..............iihiijjhfefgefhjihiffgggffcdd--a------aa-bfz...............+qe---aiffgggffecaabelx...........zjecehijhfecc.+qe---aa---aedeegknmlgiigcdfhpokkimlfdb
(PID.TID 0000.0001) //     12 .......ec----chjhec---ag..........skiqdd-abgkhfcccea-bdei........t................skiqddeiiiifaaabae--a---dd--iu+++.+++s..............................++zwgfcfk-xq++..........+z+++++.+++....++.s-------gknhccbbhwwy.....+++........+njfeed-----s------------a-ceccdejhlllkqlkklssiccdeeeed-----aa-------abddcabcnfddegcaaa-----.............wjkkkjjjigeefffgjiiighiiihhhlf------------dk+................+ja---ighiiihhhdaabdffghtxx......mfccehjiffdb-..+ja------bffdddehfd--bedaacfhpnligiihd
(PID.TID 0000.0001) //     11 ......pdca--achlheba--ai..........nkn.fd-acghfbaaaa-achmy......................+..nkn.fdemijidaaaabi-------a--q+....++.z.......+++....................++vnbbbcleiis...........+++++..........+yyza----b-fkpkeeecflmqxy....++........+lhfeecc----za----b-----a--ccccddkhieekkossssfbbbbcdeecc------------aaadcbabcfhddccba-------............njjijhhihijhgggggjjjjijkkkkjzqd-----------irw.................++e---jijkkkkjjhcaacddeegpy.....xfdccdhjgfdda-..++e-----mhmijddda--------ahhfiokhedegg
(PID.TID 0000.0001) //     10 ......wfdb--achlhea---an.........uos..dc-adhfca-----bfiv.......................+.uos..dcemikkfdcaabi-------equ+................++sy...................+tq-fdbblcmk...........................zyvuq----ccjknqiheddefhiksz++++........zkhfdccb----uq----cc----a---dcfhkopqjeissrnpfbbcccdedccb------------aabdcaaaacfddbca-------a..........zslihhigghgijjihhhhkllkkkkkkjk+xfa-abb-----vvv...................+wa--kkkkkkjkkkedccdeeeeipz..zwhccbcdhgfddcam...+wa---mlmkijhc----------cjjffiheb-aad
(PID.TID 0000.0001) //      9 ......vgec---bfikca--cjl+.......+nnv.+cc-achfa------ch+..................w......+nnv.+ccffhkkiddaadha-----as++...........w.......njo+................+x-----bcgipvz++........................zxuuk------diqqojfefiiiijmy.++.........zkhfdbaa----uk------a---a----djmqrrnlllsoiddcccccdjfdbaa-------daa---acccaaaacccca--------ac.........+zjijhfgfggffhjkkkiillljihhghgi.+udaabbb----tei...................++qdejihhghgihighdeeffgghimnnjgecbbcdgfeccbas...++qdeqnghiljcaaaaidaa----beedeeca--bb
(PID.TID 0000.0001) //      8 .....zleca---afjfca--hdfz.......vkky.jceaaeifa--acbcei...................w......vkky.jceddefijffdddhb--a-afv.............w.......likn+.....++.....++znpa----bbdinn..ss.........................+yku------fnlmnjhinlksssw............qhfeca------yku--------------ejnpqqnninnritqdccchkmfca--------addc--aeffaaaaaaccb-a----a--bd+.......wihgghgeffffeefhijkjkljiigeeffef.++udbbaba---ven....................++xyigeeffefffhjhhikkklljklmhffeeeggfdcbaay.....++xywnfgllcbbabegkecba----ddddcaacdc
(PID.TID 0000.0001) //      7 ...+zohec--abcfkhecbchbdx.......qiht.faaabfida-aabchjk...................zz.....qiht.faaaabdgijgfededcdcb-f+.............zz.....nhhijz....tqq.....+ujgzgd---abcinn...pz.........................+zu------cegklkkknols..xuu..........zgfdba------+zu--------------edefqgqddsz+......+yuddba--------bcd---affaaadffabbb-----aa-bccmm+....tiggfggfeeeefeeefiiiijkiihheddddd.+.+ufb-----l.gx...........s.........++zhheddddddddjjllliijhfkmmkkjjhijgdcba--q......++zzkfilfccccoz..ulkcd---bccnfddddd
(PID.TID 0000.0001) //      6 ..+yomfddcaabefkifdchaadt......uqdeisc---afhfaa---bfgi....................zz..rnqdeisc----dfefgifffkklldc--v..............zz..rnjffggm...nlmn+....+sffzya--aabciup...pp.........................v.x-----eaaffdfhimrmp...yuu.++.......zudba------v.x---------a----fbbpqgzenx+........zdbcba--------adc---dda-adffe-aa--------aaacmllkhhfffffffgfeeeeeeeefhhhhijihhffddcbb....+ufc-baaqvhh..........dcfeeh......++hffddcbbbbdhhiihedddb-cfhhhjjjieca----+.......++zggqvifefhz......zobbaccfwuffeee
(PID.TID 0000.0001) //      5 ..+nhgffkghccfhkhffgdaackz....uoibcimlaababcgca----abe.....................ysstlibcimlaaacfbddfjjhijeehf-a-c...............ysstlgeeeeoz..ijklt+....lfjzzf---adfczs...su.........................qk.yi---fdaadcehllotq....yy+++zzs.....+zcba-----qk.yi-------gha-fjddqs+xkrz.........q-bccba-------cdd--aaa----df------------aaachikdccdeeeeeeedddedddddgghhhhjhhgffcbbaa.....+upjdcy.vohq.......+idcdfeeefwz....gffcbbaaaaddfegecca----dfeefhfgdb-----+.efwz....+hhn.vklox.........gdccfjwrigffh
(PID.TID 0000.0001) //      4 .+ujhgfllfhdffhkfffca-aady...llnabdopfcbfbbbcgfcaa-aae+.......................lcabdopfcbdgdbcdehlihgfddc--ms..................lcgfdddhq.+hiilnz++.+oquxyz--adgkf................................okn.zd--dcaabcfmtooyxz......+yuiiy....++gb------okn.zd---eciiiicfkeeqy.ysz..........n-aagb--------ddcca-a-----acbaa------bbaaaabfgdcbbdeddedcdcccdddcddffggghiggfffdbaa-........ywxy.lulo.lv...kcdgddffefffilyx+fffdbaa---acdcccba--abvfedeffdcca----b+.fffilyx+fffk.+xyyy.........mgeimvskjklll
(PID.TID 0000.0001) //      3 +vjggfcceeffffjlkjgaa---bfvheeln-aesphfdzmfeccdghfeegcbt......................aa-aesphfdhgabddeflihhgfecbaaayq+++++...........aafifccgnrzgghjry.+++sr+lq.--edfkk................................kqnz.vtpoxtkblwnnsp.vv......skhggt...+++t-------kqnz.vtpkllgdccfkkkkk..++..........+g---t---------bdaf---------edd-------adlaaaafecaaadcdddcbbbbcdddcccdffffghgffffdcaa-+..........vnhzy.tllqiedccdhggfggffiiggffffdcaa----abcaaaa-acxxmecdjmdbba----r+.gffiiggfcbdgy..yz..........xigqophijkkii
(PID.TID 0000.0001) //      2 qifeecbbccddefilihecbaacbaajfega-aesqhff..wifedfkhfegbbcivlqfoz..............jaa-aesqhffiea-cdeflkkljifeddcba---bry+.........jaacfihggokeeffgt..++++..hhlfdeddke...............................vkqn+.sghz..qcz+.zwxtsttz..ysrkhot++++++zig------kqn+.sghfcbcbbbdgfdek.++++.........+l---ig--------b--f---------egqqqaa----frb---caaaaaccdccbaaabbddddccdffffghfeeeeecba-+........+kkrhw.vqmlnieddcdehgggffgigedbeeeecba------baaaa-euwxqdbcdkud-----sy+.ffgigedbaaceiy.............zilrddefikkhh
(PID.TID 0000.0001) //      1 ebbbbaaaaaccdfhlhfefdcccaabjefbaaafonhgl..+wfeefikhgcbbccaaacgn.............icaaaafonhglid--adfgkkkklkhffddca-----s++++.....icaaccfihfoedddeedy..++...nnqwgfeeke...............................xsrxz.tedyy.z++..+zsjjllllljllpjos+++.+zhhi-----esrxz.tedcbbbbaaadddet.++++.........+l---hi-----e-----ea--------foqqoqqo--hlwgea----a-accddba--bbbddddccdfffhhgfeeddccba-.........+nk+..xiioonhfefddegihhghigfdbaeddccba-------aaaabgns.qcbcchyzqngll++..ghigfdbaaabdgx..............nheddefiklhg
(PID.TID 0000.0001) //      0 -aaaaaaa-aacccfikkhecccbbbaaabaadfkllilm....wiheddeccdfhfbabdfl............jdbaddfkllilmgebaadfijjiiikjhffdcba-----lllgn...jdbaddddgifkccccdccd+.++..++ynvz.tkkq.............................++..u+..zmd.mu....++zyslllllkhggkmpy++...ihhi-----e.u+..zmdfbd---a-aeef.xx+..........+++s--hi-----ea---feb-----a-acnoohfghknvmwnuca-----accdcb---bbbcdddddefffggfeeedcccbba..........qhu..hhhkojgffgeefghihhiieedbaedcccbba----aa--alrwwy.kcbccc+...++++...hiieedbaaabcdy..............ygddeghiljgf
(PID.TID 0000.0001) //     -1 --aaaaa----aacffiljgfffcca--adfikkiikimi......ylea--acfihebcbbes..........sfcbbnkkiikimiiheccfurkiffhijjigfecb-----l----..sfcbbngfffigcaaabdbcac+.+++++zgmpx...y.............................+++++.z+.wq.mm....++..zslwz.yhhhhnz+++...rhgc----ab++.z+.wqgbf-------dgzpoy+........+ys+yrbgc----ab----ige----acaaalllkddfiy..yswxb--aa-abcccb---bbbbddddeffflhfeeeecbbcbba..........thk.xgghiligfghfefhhhhiiheedcdecbbcbbaa----a--bdflm.yuibbcc.......+...iiheedcdbbabdmz.............zfdeghikkifd
(PID.TID 0000.0001) //     -2 --aaa-------acdefinmlgiieb-chnnnmlmlfklk........c---acgkhdcc--di..........ofddchmlmlfklklkhednwwsheeghhijjgfdca----g---a..ofddchohffikaaaaabaaa-aw+.+ysnggox++...............................+++++wmu++y.qrv..........yzzzzrjil+++....qhgd-----a++wmu++ywn--------fwvmgy+........+r-.+++gd-----a-----i---cccdeabkklldinqssy..xxv-abc--abbbb---abaaddddeedkmeddefdbbbdcba...........+y.uhghikihgfghefgihhhgeeeeeddbbbdcbaa-------ba-hv.susfbcc.......+...hgeeeeeddbaadhw.............nedeghjjhfed
(PID.TID 0000.0001) //     -3 a--a---aa---aedeegknmlgiigcdfhpokkimdkmk.......+b----cfkhec---afz.........nhfdffkkimdkmknoiedcfjvpddegghhhhgfdcbaa-n---a..nhfdffholghkaaaaaba-a---flkkuswyy++++y..............................+++yqd.++++zr...........zzzzz++ry++......yd-------+yqd.+++zvq--dafz.lqnggw+........+b-....d--------------aeecdeidfkkqnqlmqquukqqmfabcc---aaba------acdddcbcineddgdbaaaeedb..............iihiijjhfefgefhjihiffgggffbaaaeedbaa----------nysqssfcd...........iffgggffecaabelx...........zjecehijhfecc
(PID.TID 0000.0001) // =======================================================
(PID.TID 0000.0001) // END OF FIELD                                          =
(PID.TID 0000.0001) // =======================================================
(PID.TID 0000.0001) 
(PID.TID 0000.0001) // =======================================================
(PID.TID 0000.0001) // Field Model Ro_surf (ini_masks_etc)
(PID.TID 0000.0001) // CMIN =          1.000000000000000E+32
(PID.TID 0000.0001) // CMAX =         -1.000000000000000E+32
(PID.TID 0000.0001) // CINT =          0.000000000000000E+00
(PID.TID 0000.0001) // SYMBOLS (CMIN->CMAX): -abcdefghijklmnopqrstuvwxyz+
(PID.TID 0000.0001) //                  0.0: .
(PID.TID 0000.0001) // RANGE I (Lo:Hi:Step):(    -3:   388:     1)
(PID.TID 0000.0001) // RANGE J (Lo:Hi:Step):(    20:    -3:    -1)
(PID.TID 0000.0001) // RANGE K (Lo:Hi:Step):(   1:   1:   1)
(PID.TID 0000.0001) // =======================================================
(PID.TID 0000.0001) // =======================================================
(PID.TID 0000.0001) // END OF FIELD                                          =
(PID.TID 0000.0001) // =======================================================
(PID.TID 0000.0001) 
(PID.TID 0000.0001) // =======================================================
(PID.TID 0000.0001) // Field hFacC at iteration          0
(PID.TID 0000.0001) // CMIN =          1.000000000000000E+00
(PID.TID 0000.0001) // CMAX =          1.000000000000000E+00
(PID.TID 0000.0001) // CINT =          0.000000000000000E+00
(PID.TID 0000.0001) // SYMBOLS (CMIN->CMAX): -abcdefghijklmnopqrstuvwxyz+
(PID.TID 0000.0001) //                  0.0: .
(PID.TID 0000.0001) // RANGE I (Lo:Hi:Step):(    -3:   388:     1)
(PID.TID 0000.0001) // RANGE J (Lo:Hi:Step):(    20:    -3:    -1)
(PID.TID 0000.0001) // RANGE K (Lo:Hi:Step):(   1:   1:   1)
(PID.TID 0000.0001) // =======================================================
(PID.TID 0000.0001) // =======================================================
(PID.TID 0000.0001) // END OF FIELD                                          =
(PID.TID 0000.0001) // =======================================================
(PID.TID 0000.0001) 
(PID.TID 0000.0001) // =======================================================
(PID.TID 0000.0001) // Field hFacW at iteration          0
(PID.TID 0000.0001) // CMIN =          1.000000000000000E+00
(PID.TID 0000.0001) // CMAX =          1.000000000000000E+00
(PID.TID 0000.0001) // CINT =          0.000000000000000E+00
(PID.TID 0000.0001) // SYMBOLS (CMIN->CMAX): -abcdefghijklmnopqrstuvwxyz+
(PID.TID 0000.0001) //                  0.0: .
(PID.TID 0000.0001) // RANGE I (Lo:Hi:Step):(    -3:   388:     1)
(PID.TID 0000.0001) // RANGE J (Lo:Hi:Step):(    20:    -3:    -1)
(PID.TID 0000.0001) // RANGE K (Lo:Hi:Step):(   1:   1:   1)
(PID.TID 0000.0001) // =======================================================
(PID.TID 0000.0001) // =======================================================
(PID.TID 0000.0001) // END OF FIELD                                          =
(PID.TID 0000.0001) // =======================================================
(PID.TID 0000.0001) 
(PID.TID 0000.0001) // =======================================================
(PID.TID 0000.0001) // Field hFacS at iteration          0
(PID.TID 0000.0001) // CMIN =          1.000000000000000E+00
(PID.TID 0000.0001) // CMAX =          1.000000000000000E+00
(PID.TID 0000.0001) // CINT =          0.000000000000000E+00
(PID.TID 0000.0001) // SYMBOLS (CMIN->CMAX): -abcdefghijklmnopqrstuvwxyz+
(PID.TID 0000.0001) //                  0.0: .
(PID.TID 0000.0001) // RANGE I (Lo:Hi:Step):(    -3:   388:     1)
(PID.TID 0000.0001) // RANGE J (Lo:Hi:Step):(    20:    -3:    -1)
(PID.TID 0000.0001) // RANGE K (Lo:Hi:Step):(   1:   1:   1)
(PID.TID 0000.0001) // =======================================================
(PID.TID 0000.0001) // =======================================================
(PID.TID 0000.0001) // END OF FIELD                                          =
(PID.TID 0000.0001) // =======================================================
(PID.TID 0000.0001) 
(PID.TID 0000.0001) GAD_INIT_FIXED: GAD_OlMinSize=  1  0  1
(PID.TID 0000.0001) 
(PID.TID 0000.0001) // ===================================
(PID.TID 0000.0001) // GAD parameters :
(PID.TID 0000.0001) // ===================================
(PID.TID 0000.0001) tempAdvScheme =   /* Temp. Horiz.Advection scheme selector */
(PID.TID 0000.0001)                       2
(PID.TID 0000.0001)     ;
(PID.TID 0000.0001) tempVertAdvScheme =   /* Temp. Vert. Advection scheme selector */
(PID.TID 0000.0001)                       2
(PID.TID 0000.0001)     ;
(PID.TID 0000.0001) tempMultiDimAdvec =   /* use Muti-Dim Advec method for Temp */
(PID.TID 0000.0001)                   F
(PID.TID 0000.0001)     ;
(PID.TID 0000.0001) tempSOM_Advection = /* use 2nd Order Moment Advection for Temp */
(PID.TID 0000.0001)                   F
(PID.TID 0000.0001)     ;
(PID.TID 0000.0001) AdamsBashforthGt = /* apply Adams-Bashforth extrapolation on Gt */
(PID.TID 0000.0001)                   T
(PID.TID 0000.0001)     ;
(PID.TID 0000.0001) AdamsBashforth_T = /* apply Adams-Bashforth extrapolation on Temp */
(PID.TID 0000.0001)                   F
(PID.TID 0000.0001)     ;
(PID.TID 0000.0001) saltAdvScheme =   /* Salt. Horiz.advection scheme selector */
(PID.TID 0000.0001)                       2
(PID.TID 0000.0001)     ;
(PID.TID 0000.0001) saltVertAdvScheme =   /* Salt. Vert. Advection scheme selector */
(PID.TID 0000.0001)                       2
(PID.TID 0000.0001)     ;
(PID.TID 0000.0001) saltMultiDimAdvec =   /* use Muti-Dim Advec method for Salt */
(PID.TID 0000.0001)                   F
(PID.TID 0000.0001)     ;
(PID.TID 0000.0001) saltSOM_Advection = /* use 2nd Order Moment Advection for Salt */
(PID.TID 0000.0001)                   F
(PID.TID 0000.0001)     ;
(PID.TID 0000.0001) AdamsBashforthGs = /* apply Adams-Bashforth extrapolation on Gs */
(PID.TID 0000.0001)                   T
(PID.TID 0000.0001)     ;
(PID.TID 0000.0001) AdamsBashforth_S = /* apply Adams-Bashforth extrapolation on Salt */
(PID.TID 0000.0001)                   F
(PID.TID 0000.0001)     ;
(PID.TID 0000.0001) // ===================================
(PID.TID 0000.0001) PTRACERS_INIT_FIXED: updated GAD_OlMinSize=  2  0  2
(PID.TID 0000.0001) ------------------------------------------------------------
(PID.TID 0000.0001) DIAGNOSTICS_SET_LEVELS: done
(PID.TID 0000.0001)  Total Nb of available Diagnostics: ndiagt=   247
(PID.TID 0000.0001)  write list of available Diagnostics to file: available_diagnostics.log
(PID.TID 0000.0001) SETDIAG: Allocate 15 x  1 Levels for Diagnostic #    79 DRHODR
(PID.TID 0000.0001) SETDIAG: Allocate 15 x  1 Levels for Diagnostic #    64 RHOAnoma
(PID.TID 0000.0001) SETDIAG: Allocate 15 x  1 Levels for Diagnostic #    80 CONVADJ
(PID.TID 0000.0001) SETDIAG: Allocate 15 x  1 Levels for Diagnostic #   210 GM_Kwx
(PID.TID 0000.0001) SETDIAG: Allocate 15 x  1 Levels for Diagnostic #   211 GM_Kwy
(PID.TID 0000.0001) SETDIAG: Allocate 15 x  1 Levels for Diagnostic #   212 GM_Kwz
(PID.TID 0000.0001) SETDIAG: Allocate 15 x  1 Levels for Diagnostic #   213 GM_PsiX
(PID.TID 0000.0001) SETDIAG: Allocate 15 x  1 Levels for Diagnostic #   214 GM_PsiY
(PID.TID 0000.0001)   space allocated for all diagnostics:     120 levels
(PID.TID 0000.0001)   set mate pointer for diag #   210  GM_Kwx   , Parms: UM      LR , mate:   211
(PID.TID 0000.0001)   set mate pointer for diag #   211  GM_Kwy   , Parms: VM      LR , mate:   210
(PID.TID 0000.0001)   set mate pointer for diag #   213  GM_PsiX  , Parms: UU      LR , mate:   214
(PID.TID 0000.0001)   set mate pointer for diag #   214  GM_PsiY  , Parms: VV      LR , mate:   213
(PID.TID 0000.0001) DIAGNOSTICS_SET_POINTERS: Set levels for Outp.Stream: oceDiag
(PID.TID 0000.0001)  Levels:       1.   2.   3.   4.   5.   6.   7.   8.   9.  10.  11.  12.  13.  14.  15.
(PID.TID 0000.0001) DIAGNOSTICS_SET_POINTERS: done, use     120 levels (numDiags =     600 )
(PID.TID 0000.0001) ------------------------------------------------------------
(PID.TID 0000.0001) DIAGSTATS_SET_REGIONS: define   0 regions:
(PID.TID 0000.0001) ------------------------------------------------------------
(PID.TID 0000.0001) SETDIAG: Allocate  1 Levels for Stats-Diag #    23 ETAN
(PID.TID 0000.0001) SETDIAG: Allocate 15 Levels for Stats-Diag #    30 UVEL
(PID.TID 0000.0001) SETDIAG: Allocate 15 Levels for Stats-Diag #    31 VVEL
(PID.TID 0000.0001) SETDIAG: Allocate 15 Levels for Stats-Diag #    32 WVEL
(PID.TID 0000.0001) SETDIAG: Allocate 15 Levels for Stats-Diag #    26 THETA
(PID.TID 0000.0001)   space allocated for all stats-diags:      61 levels
(PID.TID 0000.0001) DIAGSTATS_SET_POINTERS: done, use      61 levels (diagSt_size=     150 )
(PID.TID 0000.0001) ------------------------------------------------------------
(PID.TID 0000.0001) INI_GLOBAL_DOMAIN: Found  19 CS-corner Pts in the domain
(PID.TID 0000.0001) %MON fCori_max                    =   1.4574827780704E-04
(PID.TID 0000.0001) %MON fCori_min                    =  -1.4574827780704E-04
(PID.TID 0000.0001) %MON fCori_mean                   =   3.3881317890172E-21
(PID.TID 0000.0001) %MON fCori_sd                     =   8.4202189509968E-05
(PID.TID 0000.0001) %MON fCoriG_max                   =   1.4584247033981E-04
(PID.TID 0000.0001) %MON fCoriG_min                   =  -1.4584247033981E-04
(PID.TID 0000.0001) %MON fCoriG_mean                  =  -1.6940658945086E-20
(PID.TID 0000.0001) %MON fCoriG_sd                    =   8.4202189509968E-05
(PID.TID 0000.0001) %MON fCoriCos_max                 =   1.4580166994612E-04
(PID.TID 0000.0001) %MON fCoriCos_min                 =   5.2407700865903E-06
(PID.TID 0000.0001) %MON fCoriCos_mean                =   1.1514045869113E-04
(PID.TID 0000.0001) %MON fCoriCos_sd                  =   3.0375849106513E-05
(PID.TID 0000.0001) INI_CG2D: CG2D normalisation factor =  1.9156564154949553E-04
(PID.TID 0000.0001) INI_CG2D: cg2dTolerance = 5.809016360175296E-07 (Area=3.6388673751E+14)
(PID.TID 0000.0001) 
(PID.TID 0000.0001) // =======================================================
(PID.TID 0000.0001) // Model configuration
(PID.TID 0000.0001) // =======================================================
(PID.TID 0000.0001) //
(PID.TID 0000.0001) // "Physical" paramters ( PARM01 in namelist )
(PID.TID 0000.0001) //
(PID.TID 0000.0001) buoyancyRelation = /* Type of relation to get Buoyancy */
(PID.TID 0000.0001)               'OCEANIC'
(PID.TID 0000.0001)     ;
(PID.TID 0000.0001) fluidIsAir   =  /* fluid major constituent is Air */
(PID.TID 0000.0001)                   F
(PID.TID 0000.0001)     ;
(PID.TID 0000.0001) fluidIsWater =  /* fluid major constituent is Water */
(PID.TID 0000.0001)                   T
(PID.TID 0000.0001)     ;
(PID.TID 0000.0001) usingPCoords =  /* use p (or p*) vertical coordinate */
(PID.TID 0000.0001)                   F
(PID.TID 0000.0001)     ;
(PID.TID 0000.0001) usingZCoords =  /* use z (or z*) vertical coordinate */
(PID.TID 0000.0001)                   T
(PID.TID 0000.0001)     ;
(PID.TID 0000.0001) tRef =   /* Reference temperature profile ( oC or K ) */
(PID.TID 0000.0001)    15 @  2.000000000000000E+01              /* K =  1: 15 */
(PID.TID 0000.0001)     ;
(PID.TID 0000.0001) sRef =   /* Reference salinity profile ( g/kg ) */
(PID.TID 0000.0001)    15 @  3.500000000000000E+01              /* K =  1: 15 */
(PID.TID 0000.0001)     ;
(PID.TID 0000.0001) rhoRef =   /* Density vertical profile from (Ref,sRef)( kg/m^3 ) */
(PID.TID 0000.0001)                 1.024872626184147E+03,      /* K =  1 */
(PID.TID 0000.0001)                 1.025135462285008E+03,      /* K =  2 */
(PID.TID 0000.0001)                 1.025507198938228E+03,      /* K =  3 */
(PID.TID 0000.0001)                 1.026030780760464E+03,      /* K =  4 */
(PID.TID 0000.0001)                 1.026748377776259E+03,      /* K =  5 */
(PID.TID 0000.0001)                 1.027679406285166E+03,      /* K =  6 */
(PID.TID 0000.0001)                 1.028820735595355E+03,      /* K =  7 */
(PID.TID 0000.0001)                 1.030168558073105E+03,      /* K =  8 */
(PID.TID 0000.0001)                 1.031718419899614E+03,      /* K =  9 */
(PID.TID 0000.0001)                 1.033465256541184E+03,      /* K = 10 */
(PID.TID 0000.0001)                 1.035403432414885E+03,      /* K = 11 */
(PID.TID 0000.0001)                 1.037526784183520E+03,      /* K = 12 */
(PID.TID 0000.0001)                 1.039828667078104E+03,      /* K = 13 */
(PID.TID 0000.0001)                 1.042302003623418E+03,      /* K = 14 */
(PID.TID 0000.0001)                 1.044939334132512E+03       /* K = 15 */
(PID.TID 0000.0001)     ;
(PID.TID 0000.0001) dBdrRef = /* Vertical grad. of reference buoyancy [(m/s/r)^2] */
(PID.TID 0000.0001)    15 @  0.000000000000000E+00              /* K =  1: 15 */
(PID.TID 0000.0001)     ;
(PID.TID 0000.0001) useStrainTensionVisc= /* Use StrainTension Form of Viscous Operator */
(PID.TID 0000.0001)                   F
(PID.TID 0000.0001)     ;
(PID.TID 0000.0001) useVariableVisc = /* Use variable horizontal viscosity */
(PID.TID 0000.0001)                   F
(PID.TID 0000.0001)     ;
(PID.TID 0000.0001) useHarmonicVisc = /* Use harmonic horizontal viscosity */
(PID.TID 0000.0001)                   T
(PID.TID 0000.0001)     ;
(PID.TID 0000.0001) useBiharmonicVisc= /* Use biharmonic horiz.  viscosity */
(PID.TID 0000.0001)                   F
(PID.TID 0000.0001)     ;
(PID.TID 0000.0001) useSmag3D = /* Use isotropic 3-D Smagorinsky viscosity */
(PID.TID 0000.0001)                   F
(PID.TID 0000.0001)     ;
(PID.TID 0000.0001) viscAh  =   /* Lateral harmonic viscosity ( m^2/s ) */
(PID.TID 0000.0001)                 3.000000000000000E+05
(PID.TID 0000.0001)     ;
(PID.TID 0000.0001) viscA4  =   /* Lateral biharmonic viscosity ( m^4/s ) */
(PID.TID 0000.0001)                 0.000000000000000E+00
(PID.TID 0000.0001)     ;
(PID.TID 0000.0001) no_slip_sides =  /* Viscous BCs: No-slip sides */
(PID.TID 0000.0001)                   T
(PID.TID 0000.0001)     ;
(PID.TID 0000.0001) sideDragFactor = /* side-drag scaling factor (non-dim) */
(PID.TID 0000.0001)                 2.000000000000000E+00
(PID.TID 0000.0001)     ;
(PID.TID 0000.0001) viscArNr = /* vertical profile of vertical viscosity ( m^2/s )*/
(PID.TID 0000.0001)    15 @  1.000000000000000E-03              /* K =  1: 15 */
(PID.TID 0000.0001)     ;
(PID.TID 0000.0001) no_slip_bottom =  /* Viscous BCs: No-slip bottom */
(PID.TID 0000.0001)                   T
(PID.TID 0000.0001)     ;
(PID.TID 0000.0001) bottomVisc_pCell = /* Partial-cell in bottom Visc. BC */
(PID.TID 0000.0001)                   F
(PID.TID 0000.0001)     ;
(PID.TID 0000.0001) bottomDragLinear = /* linear bottom-drag coefficient ( m/s ) */
(PID.TID 0000.0001)                 0.000000000000000E+00
(PID.TID 0000.0001)     ;
(PID.TID 0000.0001) bottomDragQuadratic = /* quadratic bottom-drag coefficient (-) */
(PID.TID 0000.0001)                 0.000000000000000E+00
(PID.TID 0000.0001)     ;
(PID.TID 0000.0001) selectBotDragQuadr = /* select quadratic bottom drag options */
(PID.TID 0000.0001)                      -1
(PID.TID 0000.0001)     ;
(PID.TID 0000.0001) diffKhT =   /* Laplacian diffusion of heat laterally ( m^2/s ) */
(PID.TID 0000.0001)                 0.000000000000000E+00
(PID.TID 0000.0001)     ;
(PID.TID 0000.0001) diffK4T =   /* Biharmonic diffusion of heat laterally ( m^4/s ) */
(PID.TID 0000.0001)                 0.000000000000000E+00
(PID.TID 0000.0001)     ;
(PID.TID 0000.0001) diffKhS =   /* Laplacian diffusion of salt laterally ( m^2/s ) */
(PID.TID 0000.0001)                 0.000000000000000E+00
(PID.TID 0000.0001)     ;
(PID.TID 0000.0001) diffK4S =   /* Biharmonic diffusion of salt laterally ( m^4/s ) */
(PID.TID 0000.0001)                 0.000000000000000E+00
(PID.TID 0000.0001)     ;
(PID.TID 0000.0001) diffKrNrT = /* vertical profile of vertical diffusion of Temp ( m^2/s )*/
(PID.TID 0000.0001)    15 @  3.000000000000000E-05              /* K =  1: 15 */
(PID.TID 0000.0001)     ;
(PID.TID 0000.0001) diffKrNrS = /* vertical profile of vertical diffusion of Salt ( m^2/s )*/
(PID.TID 0000.0001)    15 @  3.000000000000000E-05              /* K =  1: 15 */
(PID.TID 0000.0001)     ;
(PID.TID 0000.0001) diffKrBL79surf = /* Surface diffusion for Bryan and Lewis 79 ( m^2/s ) */
(PID.TID 0000.0001)                 0.000000000000000E+00
(PID.TID 0000.0001)     ;
(PID.TID 0000.0001) diffKrBL79deep = /* Deep diffusion for Bryan and Lewis 1979 ( m^2/s ) */
(PID.TID 0000.0001)                 0.000000000000000E+00
(PID.TID 0000.0001)     ;
(PID.TID 0000.0001) diffKrBL79scl = /* Depth scale for Bryan and Lewis 1979 ( m ) */
(PID.TID 0000.0001)                 2.000000000000000E+02
(PID.TID 0000.0001)     ;
(PID.TID 0000.0001) diffKrBL79Ho = /* Turning depth for Bryan and Lewis 1979 ( m ) */
(PID.TID 0000.0001)                -2.000000000000000E+03
(PID.TID 0000.0001)     ;
(PID.TID 0000.0001) ivdc_kappa = /* Implicit Vertical Diffusivity for Convection ( m^2/s) */
(PID.TID 0000.0001)                 1.000000000000000E+01
(PID.TID 0000.0001)     ;
(PID.TID 0000.0001) hMixCriteria=  /* Criteria for mixed-layer diagnostic */
(PID.TID 0000.0001)                -8.000000000000000E-01
(PID.TID 0000.0001)     ;
(PID.TID 0000.0001) dRhoSmall =  /* Parameter for mixed-layer diagnostic */
(PID.TID 0000.0001)                 1.000000000000000E-06
(PID.TID 0000.0001)     ;
(PID.TID 0000.0001) hMixSmooth=  /* Smoothing parameter for mixed-layer diagnostic */
(PID.TID 0000.0001)                 0.000000000000000E+00
(PID.TID 0000.0001)     ;
(PID.TID 0000.0001) eosType =  /* Type of Equation of State */
(PID.TID 0000.0001)               'JMD95Z'
(PID.TID 0000.0001)     ;
(PID.TID 0000.0001) eosRefP0 = /* Reference atmospheric pressure for EOS ( Pa ) */
(PID.TID 0000.0001)                 1.013250000000000E+05
(PID.TID 0000.0001)     ;
(PID.TID 0000.0001) selectP_inEOS_Zc = /* select pressure to use in EOS (0,1,2,3) */
(PID.TID 0000.0001)                       0
(PID.TID 0000.0001)     0= -g*rhoConst*z ; 1= pRef (from tRef,sRef); 2= Hyd P ; 3= Hyd+NH P
(PID.TID 0000.0001)     ;
(PID.TID 0000.0001) surf_pRef = /* Surface reference pressure ( Pa ) */
(PID.TID 0000.0001)                 1.013250000000000E+05
(PID.TID 0000.0001)     ;
(PID.TID 0000.0001) HeatCapacity_Cp =  /* Specific heat capacity ( J/kg/K ) */
(PID.TID 0000.0001)                 3.994000000000000E+03
(PID.TID 0000.0001)     ;
(PID.TID 0000.0001) celsius2K = /* 0 degree Celsius converted to Kelvin ( K ) */
(PID.TID 0000.0001)                 2.731500000000000E+02
(PID.TID 0000.0001)     ;
(PID.TID 0000.0001) rhoConst  = /* Reference density (Boussinesq)  ( kg/m^3 ) */
(PID.TID 0000.0001)                 1.035000000000000E+03
(PID.TID 0000.0001)     ;
(PID.TID 0000.0001) rhoFacC = /* normalized Reference density @ cell-Center (-) */
(PID.TID 0000.0001)    15 @  1.000000000000000E+00              /* K =  1: 15 */
(PID.TID 0000.0001)     ;
(PID.TID 0000.0001) rhoFacF = /* normalized Reference density @ W-Interface (-) */
(PID.TID 0000.0001)    16 @  1.000000000000000E+00              /* K =  1: 16 */
(PID.TID 0000.0001)     ;
(PID.TID 0000.0001) rhoConstFresh = /* Fresh-water reference density ( kg/m^3 ) */
(PID.TID 0000.0001)                 1.000000000000000E+03
(PID.TID 0000.0001)     ;
(PID.TID 0000.0001) gravity =   /* Gravitational acceleration ( m/s^2 ) */
(PID.TID 0000.0001)                 9.810000000000000E+00
(PID.TID 0000.0001)     ;
(PID.TID 0000.0001) gBaro =   /* Barotropic gravity ( m/s^2 ) */
(PID.TID 0000.0001)                 9.810000000000000E+00
(PID.TID 0000.0001)     ;
(PID.TID 0000.0001) gravFacC = /* gravity factor (vs surf.) @ cell-Center (-) */
(PID.TID 0000.0001)    15 @  1.000000000000000E+00              /* K =  1: 15 */
(PID.TID 0000.0001)     ;
(PID.TID 0000.0001) gravFacF = /* gravity factor (vs surf.) @ W-Interface (-) */
(PID.TID 0000.0001)    16 @  1.000000000000000E+00              /* K =  1: 16 */
(PID.TID 0000.0001)     ;
(PID.TID 0000.0001) rotationPeriod =   /* Rotation Period ( s ) */
(PID.TID 0000.0001)                 8.616400000000000E+04
(PID.TID 0000.0001)     ;
(PID.TID 0000.0001) omega =   /* Angular velocity ( rad/s ) */
(PID.TID 0000.0001)                 7.292123516990375E-05
(PID.TID 0000.0001)     ;
(PID.TID 0000.0001) f0 =   /* Reference coriolis parameter ( 1/s ) */
(PID.TID 0000.0001)                 1.000000000000000E-04
(PID.TID 0000.0001)     ;
(PID.TID 0000.0001) beta =   /* Beta ( 1/(m.s) ) */
(PID.TID 0000.0001)                 9.999999999999999E-12
(PID.TID 0000.0001)     ;
(PID.TID 0000.0001) fPrime =   /* Second coriolis parameter ( 1/s ) */
(PID.TID 0000.0001)                 0.000000000000000E+00
(PID.TID 0000.0001)     ;
(PID.TID 0000.0001) rigidLid =   /* Rigid lid on/off flag */
(PID.TID 0000.0001)                   F
(PID.TID 0000.0001)     ;
(PID.TID 0000.0001) implicitFreeSurface =   /* Implicit free surface on/off flag */
(PID.TID 0000.0001)                   T
(PID.TID 0000.0001)     ;
(PID.TID 0000.0001) freeSurfFac =   /* Implicit free surface factor */
(PID.TID 0000.0001)                 1.000000000000000E+00
(PID.TID 0000.0001)     ;
(PID.TID 0000.0001) implicSurfPress =  /* Surface Pressure implicit factor (0-1) */
(PID.TID 0000.0001)                 1.000000000000000E+00
(PID.TID 0000.0001)     ;
(PID.TID 0000.0001) implicDiv2DFlow =  /* Barot. Flow Div. implicit factor (0-1) */
(PID.TID 0000.0001)                 1.000000000000000E+00
(PID.TID 0000.0001)     ;
(PID.TID 0000.0001) uniformLin_PhiSurf = /* use uniform Bo_surf on/off flag */
(PID.TID 0000.0001)                   T
(PID.TID 0000.0001)     ;
(PID.TID 0000.0001) uniformFreeSurfLev = /* free-surface level-index is uniform */
(PID.TID 0000.0001)                   T
(PID.TID 0000.0001)     ;
(PID.TID 0000.0001) sIceLoadFac =  /* scale factor for sIceLoad (0-1) */
(PID.TID 0000.0001)                 1.000000000000000E+00
(PID.TID 0000.0001)     ;
(PID.TID 0000.0001) hFacMin =   /* minimum partial cell factor (hFac) */
(PID.TID 0000.0001)                 1.000000000000000E-01
(PID.TID 0000.0001)     ;
(PID.TID 0000.0001) hFacMinDr = /* minimum partial cell thickness ( m) */
(PID.TID 0000.0001)                 2.000000000000000E+01
(PID.TID 0000.0001)     ;
(PID.TID 0000.0001) exactConserv =  /* Exact Volume Conservation on/off flag */
(PID.TID 0000.0001)                   T
(PID.TID 0000.0001)     ;
(PID.TID 0000.0001) linFSConserveTr = /* Tracer correction for Lin Free Surface on/off flag */
(PID.TID 0000.0001)                   F
(PID.TID 0000.0001)     ;
(PID.TID 0000.0001) nonlinFreeSurf = /* Non-linear Free Surf. options (-1,0,1,2,3)*/
(PID.TID 0000.0001)                       0
(PID.TID 0000.0001)      -1,0= Off ; 1,2,3= On, 2=+rescale gU,gV, 3=+update cg2d solv.
(PID.TID 0000.0001)     ;
(PID.TID 0000.0001) hFacInf =   /* lower threshold for hFac (nonlinFreeSurf only)*/
(PID.TID 0000.0001)                 2.000000000000000E-01
(PID.TID 0000.0001)     ;
(PID.TID 0000.0001) hFacSup =   /* upper threshold for hFac (nonlinFreeSurf only)*/
(PID.TID 0000.0001)                 2.000000000000000E+00
(PID.TID 0000.0001)     ;
(PID.TID 0000.0001) select_rStar = /* r* Vertical coord. options (=0 r coord.; >0 uses r*)*/
(PID.TID 0000.0001)                       0
(PID.TID 0000.0001)     ;
(PID.TID 0000.0001) useRealFreshWaterFlux = /* Real Fresh Water Flux on/off flag*/
(PID.TID 0000.0001)                   T
(PID.TID 0000.0001)     ;
(PID.TID 0000.0001) temp_EvPrRn = /* Temp. of Evap/Prec/R (UNSET=use local T)(oC)*/
(PID.TID 0000.0001)                 1.234567000000000E+05
(PID.TID 0000.0001)     ;
(PID.TID 0000.0001) salt_EvPrRn = /* Salin. of Evap/Prec/R (UNSET=use local S)(g/kg)*/
(PID.TID 0000.0001)                 0.000000000000000E+00
(PID.TID 0000.0001)     ;
(PID.TID 0000.0001) selectAddFluid = /* option for mass source/sink of fluid (=0: off) */
(PID.TID 0000.0001)                       0
(PID.TID 0000.0001)     ;
(PID.TID 0000.0001) temp_addMass = /* Temp. of addMass array (UNSET=use local T)(oC)*/
(PID.TID 0000.0001)                 1.234567000000000E+05
(PID.TID 0000.0001)     ;
(PID.TID 0000.0001) salt_addMass = /* Salin. of addMass array (UNSET=use local S)(g/kg)*/
(PID.TID 0000.0001)                 0.000000000000000E+00
(PID.TID 0000.0001)     ;
(PID.TID 0000.0001) convertFW2Salt = /* convert F.W. Flux to Salt Flux (-1=use local S)(g/kg)*/
(PID.TID 0000.0001)                -1.000000000000000E+00
(PID.TID 0000.0001)     ;
(PID.TID 0000.0001) use3Dsolver = /* use 3-D pressure solver on/off flag */
(PID.TID 0000.0001)                   F
(PID.TID 0000.0001)     ;
(PID.TID 0000.0001) nonHydrostatic =  /* Non-Hydrostatic on/off flag */
(PID.TID 0000.0001)                   F
(PID.TID 0000.0001)     ;
(PID.TID 0000.0001) nh_Am2 = /* Non-Hydrostatic terms scaling factor */
(PID.TID 0000.0001)                 1.000000000000000E+00
(PID.TID 0000.0001)     ;
(PID.TID 0000.0001) implicitNHPress = /* Non-Hyd Pressure implicit factor (0-1)*/
(PID.TID 0000.0001)                 1.000000000000000E+00
(PID.TID 0000.0001)     ;
(PID.TID 0000.0001) selectNHfreeSurf = /* Non-Hyd (free-)Surface option */
(PID.TID 0000.0001)                       0
(PID.TID 0000.0001)     ;
(PID.TID 0000.0001) quasiHydrostatic = /* Quasi-Hydrostatic on/off flag */
(PID.TID 0000.0001)                   F
(PID.TID 0000.0001)     ;
(PID.TID 0000.0001) calc_wVelocity = /* vertical velocity calculation on/off flag */
(PID.TID 0000.0001)                   T
(PID.TID 0000.0001)     ;
(PID.TID 0000.0001) momStepping =  /* Momentum equation on/off flag */
(PID.TID 0000.0001)                   T
(PID.TID 0000.0001)     ;
(PID.TID 0000.0001) vectorInvariantMomentum= /* Vector-Invariant Momentum on/off */
(PID.TID 0000.0001)                   T
(PID.TID 0000.0001)     ;
(PID.TID 0000.0001) momAdvection =  /* Momentum advection on/off flag */
(PID.TID 0000.0001)                   T
(PID.TID 0000.0001)     ;
(PID.TID 0000.0001) momViscosity =  /* Momentum viscosity on/off flag */
(PID.TID 0000.0001)                   T
(PID.TID 0000.0001)     ;
(PID.TID 0000.0001) momImplVertAdv= /* Momentum implicit vert. advection on/off*/
(PID.TID 0000.0001)                   F
(PID.TID 0000.0001)     ;
(PID.TID 0000.0001) implicitViscosity = /* Implicit viscosity on/off flag */
(PID.TID 0000.0001)                   F
(PID.TID 0000.0001)     ;
(PID.TID 0000.0001) selectImplicitDrag= /* Implicit bot Drag options (0,1,2)*/
(PID.TID 0000.0001)                       0
(PID.TID 0000.0001)     0= Expl. ; 1= Impl. on provis. Vel ; 2= Fully Impl (with surf.P)
(PID.TID 0000.0001)     ;
(PID.TID 0000.0001) selectMetricTerms= /* Metric-Terms on/off flag (=0/1) */
(PID.TID 0000.0001)                       0
(PID.TID 0000.0001)     ;
(PID.TID 0000.0001) useNHMTerms = /* Non-Hydrostatic Metric-Terms on/off */
(PID.TID 0000.0001)                   F
(PID.TID 0000.0001)     ;
(PID.TID 0000.0001) selectCoriMap = /* Coriolis Map options (0,1,2,3)*/
(PID.TID 0000.0001)                       2
(PID.TID 0000.0001)     0= f-Plane ; 1= Beta-Plane ; 2= Spherical ; 3= read from file
(PID.TID 0000.0001)     ;
(PID.TID 0000.0001) select3dCoriScheme= /* 3-D Coriolis on/off flag (=0/1) */
(PID.TID 0000.0001)                       0
(PID.TID 0000.0001)     ;
(PID.TID 0000.0001) useCoriolis =  /* Coriolis on/off flag */
(PID.TID 0000.0001)                   T
(PID.TID 0000.0001)     ;
(PID.TID 0000.0001) useCDscheme =  /* CD scheme on/off flag */
(PID.TID 0000.0001)                   F
(PID.TID 0000.0001)     ;
(PID.TID 0000.0001) selectCoriScheme= /* Scheme selector for Coriolis-Term */
(PID.TID 0000.0001)                       0
(PID.TID 0000.0001)    = 0 : original discretization (simple averaging, no hFac)
(PID.TID 0000.0001)    = 1 : Wet-point averaging (Jamar & Ozer 1986)
(PID.TID 0000.0001)    = 2 : hFac weighted average (Angular Mom. conserving)
(PID.TID 0000.0001)    = 3 : energy conserving scheme using hFac weighted average
(PID.TID 0000.0001)     ;
(PID.TID 0000.0001) useAbsVorticity= /* V.I Works with f+zeta in Coriolis */
(PID.TID 0000.0001)                   F
(PID.TID 0000.0001)     ;
(PID.TID 0000.0001) selectVortScheme= /* V.I Scheme selector for Vorticity-Term */
(PID.TID 0000.0001)                       1
(PID.TID 0000.0001)    = 0 : enstrophy (Shallow-Water Eq.) conserving scheme by Sadourny, JAS 75
(PID.TID 0000.0001)    = 1 : same as 0 with modified hFac
(PID.TID 0000.0001)    = 2 : energy conserving scheme (used by Sadourny in JAS 75 paper)
(PID.TID 0000.0001)    = 3 : energy (general) and enstrophy (2D, nonDiv.) conserving scheme
(PID.TID 0000.0001)          from Sadourny (Burridge & Haseler, ECMWF Rep.4, 1977)
(PID.TID 0000.0001)     ;
(PID.TID 0000.0001) useJamartMomAdv= /* V.I Non-linear terms Jamart flag */
(PID.TID 0000.0001)                   F
(PID.TID 0000.0001)     ;
(PID.TID 0000.0001) upwindVorticity= /* V.I Upwind bias vorticity flag */
(PID.TID 0000.0001)                   F
(PID.TID 0000.0001)     ;
(PID.TID 0000.0001) highOrderVorticity= /* V.I High order vort. advect. flag */
(PID.TID 0000.0001)                   F
(PID.TID 0000.0001)     ;
(PID.TID 0000.0001) upwindShear= /* V.I Upwind vertical Shear advection flag */
(PID.TID 0000.0001)                   F
(PID.TID 0000.0001)     ;
(PID.TID 0000.0001) selectKEscheme= /* V.I Kinetic Energy scheme selector */
(PID.TID 0000.0001)                       0
(PID.TID 0000.0001)     ;
(PID.TID 0000.0001) momForcing =  /* Momentum forcing on/off flag */
(PID.TID 0000.0001)                   T
(PID.TID 0000.0001)     ;
(PID.TID 0000.0001) momTidalForcing = /* Momentum Tidal forcing on/off flag */
(PID.TID 0000.0001)                   T
(PID.TID 0000.0001)     ;
(PID.TID 0000.0001) momPressureForcing =  /* Momentum pressure term on/off flag */
(PID.TID 0000.0001)                   T
(PID.TID 0000.0001)     ;
(PID.TID 0000.0001) implicitIntGravWave= /* Implicit Internal Gravity Wave flag */
(PID.TID 0000.0001)                   F
(PID.TID 0000.0001)     ;
(PID.TID 0000.0001) staggerTimeStep =    /* Stagger time stepping on/off flag */
(PID.TID 0000.0001)                   T
(PID.TID 0000.0001)     ;
(PID.TID 0000.0001) doResetHFactors = /* reset thickness factors @ each time-step */
(PID.TID 0000.0001)                   F
(PID.TID 0000.0001)     ;
(PID.TID 0000.0001) multiDimAdvection =  /* enable/disable Multi-Dim Advection */
(PID.TID 0000.0001)                   T
(PID.TID 0000.0001)     ;
(PID.TID 0000.0001) useMultiDimAdvec =   /* Multi-Dim Advection is/is-not used */
(PID.TID 0000.0001)                   T
(PID.TID 0000.0001)     ;
(PID.TID 0000.0001) implicitDiffusion = /* Implicit Diffusion on/off flag */
(PID.TID 0000.0001)                   T
(PID.TID 0000.0001)     ;
(PID.TID 0000.0001) tempStepping =  /* Temperature equation on/off flag */
(PID.TID 0000.0001)                   T
(PID.TID 0000.0001)     ;
(PID.TID 0000.0001) tempAdvection = /* Temperature advection on/off flag */
(PID.TID 0000.0001)                   T
(PID.TID 0000.0001)     ;
(PID.TID 0000.0001) tempImplVertAdv = /* Temp. implicit vert. advection on/off */
(PID.TID 0000.0001)                   F
(PID.TID 0000.0001)     ;
(PID.TID 0000.0001) tempForcing  =  /* Temperature forcing on/off flag */
(PID.TID 0000.0001)                   T
(PID.TID 0000.0001)     ;
(PID.TID 0000.0001) balanceQnet  =  /* balance net heat-flux on/off flag */
(PID.TID 0000.0001)                   F
(PID.TID 0000.0001)     ;
(PID.TID 0000.0001) doThetaClimRelax = /* apply SST relaxation on/off flag */
(PID.TID 0000.0001)                   T
(PID.TID 0000.0001)     ;
(PID.TID 0000.0001) balanceThetaClimRelax= /* balance SST relaxation on/off flag */
(PID.TID 0000.0001)                   F
(PID.TID 0000.0001)     ;
(PID.TID 0000.0001) tempIsActiveTr = /* Temp. is a dynamically Active Tracer */
(PID.TID 0000.0001)                   T
(PID.TID 0000.0001)     ;
(PID.TID 0000.0001) saltStepping =  /* Salinity equation on/off flag */
(PID.TID 0000.0001)                   T
(PID.TID 0000.0001)     ;
(PID.TID 0000.0001) saltAdvection = /* Salinity advection on/off flag */
(PID.TID 0000.0001)                   T
(PID.TID 0000.0001)     ;
(PID.TID 0000.0001) saltImplVertAdv = /* Sali. implicit vert. advection on/off */
(PID.TID 0000.0001)                   F
(PID.TID 0000.0001)     ;
(PID.TID 0000.0001) saltForcing  =  /* Salinity forcing on/off flag */
(PID.TID 0000.0001)                   T
(PID.TID 0000.0001)     ;
(PID.TID 0000.0001) selectBalanceEmPmR = /* balancing glob.mean EmPmR selector */
(PID.TID 0000.0001)                       0
(PID.TID 0000.0001)     ;
(PID.TID 0000.0001) doSaltClimRelax = /* apply SSS relaxation on/off flag */
(PID.TID 0000.0001)                   T
(PID.TID 0000.0001)     ;
(PID.TID 0000.0001) balanceSaltClimRelax= /* balance SSS relaxation on/off flag */
(PID.TID 0000.0001)                   F
(PID.TID 0000.0001)     ;
(PID.TID 0000.0001) saltIsActiveTr = /* Salt  is a dynamically Active Tracer */
(PID.TID 0000.0001)                   T
(PID.TID 0000.0001)     ;
(PID.TID 0000.0001)  readBinaryPrec = /* Precision used for reading binary files */
(PID.TID 0000.0001)                      64
(PID.TID 0000.0001)     ;
(PID.TID 0000.0001) writeBinaryPrec = /* Precision used for writing binary files */
(PID.TID 0000.0001)                      32
(PID.TID 0000.0001)     ;
(PID.TID 0000.0001) balancePrintMean = /* print means for balancing fluxes */
(PID.TID 0000.0001)                   F
(PID.TID 0000.0001)     ;
(PID.TID 0000.0001)  rwSuffixType =   /* select format of mds file suffix */
(PID.TID 0000.0001)                       0
(PID.TID 0000.0001)    = 0 : myIter (I10.10) ;   = 1 : 100*myTime (100th sec) ;
(PID.TID 0000.0001)    = 2 : myTime (seconds);   = 3 : myTime/360 (10th of hr);
(PID.TID 0000.0001)    = 4 : myTime/3600 (hours)
(PID.TID 0000.0001)     ;
(PID.TID 0000.0001)  globalFiles = /* write "global" (=not per tile) files */
(PID.TID 0000.0001)                   T
(PID.TID 0000.0001)     ;
(PID.TID 0000.0001)  useSingleCpuIO = /* only master MPI process does I/O */
(PID.TID 0000.0001)                   F
(PID.TID 0000.0001)     ;
(PID.TID 0000.0001)  useSingleCpuInput = /* only master process reads input */
(PID.TID 0000.0001)                   F
(PID.TID 0000.0001)     ;
(PID.TID 0000.0001) /* debLev[*]  : level of debug & auxiliary message printing */
(PID.TID 0000.0001) debLevZero =  0 ; /* level of disabled aux. msg printing */
(PID.TID 0000.0001)    debLevA =  1 ; /* level of minimum  aux. msg printing */
(PID.TID 0000.0001)    debLevB =  2 ; /* level of low aux. print (report read-file opening)*/
(PID.TID 0000.0001)    debLevC =  3 ; /* level of moderate debug prt (most pkgs debug msg) */
(PID.TID 0000.0001)    debLevD =  4 ; /* level of enhanced debug prt (add DEBUG_STATS prt) */
(PID.TID 0000.0001)    debLevE =  5 ; /* level of extensive debug printing */
(PID.TID 0000.0001) debugLevel =  /* select debug printing level */
(PID.TID 0000.0001)                       2
(PID.TID 0000.0001)     ;
(PID.TID 0000.0001)  plotLevel =  /* select PLOT_FIELD printing level */
(PID.TID 0000.0001)                       2
(PID.TID 0000.0001)     ;
(PID.TID 0000.0001) //
(PID.TID 0000.0001) // Elliptic solver(s) paramters ( PARM02 in namelist )
(PID.TID 0000.0001) //
(PID.TID 0000.0001) cg2dMaxIters =   /* Upper limit on 2d con. grad iterations  */
(PID.TID 0000.0001)                     200
(PID.TID 0000.0001)     ;
(PID.TID 0000.0001) cg2dMinItersNSA =   /* Minimum number of iterations of 2d con. grad solver  */
(PID.TID 0000.0001)                       0
(PID.TID 0000.0001)     ;
(PID.TID 0000.0001) cg2dUseMinResSol= /* use cg2d last-iter(=0) / min-resid.(=1) solution */
(PID.TID 0000.0001)                       0
(PID.TID 0000.0001)     ;
(PID.TID 0000.0001) cg2dTargetResidual =   /* 2d con. grad target residual  */
(PID.TID 0000.0001)                 1.000000000000000E-07
(PID.TID 0000.0001)     ;
(PID.TID 0000.0001) cg2dTargetResWunit =   /* CG2d target residual [W units] */
(PID.TID 0000.0001)                 1.000000000000000E-14
(PID.TID 0000.0001)     ;
(PID.TID 0000.0001) cg2dPreCondFreq =   /* Freq. for updating cg2d preconditioner */
(PID.TID 0000.0001)                       1
(PID.TID 0000.0001)     ;
(PID.TID 0000.0001) useSRCGSolver =  /* use single reduction CG solver(s) */
(PID.TID 0000.0001)                   F
(PID.TID 0000.0001)     ;
(PID.TID 0000.0001) useNSACGSolver =  /* use not-self-adjoint CG solver */
(PID.TID 0000.0001)                   F
(PID.TID 0000.0001)     ;
(PID.TID 0000.0001) printResidualFreq = /* Freq. for printing CG residual */
(PID.TID 0000.0001)                       0
(PID.TID 0000.0001)     ;
(PID.TID 0000.0001) //
(PID.TID 0000.0001) // Time stepping paramters ( PARM03 in namelist )
(PID.TID 0000.0001) //
(PID.TID 0000.0001) deltaTMom =   /* Momentum equation timestep ( s ) */
(PID.TID 0000.0001)                 1.200000000000000E+03
(PID.TID 0000.0001)     ;
(PID.TID 0000.0001) deltaTFreeSurf = /* FreeSurface equation timestep ( s ) */
(PID.TID 0000.0001)                 8.640000000000000E+04
(PID.TID 0000.0001)     ;
(PID.TID 0000.0001) dTtracerLev =  /* Tracer equation timestep ( s ) */
(PID.TID 0000.0001)    15 @  8.640000000000000E+04              /* K =  1: 15 */
(PID.TID 0000.0001)     ;
(PID.TID 0000.0001) deltaTClock  =   /* Model clock timestep ( s ) */
(PID.TID 0000.0001)                 8.640000000000000E+04
(PID.TID 0000.0001)     ;
(PID.TID 0000.0001) cAdjFreq =   /* Convective adjustment interval ( s ) */
(PID.TID 0000.0001)                 0.000000000000000E+00
(PID.TID 0000.0001)     ;
(PID.TID 0000.0001) momForcingOutAB = /* =1: take Momentum Forcing out of Adams-Bash. stepping */
(PID.TID 0000.0001)                       0
(PID.TID 0000.0001)     ;
(PID.TID 0000.0001) tracForcingOutAB = /* =1: take T,S,pTr Forcing out of Adams-Bash. stepping */
(PID.TID 0000.0001)                       1
(PID.TID 0000.0001)     ;
(PID.TID 0000.0001) momDissip_In_AB = /* put Dissipation Tendency in Adams-Bash. stepping */
(PID.TID 0000.0001)                   T
(PID.TID 0000.0001)     ;
(PID.TID 0000.0001) doAB_onGtGs = /* apply AB on Tendencies (rather than on T,S)*/
(PID.TID 0000.0001)                   T
(PID.TID 0000.0001)     ;
(PID.TID 0000.0001) abEps =   /* Adams-Bashforth-2 stabilizing weight */
(PID.TID 0000.0001)                 1.000000000000000E-01
(PID.TID 0000.0001)     ;
(PID.TID 0000.0001) applyExchUV_early = /* Apply EXCH to U,V earlier in time-step */
(PID.TID 0000.0001)                   F
(PID.TID 0000.0001)     ;
(PID.TID 0000.0001) pickupStrictlyMatch= /* stop if pickup do not strictly match */
(PID.TID 0000.0001)                   F
(PID.TID 0000.0001)     ;
(PID.TID 0000.0001) nIter0   =   /* Run starting timestep number */
(PID.TID 0000.0001)                       0
(PID.TID 0000.0001)     ;
(PID.TID 0000.0001) nTimeSteps = /* Number of timesteps */
(PID.TID 0000.0001)                    1800
(PID.TID 0000.0001)     ;
(PID.TID 0000.0001) nEndIter =   /* Run ending timestep number */
(PID.TID 0000.0001)                    1800
(PID.TID 0000.0001)     ;
(PID.TID 0000.0001) baseTime =   /* Model base time ( s ) */
(PID.TID 0000.0001)                 0.000000000000000E+00
(PID.TID 0000.0001)     ;
(PID.TID 0000.0001) startTime =  /* Run start time ( s ) */
(PID.TID 0000.0001)                 0.000000000000000E+00
(PID.TID 0000.0001)     ;
(PID.TID 0000.0001) endTime  =   /* Integration ending time ( s ) */
(PID.TID 0000.0001)                 1.555200000000000E+08
(PID.TID 0000.0001)     ;
(PID.TID 0000.0001) pChkPtFreq = /* Permanent restart/pickup file interval ( s ) */
(PID.TID 0000.0001)                 3.110400000000000E+07
(PID.TID 0000.0001)     ;
(PID.TID 0000.0001) chkPtFreq  = /* Rolling restart/pickup file interval ( s ) */
(PID.TID 0000.0001)                 0.000000000000000E+00
(PID.TID 0000.0001)     ;
(PID.TID 0000.0001) pickup_write_mdsio =   /* Model IO flag. */
(PID.TID 0000.0001)                   T
(PID.TID 0000.0001)     ;
(PID.TID 0000.0001) pickup_read_mdsio =   /* Model IO flag. */
(PID.TID 0000.0001)                   T
(PID.TID 0000.0001)     ;
(PID.TID 0000.0001) pickup_write_mnc =   /* Model IO flag. */
(PID.TID 0000.0001)                   F
(PID.TID 0000.0001)     ;
(PID.TID 0000.0001) pickup_read_mnc =   /* Model IO flag. */
(PID.TID 0000.0001)                   F
(PID.TID 0000.0001)     ;
(PID.TID 0000.0001) writePickupAtEnd =   /* Model IO flag. */
(PID.TID 0000.0001)                   T
(PID.TID 0000.0001)     ;
(PID.TID 0000.0001) dumpFreq =   /* Model state write out interval ( s ). */
(PID.TID 0000.0001)                 2.592000000000000E+06
(PID.TID 0000.0001)     ;
(PID.TID 0000.0001) dumpInitAndLast= /* write out Initial & Last iter. model state */
(PID.TID 0000.0001)                   T
(PID.TID 0000.0001)     ;
(PID.TID 0000.0001) snapshot_mdsio =   /* Model IO flag. */
(PID.TID 0000.0001)                   T
(PID.TID 0000.0001)     ;
(PID.TID 0000.0001) snapshot_mnc =   /* Model IO flag. */
(PID.TID 0000.0001)                   F
(PID.TID 0000.0001)     ;
(PID.TID 0000.0001) monitorFreq =   /* Monitor output interval ( s ). */
(PID.TID 0000.0001)                 2.592000000000000E+06
(PID.TID 0000.0001)     ;
(PID.TID 0000.0001) monitorSelect = /* select group of variables to monitor */
(PID.TID 0000.0001)                       3
(PID.TID 0000.0001)     ;
(PID.TID 0000.0001) monitor_stdio =   /* Model IO flag. */
(PID.TID 0000.0001)                   T
(PID.TID 0000.0001)     ;
(PID.TID 0000.0001) monitor_mnc =   /* Model IO flag. */
(PID.TID 0000.0001)                   F
(PID.TID 0000.0001)     ;
(PID.TID 0000.0001) externForcingPeriod =   /* forcing period (s) */
(PID.TID 0000.0001)                 2.592000000000000E+06
(PID.TID 0000.0001)     ;
(PID.TID 0000.0001) externForcingCycle =   /* period of the cyle (s). */
(PID.TID 0000.0001)                 3.110400000000000E+07
(PID.TID 0000.0001)     ;
(PID.TID 0000.0001) tauThetaClimRelax =   /* relaxation time scale (s) */
(PID.TID 0000.0001)                 5.184000000000000E+06
(PID.TID 0000.0001)     ;
(PID.TID 0000.0001) tauSaltClimRelax =   /* relaxation time scale (s) */
(PID.TID 0000.0001)                 6.220800000000000E+07
(PID.TID 0000.0001)     ;
(PID.TID 0000.0001) latBandClimRelax =   /* max. Lat. where relaxation */
(PID.TID 0000.0001)                 1.800000000000000E+02
(PID.TID 0000.0001)     ;
(PID.TID 0000.0001) //
(PID.TID 0000.0001) // Gridding paramters ( PARM04 in namelist )
(PID.TID 0000.0001) //
(PID.TID 0000.0001) usingCartesianGrid = /* Cartesian coordinates flag ( True/False ) */
(PID.TID 0000.0001)                   F
(PID.TID 0000.0001)     ;
(PID.TID 0000.0001) usingCylindricalGrid = /* Cylindrical coordinates flag ( True/False ) */
(PID.TID 0000.0001)                   F
(PID.TID 0000.0001)     ;
(PID.TID 0000.0001) usingSphericalPolarGrid = /* Spherical coordinates flag ( True/False ) */
(PID.TID 0000.0001)                   F
(PID.TID 0000.0001)     ;
(PID.TID 0000.0001) usingCurvilinearGrid = /* Curvilinear coordinates flag ( True/False ) */
(PID.TID 0000.0001)                   T
(PID.TID 0000.0001)     ;
(PID.TID 0000.0001) useMin4hFacEdges = /* set hFacW,S as minimum of adjacent hFacC factor */
(PID.TID 0000.0001)                   F
(PID.TID 0000.0001)     ;
(PID.TID 0000.0001) interViscAr_pCell = /* account for partial-cell in interior vert. viscosity */
(PID.TID 0000.0001)                   F
(PID.TID 0000.0001)     ;
(PID.TID 0000.0001) interDiffKr_pCell = /* account for partial-cell in interior vert. diffusion */
(PID.TID 0000.0001)                   F
(PID.TID 0000.0001)     ;
(PID.TID 0000.0001) pCellMix_select = /* option to enhance mixing near surface & bottom */
(PID.TID 0000.0001)                       0
(PID.TID 0000.0001)     ;
(PID.TID 0000.0001) selectSigmaCoord = /* Hybrid-Sigma Vert. Coordinate option */
(PID.TID 0000.0001)                       0
(PID.TID 0000.0001)     ;
(PID.TID 0000.0001) rSigmaBnd = /* r/sigma transition ( units of r ==  m ) */
(PID.TID 0000.0001)                 1.234567000000000E+05
(PID.TID 0000.0001)     ;
(PID.TID 0000.0001) rkSign =   /* index orientation relative to vertical coordinate */
(PID.TID 0000.0001)                -1.000000000000000E+00
(PID.TID 0000.0001)     ;
(PID.TID 0000.0001) gravitySign = /* gravity orientation relative to vertical coordinate */
(PID.TID 0000.0001)                -1.000000000000000E+00
(PID.TID 0000.0001)     ;
(PID.TID 0000.0001) seaLev_Z =  /* reference height of sea-level [m] */
(PID.TID 0000.0001)                 0.000000000000000E+00
(PID.TID 0000.0001)     ;
(PID.TID 0000.0001) top_Pres =  /* reference pressure at the top [Pa] */
(PID.TID 0000.0001)                 0.000000000000000E+00
(PID.TID 0000.0001)     ;
(PID.TID 0000.0001) mass2rUnit = /* convert mass per unit area [kg/m2] to r-units [m] */
(PID.TID 0000.0001)                 9.661835748792270E-04
(PID.TID 0000.0001)     ;
(PID.TID 0000.0001) rUnit2mass = /* convert r-units [m] to mass per unit area [kg/m2] */
(PID.TID 0000.0001)                 1.035000000000000E+03
(PID.TID 0000.0001)     ;
(PID.TID 0000.0001) drC =   /* C spacing ( units of r ) */
(PID.TID 0000.0001)                 2.500000000000000E+01,      /* K =  1 */
(PID.TID 0000.0001)                 6.000000000000000E+01,      /* K =  2 */
(PID.TID 0000.0001)                 8.500000000000000E+01,      /* K =  3 */
(PID.TID 0000.0001)                 1.200000000000000E+02,      /* K =  4 */
(PID.TID 0000.0001)                 1.650000000000000E+02,      /* K =  5 */
(PID.TID 0000.0001)                 2.150000000000000E+02,      /* K =  6 */
(PID.TID 0000.0001)                 2.650000000000000E+02,      /* K =  7 */
(PID.TID 0000.0001)                 3.150000000000000E+02,      /* K =  8 */
(PID.TID 0000.0001)                 3.650000000000000E+02,      /* K =  9 */
(PID.TID 0000.0001)                 4.150000000000000E+02,      /* K = 10 */
(PID.TID 0000.0001)                 4.650000000000000E+02,      /* K = 11 */
(PID.TID 0000.0001)                 5.150000000000000E+02,      /* K = 12 */
(PID.TID 0000.0001)                 5.650000000000000E+02,      /* K = 13 */
(PID.TID 0000.0001)                 6.150000000000000E+02,      /* K = 14 */
(PID.TID 0000.0001)                 6.650000000000000E+02,      /* K = 15 */
(PID.TID 0000.0001)                 3.450000000000000E+02       /* K = 16 */
(PID.TID 0000.0001)     ;
(PID.TID 0000.0001) drF =   /* W spacing ( units of r ) */
(PID.TID 0000.0001)                 5.000000000000000E+01,      /* K =  1 */
(PID.TID 0000.0001)                 7.000000000000000E+01,      /* K =  2 */
(PID.TID 0000.0001)                 1.000000000000000E+02,      /* K =  3 */
(PID.TID 0000.0001)                 1.400000000000000E+02,      /* K =  4 */
(PID.TID 0000.0001)                 1.900000000000000E+02,      /* K =  5 */
(PID.TID 0000.0001)                 2.400000000000000E+02,      /* K =  6 */
(PID.TID 0000.0001)                 2.900000000000000E+02,      /* K =  7 */
(PID.TID 0000.0001)                 3.400000000000000E+02,      /* K =  8 */
(PID.TID 0000.0001)                 3.900000000000000E+02,      /* K =  9 */
(PID.TID 0000.0001)                 4.400000000000000E+02,      /* K = 10 */
(PID.TID 0000.0001)                 4.900000000000000E+02,      /* K = 11 */
(PID.TID 0000.0001)                 5.400000000000000E+02,      /* K = 12 */
(PID.TID 0000.0001)                 5.900000000000000E+02,      /* K = 13 */
(PID.TID 0000.0001)                 6.400000000000000E+02,      /* K = 14 */
(PID.TID 0000.0001)                 6.900000000000000E+02       /* K = 15 */
(PID.TID 0000.0001)     ;
(PID.TID 0000.0001) radius_fromHorizGrid = /* sphere Radius of input horiz. grid */
(PID.TID 0000.0001)                 6.370000000000000E+06
(PID.TID 0000.0001)     ;
(PID.TID 0000.0001) rSphere =  /* Radius ( ignored - cartesian, m - spherical ) */
(PID.TID 0000.0001)                 6.370000000000000E+06
(PID.TID 0000.0001)     ;
(PID.TID 0000.0001) deepAtmosphere = /* Deep/Shallow Atmosphere flag (True/False) */
(PID.TID 0000.0001)                   F
(PID.TID 0000.0001)     ;
(PID.TID 0000.0001) xC =  /* xC(:,1,:,1) : P-point X coord ( deg. or m if cartesian) */
(PID.TID 0000.0001)                -4.439521994760536E+01,      /* I =  1 */
(PID.TID 0000.0001)                -4.295641272275883E+01,      /* I =  2 */
(PID.TID 0000.0001)                -4.122055553388957E+01,      /* I =  3 */
(PID.TID 0000.0001)      . . .
(PID.TID 0000.0001)                 1.312205555338896E+02,      /* I = 94 */
(PID.TID 0000.0001)                 1.329564127227588E+02,      /* I = 95 */
(PID.TID 0000.0001)                 1.343952199476053E+02,      /* I = 96 */
(PID.TID 0000.0001)                 4.635509675007168E+01,      /* I = 97 */
(PID.TID 0000.0001)                 4.906731228843647E+01,      /* I = 98 */
(PID.TID 0000.0001)                 5.178550688214704E+01,      /* I = 99 */
(PID.TID 0000.0001)      . . .
(PID.TID 0000.0001)                -1.778001716525716E+02,      /* I =190 */
(PID.TID 0000.0001)                -1.779288225675308E+02,      /* I =191 */
(PID.TID 0000.0001)                -1.780367200854751E+02,      /* I =192 */
(PID.TID 0000.0001)                 1.356047800523947E+02,      /* I =193 */
(PID.TID 0000.0001)                 1.358367907661329E+02,      /* I =194 */
(PID.TID 0000.0001)                 1.359720382181193E+02,      /* I =195 */
(PID.TID 0000.0001)      . . .
(PID.TID 0000.0001)                -1.340279617818807E+02,      /* I =286 */
(PID.TID 0000.0001)                -1.341632092338671E+02,      /* I =287 */
(PID.TID 0000.0001)                -1.343952199476053E+02,      /* I =288 */
(PID.TID 0000.0001)                -8.812739148696656E+01,      /* I =289 */
(PID.TID 0000.0001)                -8.820362659721324E+01,      /* I =290 */
(PID.TID 0000.0001)                -8.826768106944316E+01,      /* I =291 */
(PID.TID 0000.0001)      . . .
(PID.TID 0000.0001)                 8.780017165257156E+01,      /* I =382 */
(PID.TID 0000.0001)                 8.792882256753080E+01,      /* I =383 */
(PID.TID 0000.0001)                 8.803672008547504E+01       /* I =384 */
(PID.TID 0000.0001)     ;
(PID.TID 0000.0001) yC =  /* yC(1,:,1,:) : P-point Y coord ( deg. or m if cartesian) */
(PID.TID 0000.0001)                -3.497677942598243E+01,      /* J =  1 */
(PID.TID 0000.0001)                -3.374005967394886E+01,      /* J =  2 */
(PID.TID 0000.0001)                -3.220655175667454E+01,      /* J =  3 */
(PID.TID 0000.0001)                -3.045756348838641E+01,      /* J =  4 */
(PID.TID 0000.0001)                -2.853728129852918E+01,      /* J =  5 */
(PID.TID 0000.0001)                -2.647426640173173E+01,      /* J =  6 */
(PID.TID 0000.0001)                -2.428936657094636E+01,      /* J =  7 */
(PID.TID 0000.0001)                -2.199915808312262E+01,      /* J =  8 */
(PID.TID 0000.0001)                -1.961768597440146E+01,      /* J =  9 */
(PID.TID 0000.0001)                -1.715743888281371E+01,      /* J = 10 */
(PID.TID 0000.0001)                -1.462993396899330E+01,      /* J = 11 */
(PID.TID 0000.0001)                -1.204608340464756E+01,      /* J = 12 */
(PID.TID 0000.0001)                -9.416429130284818E+00,      /* J = 13 */
(PID.TID 0000.0001)                -6.751293662992216E+00,      /* J = 14 */
(PID.TID 0000.0001)                -4.060875511835959E+00,      /* J = 15 */
(PID.TID 0000.0001)                -1.355307764409121E+00       /* J = 16 */
(PID.TID 0000.0001)     ;
(PID.TID 0000.0001) rcoord = /* P-point R coordinate (  units of r ) */
(PID.TID 0000.0001)                -2.500000000000000E+01,      /* K =  1 */
(PID.TID 0000.0001)                -8.500000000000000E+01,      /* K =  2 */
(PID.TID 0000.0001)                -1.700000000000000E+02,      /* K =  3 */
(PID.TID 0000.0001)                -2.900000000000000E+02,      /* K =  4 */
(PID.TID 0000.0001)                -4.550000000000000E+02,      /* K =  5 */
(PID.TID 0000.0001)                -6.700000000000000E+02,      /* K =  6 */
(PID.TID 0000.0001)                -9.350000000000000E+02,      /* K =  7 */
(PID.TID 0000.0001)                -1.250000000000000E+03,      /* K =  8 */
(PID.TID 0000.0001)                -1.615000000000000E+03,      /* K =  9 */
(PID.TID 0000.0001)                -2.030000000000000E+03,      /* K = 10 */
(PID.TID 0000.0001)                -2.495000000000000E+03,      /* K = 11 */
(PID.TID 0000.0001)                -3.010000000000000E+03,      /* K = 12 */
(PID.TID 0000.0001)                -3.575000000000000E+03,      /* K = 13 */
(PID.TID 0000.0001)                -4.190000000000000E+03,      /* K = 14 */
(PID.TID 0000.0001)                -4.855000000000000E+03       /* K = 15 */
(PID.TID 0000.0001)     ;
(PID.TID 0000.0001) rF =   /* W-Interf. R coordinate (  units of r ) */
(PID.TID 0000.0001)                 0.000000000000000E+00,      /* K =  1 */
(PID.TID 0000.0001)                -5.000000000000000E+01,      /* K =  2 */
(PID.TID 0000.0001)                -1.200000000000000E+02,      /* K =  3 */
(PID.TID 0000.0001)                -2.200000000000000E+02,      /* K =  4 */
(PID.TID 0000.0001)                -3.600000000000000E+02,      /* K =  5 */
(PID.TID 0000.0001)                -5.500000000000000E+02,      /* K =  6 */
(PID.TID 0000.0001)                -7.900000000000000E+02,      /* K =  7 */
(PID.TID 0000.0001)                -1.080000000000000E+03,      /* K =  8 */
(PID.TID 0000.0001)                -1.420000000000000E+03,      /* K =  9 */
(PID.TID 0000.0001)                -1.810000000000000E+03,      /* K = 10 */
(PID.TID 0000.0001)                -2.250000000000000E+03,      /* K = 11 */
(PID.TID 0000.0001)                -2.740000000000000E+03,      /* K = 12 */
(PID.TID 0000.0001)                -3.280000000000000E+03,      /* K = 13 */
(PID.TID 0000.0001)                -3.870000000000000E+03,      /* K = 14 */
(PID.TID 0000.0001)                -4.510000000000000E+03,      /* K = 15 */
(PID.TID 0000.0001)                -5.200000000000000E+03       /* K = 16 */
(PID.TID 0000.0001)     ;
(PID.TID 0000.0001) deepFacC = /* deep-model grid factor @ cell-Center (-) */
(PID.TID 0000.0001)    15 @  1.000000000000000E+00              /* K =  1: 15 */
(PID.TID 0000.0001)     ;
(PID.TID 0000.0001) deepFacF = /* deep-model grid factor @ W-Interface (-) */
(PID.TID 0000.0001)    16 @  1.000000000000000E+00              /* K =  1: 16 */
(PID.TID 0000.0001)     ;
(PID.TID 0000.0001) rotateGrid = /* use rotated grid ( True/False ) */
(PID.TID 0000.0001)                   F
(PID.TID 0000.0001)     ;
(PID.TID 0000.0001) phiEuler = /* Euler angle, rotation about original z-coordinate [rad] */
(PID.TID 0000.0001)                 0.000000000000000E+00
(PID.TID 0000.0001)     ;
(PID.TID 0000.0001) thetaEuler = /* Euler angle, rotation about new x-coordinate [rad] */
(PID.TID 0000.0001)                 0.000000000000000E+00
(PID.TID 0000.0001)     ;
(PID.TID 0000.0001) psiEuler = /* Euler angle, rotation about new z-coordinate [rad] */
(PID.TID 0000.0001)                 0.000000000000000E+00
(PID.TID 0000.0001)     ;
(PID.TID 0000.0001) dxF =  /* dxF(:,1,:,1) ( units: m ) */
(PID.TID 0000.0001)                 1.202082051331828E+05,      /* I =  1 */
(PID.TID 0000.0001)                 1.563594089971120E+05,      /* I =  2 */
(PID.TID 0000.0001)                 1.835530058121492E+05,      /* I =  3 */
(PID.TID 0000.0001)      . . .
(PID.TID 0000.0001)                 1.835530058121492E+05,      /* I = 94 */
(PID.TID 0000.0001)                 1.563594089971120E+05,      /* I = 95 */
(PID.TID 0000.0001)                 1.202082051331828E+05,      /* I = 96 */
(PID.TID 0000.0001)                 3.012844832048790E+05,      /* I = 97 */
(PID.TID 0000.0001)                 3.017314519159184E+05,      /* I = 98 */
(PID.TID 0000.0001)                 3.026061571839506E+05,      /* I = 99 */
(PID.TID 0000.0001)      . . .
(PID.TID 0000.0001)                 3.026061571839506E+05,      /* I =190 */
(PID.TID 0000.0001)                 3.017314519159184E+05,      /* I =191 */
(PID.TID 0000.0001)                 3.012844832048790E+05,      /* I =192 */
(PID.TID 0000.0001)                 1.202082051331828E+05,      /* I =193 */
(PID.TID 0000.0001)                 1.563594089971120E+05,      /* I =194 */
(PID.TID 0000.0001)                 1.835530058121492E+05,      /* I =195 */
(PID.TID 0000.0001)      . . .
(PID.TID 0000.0001)                 1.835530058121492E+05,      /* I =286 */
(PID.TID 0000.0001)                 1.563594089971120E+05,      /* I =287 */
(PID.TID 0000.0001)                 1.202082051331828E+05,      /* I =288 */
(PID.TID 0000.0001)                 3.012844832048790E+05,      /* I =289 */
(PID.TID 0000.0001)                 3.017314519159184E+05,      /* I =290 */
(PID.TID 0000.0001)                 3.026061571839506E+05,      /* I =291 */
(PID.TID 0000.0001)      . . .
(PID.TID 0000.0001)                 3.026061571839506E+05,      /* I =382 */
(PID.TID 0000.0001)                 3.017314519159184E+05,      /* I =383 */
(PID.TID 0000.0001)                 3.012844832048790E+05       /* I =384 */
(PID.TID 0000.0001)     ;
(PID.TID 0000.0001) dxF =  /* dxF(1,:,1,:) ( units: m ) */
(PID.TID 0000.0001)                 1.202082051331828E+05,      /* J =  1 */
(PID.TID 0000.0001)                 1.572908084538706E+05,      /* J =  2 */
(PID.TID 0000.0001)                 1.840412227747703E+05,      /* J =  3 */
(PID.TID 0000.0001)                 2.048868197919576E+05,      /* J =  4 */
(PID.TID 0000.0001)                 2.220405216043041E+05,      /* J =  5 */
(PID.TID 0000.0001)                 2.365892017348392E+05,      /* J =  6 */
(PID.TID 0000.0001)                 2.491250781852558E+05,      /* J =  7 */
(PID.TID 0000.0001)                 2.599949918261881E+05,      /* J =  8 */
(PID.TID 0000.0001)                 2.694110134598581E+05,      /* J =  9 */
(PID.TID 0000.0001)                 2.775055554645015E+05,      /* J = 10 */
(PID.TID 0000.0001)                 2.843615645344775E+05,      /* J = 11 */
(PID.TID 0000.0001)                 2.900303768613599E+05,      /* J = 12 */
(PID.TID 0000.0001)                 2.945429307892709E+05,      /* J = 13 */
(PID.TID 0000.0001)                 2.979171143158405E+05,      /* J = 14 */
(PID.TID 0000.0001)                 3.001626787528886E+05,      /* J = 15 */
(PID.TID 0000.0001)                 3.012844832048790E+05       /* J = 16 */
(PID.TID 0000.0001)     ;
(PID.TID 0000.0001) dyF =  /* dyF(:,1,:,1) ( units: m ) */
(PID.TID 0000.0001)                 1.202082051331828E+05,      /* I =  1 */
(PID.TID 0000.0001)                 1.572908084538706E+05,      /* I =  2 */
(PID.TID 0000.0001)                 1.840412227747703E+05,      /* I =  3 */
(PID.TID 0000.0001)      . . .
(PID.TID 0000.0001)                 1.840412227747703E+05,      /* I = 94 */
(PID.TID 0000.0001)                 1.572908084538706E+05,      /* I = 95 */
(PID.TID 0000.0001)                 1.202082051331828E+05,      /* I = 96 */
(PID.TID 0000.0001)                 3.012190981969055E+05,      /* I = 97 */
(PID.TID 0000.0001)                 3.016675528553907E+05,      /* I = 98 */
(PID.TID 0000.0001)                 3.025451404065074E+05,      /* I = 99 */
(PID.TID 0000.0001)      . . .
(PID.TID 0000.0001)                 3.025451404065074E+05,      /* I =190 */
(PID.TID 0000.0001)                 3.016675528553907E+05,      /* I =191 */
(PID.TID 0000.0001)                 3.012190981969055E+05,      /* I =192 */
(PID.TID 0000.0001)                 1.202082051331828E+05,      /* I =193 */
(PID.TID 0000.0001)                 1.572908084538706E+05,      /* I =194 */
(PID.TID 0000.0001)                 1.840412227747703E+05,      /* I =195 */
(PID.TID 0000.0001)      . . .
(PID.TID 0000.0001)                 1.840412227747703E+05,      /* I =286 */
(PID.TID 0000.0001)                 1.572908084538706E+05,      /* I =287 */
(PID.TID 0000.0001)                 1.202082051331828E+05,      /* I =288 */
(PID.TID 0000.0001)                 3.012190981969055E+05,      /* I =289 */
(PID.TID 0000.0001)                 3.016675528553907E+05,      /* I =290 */
(PID.TID 0000.0001)                 3.025451404065074E+05,      /* I =291 */
(PID.TID 0000.0001)      . . .
(PID.TID 0000.0001)                 3.025451404065074E+05,      /* I =382 */
(PID.TID 0000.0001)                 3.016675528553907E+05,      /* I =383 */
(PID.TID 0000.0001)                 3.012190981969055E+05       /* I =384 */
(PID.TID 0000.0001)     ;
(PID.TID 0000.0001) dyF =  /* dyF(1,:,1,:) ( units: m ) */
(PID.TID 0000.0001)                 1.202082051331828E+05,      /* J =  1 */
(PID.TID 0000.0001)                 1.563594089971120E+05,      /* J =  2 */
(PID.TID 0000.0001)                 1.835530058121492E+05,      /* J =  3 */
(PID.TID 0000.0001)                 2.045883481718707E+05,      /* J =  4 */
(PID.TID 0000.0001)                 2.218350349844185E+05,      /* J =  5 */
(PID.TID 0000.0001)                 2.364352994647058E+05,      /* J =  6 */
(PID.TID 0000.0001)                 2.490022710862746E+05,      /* J =  7 */
(PID.TID 0000.0001)                 2.598919724358304E+05,      /* J =  8 */
(PID.TID 0000.0001)                 2.693210245495156E+05,      /* J =  9 */
(PID.TID 0000.0001)                 2.774243179696503E+05,      /* J = 10 */
(PID.TID 0000.0001)                 2.842862532064524E+05,      /* J = 11 */
(PID.TID 0000.0001)                 2.899590699694043E+05,      /* J = 12 */
(PID.TID 0000.0001)                 2.944742915095688E+05,      /* J = 13 */
(PID.TID 0000.0001)                 2.978501920522794E+05,      /* J = 14 */
(PID.TID 0000.0001)                 3.000967749619962E+05,      /* J = 15 */
(PID.TID 0000.0001)                 3.012190981969055E+05       /* J = 16 */
(PID.TID 0000.0001)     ;
(PID.TID 0000.0001) dxG =  /* dxG(:,1,:,1) ( units: m ) */
(PID.TID 0000.0001)                 1.009837800879055E+05,      /* I =  1 */
(PID.TID 0000.0001)                 1.534505834330338E+05,      /* I =  2 */
(PID.TID 0000.0001)                 1.823321598773926E+05,      /* I =  3 */
(PID.TID 0000.0001)      . . .
(PID.TID 0000.0001)                 1.823321598773926E+05,      /* I = 94 */
(PID.TID 0000.0001)                 1.534505834330338E+05,      /* I = 95 */
(PID.TID 0000.0001)                 1.009837800879055E+05,      /* I = 96 */
(PID.TID 0000.0001)                 3.014246674484008E+05,      /* I = 97 */
(PID.TID 0000.0001)                 3.018694497480782E+05,      /* I = 98 */
(PID.TID 0000.0001)                 3.027399364062562E+05,      /* I = 99 */
(PID.TID 0000.0001)      . . .
(PID.TID 0000.0001)                 3.027399364062562E+05,      /* I =190 */
(PID.TID 0000.0001)                 3.018694497480782E+05,      /* I =191 */
(PID.TID 0000.0001)                 3.014246674484008E+05,      /* I =192 */
(PID.TID 0000.0001)                 1.009837800879055E+05,      /* I =193 */
(PID.TID 0000.0001)                 1.534505834330338E+05,      /* I =194 */
(PID.TID 0000.0001)                 1.823321598773926E+05,      /* I =195 */
(PID.TID 0000.0001)      . . .
(PID.TID 0000.0001)                 1.823321598773926E+05,      /* I =286 */
(PID.TID 0000.0001)                 1.534505834330338E+05,      /* I =287 */
(PID.TID 0000.0001)                 1.009837800879055E+05,      /* I =288 */
(PID.TID 0000.0001)                 3.014246674484008E+05,      /* I =289 */
(PID.TID 0000.0001)                 3.018694497480782E+05,      /* I =290 */
(PID.TID 0000.0001)                 3.027399364062562E+05,      /* I =291 */
(PID.TID 0000.0001)      . . .
(PID.TID 0000.0001)                 3.027399364062562E+05,      /* I =382 */
(PID.TID 0000.0001)                 3.018694497480782E+05,      /* I =383 */
(PID.TID 0000.0001)                 3.014246674484008E+05       /* I =384 */
(PID.TID 0000.0001)     ;
(PID.TID 0000.0001) dxG =  /* dxG(1,:,1,:) ( units: m ) */
(PID.TID 0000.0001)                 1.009837800879055E+05,      /* J =  1 */
(PID.TID 0000.0001)                 1.403701524205398E+05,      /* J =  2 */
(PID.TID 0000.0001)                 1.716197227386011E+05,      /* J =  3 */
(PID.TID 0000.0001)                 1.950254041626018E+05,      /* J =  4 */
(PID.TID 0000.0001)                 2.138410773065497E+05,      /* J =  5 */
(PID.TID 0000.0001)                 2.295958105911512E+05,      /* J =  6 */
(PID.TID 0000.0001)                 2.430829951739083E+05,      /* J =  7 */
(PID.TID 0000.0001)                 2.547526806712889E+05,      /* J =  8 */
(PID.TID 0000.0001)                 2.648750305193301E+05,      /* J =  9 */
(PID.TID 0000.0001)                 2.736173771018112E+05,      /* J = 10 */
(PID.TID 0000.0001)                 2.810845823202647E+05,      /* J = 11 */
(PID.TID 0000.0001)                 2.873420591008078E+05,      /* J = 12 */
(PID.TID 0000.0001)                 2.924298293668651E+05,      /* J = 13 */
(PID.TID 0000.0001)                 2.963715635865306E+05,      /* J = 14 */
(PID.TID 0000.0001)                 2.991805843171258E+05,      /* J = 15 */
(PID.TID 0000.0001)                 3.008638765647886E+05       /* J = 16 */
(PID.TID 0000.0001)     ;
(PID.TID 0000.0001) dyG =  /* dyG(:,1,:,1) ( units: m ) */
(PID.TID 0000.0001)                 1.009837800879055E+05,      /* I =  1 */
(PID.TID 0000.0001)                 1.403701524205398E+05,      /* I =  2 */
(PID.TID 0000.0001)                 1.716197227386011E+05,      /* I =  3 */
(PID.TID 0000.0001)      . . .
(PID.TID 0000.0001)                 1.950254041626018E+05,      /* I = 94 */
(PID.TID 0000.0001)                 1.716197227386011E+05,      /* I = 95 */
(PID.TID 0000.0001)                 1.403701524205398E+05,      /* I = 96 */
(PID.TID 0000.0001)                 3.011625828699101E+05,      /* I = 97 */
(PID.TID 0000.0001)                 3.013880313304323E+05,      /* I = 98 */
(PID.TID 0000.0001)                 3.020546438966793E+05,      /* I = 99 */
(PID.TID 0000.0001)      . . .
(PID.TID 0000.0001)                 3.031337933484788E+05,      /* I =190 */
(PID.TID 0000.0001)                 3.020546438966793E+05,      /* I =191 */
(PID.TID 0000.0001)                 3.013880313304323E+05,      /* I =192 */
(PID.TID 0000.0001)                 1.009837800879055E+05,      /* I =193 */
(PID.TID 0000.0001)                 1.403701524205398E+05,      /* I =194 */
(PID.TID 0000.0001)                 1.716197227386011E+05,      /* I =195 */
(PID.TID 0000.0001)      . . .
(PID.TID 0000.0001)                 1.950254041626018E+05,      /* I =286 */
(PID.TID 0000.0001)                 1.716197227386011E+05,      /* I =287 */
(PID.TID 0000.0001)                 1.403701524205398E+05,      /* I =288 */
(PID.TID 0000.0001)                 3.011625828699101E+05,      /* I =289 */
(PID.TID 0000.0001)                 3.013880313304323E+05,      /* I =290 */
(PID.TID 0000.0001)                 3.020546438966793E+05,      /* I =291 */
(PID.TID 0000.0001)      . . .
(PID.TID 0000.0001)                 3.031337933484788E+05,      /* I =382 */
(PID.TID 0000.0001)                 3.020546438966793E+05,      /* I =383 */
(PID.TID 0000.0001)                 3.013880313304323E+05       /* I =384 */
(PID.TID 0000.0001)     ;
(PID.TID 0000.0001) dyG =  /* dyG(1,:,1,:) ( units: m ) */
(PID.TID 0000.0001)                 1.009837800879055E+05,      /* J =  1 */
(PID.TID 0000.0001)                 1.534505834330338E+05,      /* J =  2 */
(PID.TID 0000.0001)                 1.823321598773926E+05,      /* J =  3 */
(PID.TID 0000.0001)                 2.038999045536999E+05,      /* J =  4 */
(PID.TID 0000.0001)                 2.213884732245467E+05,      /* J =  5 */
(PID.TID 0000.0001)                 2.361211699596122E+05,      /* J =  6 */
(PID.TID 0000.0001)                 2.487693460283865E+05,      /* J =  7 */
(PID.TID 0000.0001)                 2.597126963772147E+05,      /* J =  8 */
(PID.TID 0000.0001)                 2.691790288994575E+05,      /* J =  9 */
(PID.TID 0000.0001)                 2.773091043277394E+05,      /* J = 10 */
(PID.TID 0000.0001)                 2.841906470085516E+05,      /* J = 11 */
(PID.TID 0000.0001)                 2.898778860929753E+05,      /* J = 12 */
(PID.TID 0000.0001)                 2.944035815526416E+05,      /* J = 13 */
(PID.TID 0000.0001)                 2.977867909042096E+05,      /* J = 14 */
(PID.TID 0000.0001)                 3.000380090330854E+05,      /* J = 15 */
(PID.TID 0000.0001)                 3.011625828699101E+05       /* J = 16 */
(PID.TID 0000.0001)     ;
(PID.TID 0000.0001) dxC =  /* dxC(:,1,:,1) ( units: m ) */
(PID.TID 0000.0001)                 1.114203141013064E+05,      /* I =  1 */
(PID.TID 0000.0001)                 1.391343389937106E+05,      /* I =  2 */
(PID.TID 0000.0001)                 1.709574999026266E+05,      /* I =  3 */
(PID.TID 0000.0001)      . . .
(PID.TID 0000.0001)                 1.946503699269892E+05,      /* I = 94 */
(PID.TID 0000.0001)                 1.709574999026266E+05,      /* I = 95 */
(PID.TID 0000.0001)                 1.391343389937106E+05,      /* I = 96 */
(PID.TID 0000.0001)                 3.012281885409289E+05,      /* I = 97 */
(PID.TID 0000.0001)                 3.014528555318499E+05,      /* I = 98 */
(PID.TID 0000.0001)                 3.021172674809921E+05,      /* I = 99 */
(PID.TID 0000.0001)      . . .
(PID.TID 0000.0001)                 3.031928954490276E+05,      /* I =190 */
(PID.TID 0000.0001)                 3.021172674809921E+05,      /* I =191 */
(PID.TID 0000.0001)                 3.014528555318499E+05,      /* I =192 */
(PID.TID 0000.0001)                 1.114203141013064E+05,      /* I =193 */
(PID.TID 0000.0001)                 1.391343389937106E+05,      /* I =194 */
(PID.TID 0000.0001)                 1.709574999026266E+05,      /* I =195 */
(PID.TID 0000.0001)      . . .
(PID.TID 0000.0001)                 1.946503699269892E+05,      /* I =286 */
(PID.TID 0000.0001)                 1.709574999026266E+05,      /* I =287 */
(PID.TID 0000.0001)                 1.391343389937106E+05,      /* I =288 */
(PID.TID 0000.0001)                 3.012281885409289E+05,      /* I =289 */
(PID.TID 0000.0001)                 3.014528555318499E+05,      /* I =290 */
(PID.TID 0000.0001)                 3.021172674809921E+05,      /* I =291 */
(PID.TID 0000.0001)      . . .
(PID.TID 0000.0001)                 3.031928954490276E+05,      /* I =382 */
(PID.TID 0000.0001)                 3.021172674809921E+05,      /* I =383 */
(PID.TID 0000.0001)                 3.014528555318499E+05       /* I =384 */
(PID.TID 0000.0001)     ;
(PID.TID 0000.0001) dxC =  /* dxC(1,:,1,:) ( units: m ) */
(PID.TID 0000.0001)                 1.114203141013064E+05,      /* J =  1 */
(PID.TID 0000.0001)                 1.549545757850771E+05,      /* J =  2 */
(PID.TID 0000.0001)                 1.829777599966776E+05,      /* J =  3 */
(PID.TID 0000.0001)                 2.042717761866506E+05,      /* J =  4 */
(PID.TID 0000.0001)                 2.216367828252819E+05,      /* J =  5 */
(PID.TID 0000.0001)                 2.363029564123586E+05,      /* J =  6 */
(PID.TID 0000.0001)                 2.489113743322025E+05,      /* J =  7 */
(PID.TID 0000.0001)                 2.598293319150326E+05,      /* J =  8 */
(PID.TID 0000.0001)                 2.692787333338535E+05,      /* J =  9 */
(PID.TID 0000.0001)                 2.773972106720365E+05,      /* J = 10 */
(PID.TID 0000.0001)                 2.842706922224557E+05,      /* J = 11 */
(PID.TID 0000.0001)                 2.899523122489403E+05,      /* J = 12 */
(PID.TID 0000.0001)                 2.944741346384699E+05,      /* J = 13 */
(PID.TID 0000.0001)                 2.978547649292580E+05,      /* J = 14 */
(PID.TID 0000.0001)                 3.001044073506459E+05,      /* J = 15 */
(PID.TID 0000.0001)                 3.012281885409289E+05       /* J = 16 */
(PID.TID 0000.0001)     ;
(PID.TID 0000.0001) dyC =  /* dyC(:,1,:,1) ( units: m ) */
(PID.TID 0000.0001)                 1.114203141013064E+05,      /* I =  1 */
(PID.TID 0000.0001)                 1.549545757850771E+05,      /* I =  2 */
(PID.TID 0000.0001)                 1.829777599966776E+05,      /* I =  3 */
(PID.TID 0000.0001)      . . .
(PID.TID 0000.0001)                 1.829777599966776E+05,      /* I = 94 */
(PID.TID 0000.0001)                 1.549545757850771E+05,      /* I = 95 */
(PID.TID 0000.0001)                 1.114203141013064E+05,      /* I = 96 */
(PID.TID 0000.0001)                 3.013593857228136E+05,      /* I = 97 */
(PID.TID 0000.0001)                 3.018056440786431E+05,      /* I = 98 */
(PID.TID 0000.0001)                 3.026789946729719E+05,      /* I = 99 */
(PID.TID 0000.0001)      . . .
(PID.TID 0000.0001)                 3.026789946729719E+05,      /* I =190 */
(PID.TID 0000.0001)                 3.018056440786431E+05,      /* I =191 */
(PID.TID 0000.0001)                 3.013593857228136E+05,      /* I =192 */
(PID.TID 0000.0001)                 1.114203141013064E+05,      /* I =193 */
(PID.TID 0000.0001)                 1.549545757850771E+05,      /* I =194 */
(PID.TID 0000.0001)                 1.829777599966776E+05,      /* I =195 */
(PID.TID 0000.0001)      . . .
(PID.TID 0000.0001)                 1.829777599966776E+05,      /* I =286 */
(PID.TID 0000.0001)                 1.549545757850771E+05,      /* I =287 */
(PID.TID 0000.0001)                 1.114203141013064E+05,      /* I =288 */
(PID.TID 0000.0001)                 3.013593857228136E+05,      /* I =289 */
(PID.TID 0000.0001)                 3.018056440786431E+05,      /* I =290 */
(PID.TID 0000.0001)                 3.026789946729719E+05,      /* I =291 */
(PID.TID 0000.0001)      . . .
(PID.TID 0000.0001)                 3.026789946729719E+05,      /* I =382 */
(PID.TID 0000.0001)                 3.018056440786431E+05,      /* I =383 */
(PID.TID 0000.0001)                 3.013593857228136E+05       /* I =384 */
(PID.TID 0000.0001)     ;
(PID.TID 0000.0001) dyC =  /* dyC(1,:,1,:) ( units: m ) */
(PID.TID 0000.0001)                 1.114203141013064E+05,      /* J =  1 */
(PID.TID 0000.0001)                 1.391343389937106E+05,      /* J =  2 */
(PID.TID 0000.0001)                 1.709574999026266E+05,      /* J =  3 */
(PID.TID 0000.0001)                 1.946503699269892E+05,      /* J =  4 */
(PID.TID 0000.0001)                 2.135964483342134E+05,      /* J =  5 */
(PID.TID 0000.0001)                 2.294195678257306E+05,      /* J =  6 */
(PID.TID 0000.0001)                 2.429464709770498E+05,      /* J =  7 */
(PID.TID 0000.0001)                 2.546408290696998E+05,      /* J =  8 */
(PID.TID 0000.0001)                 2.647791839299727E+05,      /* J =  9 */
(PID.TID 0000.0001)                 2.735321911346108E+05,      /* J = 10 */
(PID.TID 0000.0001)                 2.810065951609633E+05,      /* J = 11 */
(PID.TID 0000.0001)                 2.872689479506990E+05,      /* J = 12 */
(PID.TID 0000.0001)                 2.923599955312932E+05,      /* J = 13 */
(PID.TID 0000.0001)                 2.963038832565530E+05,      /* J = 14 */
(PID.TID 0000.0001)                 2.991142470004740E+05,      /* J = 15 */
(PID.TID 0000.0001)                 3.007982711627968E+05       /* J = 16 */
(PID.TID 0000.0001)     ;
(PID.TID 0000.0001) dxV =  /* dxV(:,1,:,1) ( units: m ) */
(PID.TID 0000.0001)                 8.015229982413632E+04,      /* I =  1 */
(PID.TID 0000.0001)                 1.333130744933864E+05,      /* I =  2 */
(PID.TID 0000.0001)                 1.691744868129062E+05,      /* I =  3 */
(PID.TID 0000.0001)      . . .
(PID.TID 0000.0001)                 1.937548202849060E+05,      /* I = 94 */
(PID.TID 0000.0001)                 1.691744868129062E+05,      /* I = 95 */
(PID.TID 0000.0001)                 1.333130744933864E+05,      /* I = 96 */
(PID.TID 0000.0001)                 3.013686170436881E+05,      /* I = 97 */
(PID.TID 0000.0001)                 3.015922136961168E+05,      /* I = 98 */
(PID.TID 0000.0001)                 3.022533948177109E+05,      /* I = 99 */
(PID.TID 0000.0001)      . . .
(PID.TID 0000.0001)                 3.033238888442880E+05,      /* I =190 */
(PID.TID 0000.0001)                 3.022533948177109E+05,      /* I =191 */
(PID.TID 0000.0001)                 3.015922136961168E+05,      /* I =192 */
(PID.TID 0000.0001)                 8.015229982413632E+04,      /* I =193 */
(PID.TID 0000.0001)                 1.333130744933864E+05,      /* I =194 */
(PID.TID 0000.0001)                 1.691744868129062E+05,      /* I =195 */
(PID.TID 0000.0001)      . . .
(PID.TID 0000.0001)                 1.937548202849060E+05,      /* I =286 */
(PID.TID 0000.0001)                 1.691744868129062E+05,      /* I =287 */
(PID.TID 0000.0001)                 1.333130744933864E+05,      /* I =288 */
(PID.TID 0000.0001)                 3.013686170436881E+05,      /* I =289 */
(PID.TID 0000.0001)                 3.015922136961168E+05,      /* I =290 */
(PID.TID 0000.0001)                 3.022533948177109E+05,      /* I =291 */
(PID.TID 0000.0001)      . . .
(PID.TID 0000.0001)                 3.033238888442880E+05,      /* I =382 */
(PID.TID 0000.0001)                 3.022533948177109E+05,      /* I =383 */
(PID.TID 0000.0001)                 3.015922136961168E+05       /* I =384 */
(PID.TID 0000.0001)     ;
(PID.TID 0000.0001) dxV =  /* dxV(1,:,1,:) ( units: m ) */
(PID.TID 0000.0001)                 8.015229982413632E+04,      /* J =  1 */
(PID.TID 0000.0001)                 1.362652340208229E+05,      /* J =  2 */
(PID.TID 0000.0001)                 1.701080315742101E+05,      /* J =  3 */
(PID.TID 0000.0001)                 1.942331448101592E+05,      /* J =  4 */
(PID.TID 0000.0001)                 2.133486626971531E+05,      /* J =  5 */
(PID.TID 0000.0001)                 2.292584591272880E+05,      /* J =  6 */
(PID.TID 0000.0001)                 2.428369969078989E+05,      /* J =  7 */
(PID.TID 0000.0001)                 2.545652950875683E+05,      /* J =  8 */
(PID.TID 0000.0001)                 2.647274964828301E+05,      /* J =  9 */
(PID.TID 0000.0001)                 2.734980225206389E+05,      /* J = 10 */
(PID.TID 0000.0001)                 2.809856491525217E+05,      /* J = 11 */
(PID.TID 0000.0001)                 2.872580915202295E+05,      /* J = 12 */
(PID.TID 0000.0001)                 2.923567890694162E+05,      /* J = 13 */
(PID.TID 0000.0001)                 2.963063101754721E+05,      /* J = 14 */
(PID.TID 0000.0001)                 2.991205495886625E+05,      /* J = 15 */
(PID.TID 0000.0001)                 3.008068453676764E+05       /* J = 16 */
(PID.TID 0000.0001)     ;
(PID.TID 0000.0001) dyU =  /* dyU(:,1,:,1) ( units: m ) */
(PID.TID 0000.0001)                 8.015229982413632E+04,      /* I =  1 */
(PID.TID 0000.0001)                 1.362652340208229E+05,      /* I =  2 */
(PID.TID 0000.0001)                 1.701080315742101E+05,      /* I =  3 */
(PID.TID 0000.0001)      . . .
(PID.TID 0000.0001)                 1.942331448101592E+05,      /* I = 94 */
(PID.TID 0000.0001)                 1.701080315742101E+05,      /* I = 95 */
(PID.TID 0000.0001)                 1.362652340208229E+05,      /* I = 96 */
(PID.TID 0000.0001)                 3.013031486919771E+05,      /* I = 97 */
(PID.TID 0000.0001)                 3.015274890091515E+05,      /* I = 98 */
(PID.TID 0000.0001)                 3.021908563699420E+05,      /* I = 99 */
(PID.TID 0000.0001)      . . .
(PID.TID 0000.0001)                 3.032648502024415E+05,      /* I =190 */
(PID.TID 0000.0001)                 3.021908563699420E+05,      /* I =191 */
(PID.TID 0000.0001)                 3.015274890091515E+05,      /* I =192 */
(PID.TID 0000.0001)                 8.015229982413632E+04,      /* I =193 */
(PID.TID 0000.0001)                 1.362652340208229E+05,      /* I =194 */
(PID.TID 0000.0001)                 1.701080315742101E+05,      /* I =195 */
(PID.TID 0000.0001)      . . .
(PID.TID 0000.0001)                 1.942331448101592E+05,      /* I =286 */
(PID.TID 0000.0001)                 1.701080315742101E+05,      /* I =287 */
(PID.TID 0000.0001)                 1.362652340208229E+05,      /* I =288 */
(PID.TID 0000.0001)                 3.013031486919771E+05,      /* I =289 */
(PID.TID 0000.0001)                 3.015274890091515E+05,      /* I =290 */
(PID.TID 0000.0001)                 3.021908563699420E+05,      /* I =291 */
(PID.TID 0000.0001)      . . .
(PID.TID 0000.0001)                 3.032648502024415E+05,      /* I =382 */
(PID.TID 0000.0001)                 3.021908563699420E+05,      /* I =383 */
(PID.TID 0000.0001)                 3.015274890091515E+05       /* I =384 */
(PID.TID 0000.0001)     ;
(PID.TID 0000.0001) dyU =  /* dyU(1,:,1,:) ( units: m ) */
(PID.TID 0000.0001)                 8.015229982413632E+04,      /* J =  1 */
(PID.TID 0000.0001)                 1.333130744933864E+05,      /* J =  2 */
(PID.TID 0000.0001)                 1.691744868129062E+05,      /* J =  3 */
(PID.TID 0000.0001)                 1.937548202849060E+05,      /* J =  4 */
(PID.TID 0000.0001)                 2.130490056267208E+05,      /* J =  5 */
(PID.TID 0000.0001)                 2.290479919481738E+05,      /* J =  6 */
(PID.TID 0000.0001)                 2.426774358027003E+05,      /* J =  7 */
(PID.TID 0000.0001)                 2.544372984215561E+05,      /* J =  8 */
(PID.TID 0000.0001)                 2.646201463834826E+05,      /* J =  9 */
(PID.TID 0000.0001)                 2.734046499619031E+05,      /* J = 10 */
(PID.TID 0000.0001)                 2.809019351693761E+05,      /* J = 11 */
(PID.TID 0000.0001)                 2.871811105274442E+05,      /* J = 12 */
(PID.TID 0000.0001)                 2.922844849381675E+05,      /* J = 13 */
(PID.TID 0000.0001)                 2.962371870847826E+05,      /* J = 14 */
(PID.TID 0000.0001)                 2.990534755671296E+05,      /* J = 15 */
(PID.TID 0000.0001)                 3.007409169495504E+05       /* J = 16 */
(PID.TID 0000.0001)     ;
(PID.TID 0000.0001) rA  =  /* rA (:,1,:,1) ( units: m^2 ) */
(PID.TID 0000.0001)                 1.401900702255611E+10,      /* I =  1 */
(PID.TID 0000.0001)                 2.459906945574446E+10,      /* I =  2 */
(PID.TID 0000.0001)                 3.378518544307869E+10,      /* I =  3 */
(PID.TID 0000.0001)      . . .
(PID.TID 0000.0001)                 3.378518544304265E+10,      /* I = 94 */
(PID.TID 0000.0001)                 2.459906945574446E+10,      /* I = 95 */
(PID.TID 0000.0001)                 1.401900702259215E+10,      /* I = 96 */
(PID.TID 0000.0001)                 9.076111290422060E+10,      /* I = 97 */
(PID.TID 0000.0001)                 9.103111035233499E+10,      /* I = 98 */
(PID.TID 0000.0001)                 9.156064070993231E+10,      /* I = 99 */
(PID.TID 0000.0001)      . . .
(PID.TID 0000.0001)                 9.156064070993231E+10,      /* I =190 */
(PID.TID 0000.0001)                 9.103111035233499E+10,      /* I =191 */
(PID.TID 0000.0001)                 9.076111290418457E+10,      /* I =192 */
(PID.TID 0000.0001)                 1.401900702255611E+10,      /* I =193 */
(PID.TID 0000.0001)                 2.459906945574446E+10,      /* I =194 */
(PID.TID 0000.0001)                 3.378518544307869E+10,      /* I =195 */
(PID.TID 0000.0001)      . . .
(PID.TID 0000.0001)                 3.378518544304265E+10,      /* I =286 */
(PID.TID 0000.0001)                 2.459906945574446E+10,      /* I =287 */
(PID.TID 0000.0001)                 1.401900702259215E+10,      /* I =288 */
(PID.TID 0000.0001)                 9.076111290422060E+10,      /* I =289 */
(PID.TID 0000.0001)                 9.103111035233499E+10,      /* I =290 */
(PID.TID 0000.0001)                 9.156064070993231E+10,      /* I =291 */
(PID.TID 0000.0001)      . . .
(PID.TID 0000.0001)                 9.156064070993231E+10,      /* I =382 */
(PID.TID 0000.0001)                 9.103111035233499E+10,      /* I =383 */
(PID.TID 0000.0001)                 9.076111290418457E+10       /* I =384 */
(PID.TID 0000.0001)     ;
(PID.TID 0000.0001) rA  =  /* rA (1,:,1,:) ( units: m^2 ) */
(PID.TID 0000.0001)                 1.401900702255611E+10,      /* J =  1 */
(PID.TID 0000.0001)                 2.459906945574446E+10,      /* J =  2 */
(PID.TID 0000.0001)                 3.378518544307869E+10,      /* J =  3 */
(PID.TID 0000.0001)                 4.192037169898667E+10,      /* J =  4 */
(PID.TID 0000.0001)                 4.925938996118163E+10,      /* J =  5 */
(PID.TID 0000.0001)                 5.594154126607553E+10,      /* J =  6 */
(PID.TID 0000.0001)                 6.203683527776127E+10,      /* J =  7 */
(PID.TID 0000.0001)                 6.757541173817516E+10,      /* J =  8 */
(PID.TID 0000.0001)                 7.256353271748119E+10,      /* J =  9 */
(PID.TID 0000.0001)                 7.699293007098555E+10,      /* J = 10 */
(PID.TID 0000.0001)                 8.084683449728902E+10,      /* J = 11 */
(PID.TID 0000.0001)                 8.410423102799828E+10,      /* J = 12 */
(PID.TID 0000.0001)                 8.674306976737517E+10,      /* J = 13 */
(PID.TID 0000.0001)                 8.874277443041928E+10,      /* J = 14 */
(PID.TID 0000.0001)                 9.008620045350865E+10,      /* J = 15 */
(PID.TID 0000.0001)                 9.076111290418457E+10       /* J = 16 */
(PID.TID 0000.0001)     ;
(PID.TID 0000.0001) rAw =  /* rAw(:,1,:,1) ( units: m^2 ) */
(PID.TID 0000.0001)                 1.216690346714270E+10,      /* I =  1 */
(PID.TID 0000.0001)                 1.974052138506315E+10,      /* I =  2 */
(PID.TID 0000.0001)                 2.943712825252015E+10,      /* I =  3 */
(PID.TID 0000.0001)      . . .
(PID.TID 0000.0001)                 3.801790263325260E+10,      /* I = 94 */
(PID.TID 0000.0001)                 2.943712825251114E+10,      /* I = 95 */
(PID.TID 0000.0001)                 1.974052138509018E+10,      /* I = 96 */
(PID.TID 0000.0001)                 9.071447638299399E+10,      /* I = 97 */
(PID.TID 0000.0001)                 9.085012105610597E+10,      /* I = 98 */
(PID.TID 0000.0001)                 9.125179254955583E+10,      /* I = 99 */
(PID.TID 0000.0001)      . . .
(PID.TID 0000.0001)                 9.190392048045309E+10,      /* I =190 */
(PID.TID 0000.0001)                 9.125179254954683E+10,      /* I =191 */
(PID.TID 0000.0001)                 9.085012105606993E+10,      /* I =192 */
(PID.TID 0000.0001)                 1.216690346714270E+10,      /* I =193 */
(PID.TID 0000.0001)                 1.974052138506315E+10,      /* I =194 */
(PID.TID 0000.0001)                 2.943712825252015E+10,      /* I =195 */
(PID.TID 0000.0001)      . . .
(PID.TID 0000.0001)                 3.801790263325260E+10,      /* I =286 */
(PID.TID 0000.0001)                 2.943712825251114E+10,      /* I =287 */
(PID.TID 0000.0001)                 1.974052138509018E+10,      /* I =288 */
(PID.TID 0000.0001)                 9.071447638299399E+10,      /* I =289 */
(PID.TID 0000.0001)                 9.085012105610597E+10,      /* I =290 */
(PID.TID 0000.0001)                 9.125179254955583E+10,      /* I =291 */
(PID.TID 0000.0001)      . . .
(PID.TID 0000.0001)                 9.190392048045309E+10,      /* I =382 */
(PID.TID 0000.0001)                 9.125179254954683E+10,      /* I =383 */
(PID.TID 0000.0001)                 9.085012105606993E+10       /* I =384 */
(PID.TID 0000.0001)     ;
(PID.TID 0000.0001) rAw =  /* rAw(1,:,1,:) ( units: m^2 ) */
(PID.TID 0000.0001)                 1.216690346714270E+10,      /* J =  1 */
(PID.TID 0000.0001)                 2.390126200743558E+10,      /* J =  2 */
(PID.TID 0000.0001)                 3.341968103208270E+10,      /* J =  3 */
(PID.TID 0000.0001)                 4.168532893152940E+10,      /* J =  4 */
(PID.TID 0000.0001)                 4.909074590409593E+10,      /* J =  5 */
(PID.TID 0000.0001)                 5.581203765722643E+10,      /* J =  6 */
(PID.TID 0000.0001)                 6.193257577506788E+10,      /* J =  7 */
(PID.TID 0000.0001)                 6.748840226738273E+10,      /* J =  8 */
(PID.TID 0000.0001)                 7.248875782324815E+10,      /* J =  9 */
(PID.TID 0000.0001)                 7.692702995909871E+10,      /* J = 10 */
(PID.TID 0000.0001)                 8.078743937057304E+10,      /* J = 11 */
(PID.TID 0000.0001)                 8.404959656062837E+10,      /* J = 12 */
(PID.TID 0000.0001)                 8.669186205742538E+10,      /* J = 13 */
(PID.TID 0000.0001)                 8.869393350723613E+10,      /* J = 14 */
(PID.TID 0000.0001)                 9.003884657168852E+10,      /* J = 15 */
(PID.TID 0000.0001)                 9.071447638299399E+10       /* J = 16 */
(PID.TID 0000.0001)     ;
(PID.TID 0000.0001) rAs =  /* rAs(:,1,:,1) ( units: m^2 ) */
(PID.TID 0000.0001)                 1.216690346714270E+10,      /* I =  1 */
(PID.TID 0000.0001)                 2.390126200743558E+10,      /* I =  2 */
(PID.TID 0000.0001)                 3.341968103208270E+10,      /* I =  3 */
(PID.TID 0000.0001)      . . .
(PID.TID 0000.0001)                 3.341968103208270E+10,      /* I = 94 */
(PID.TID 0000.0001)                 2.390126200743558E+10,      /* I = 95 */
(PID.TID 0000.0001)                 1.216690346714270E+10,      /* I = 96 */
(PID.TID 0000.0001)                 9.083293515008307E+10,      /* I = 97 */
(PID.TID 0000.0001)                 9.110170898494536E+10,      /* I = 98 */
(PID.TID 0000.0001)                 9.162886297688426E+10,      /* I = 99 */
(PID.TID 0000.0001)      . . .
(PID.TID 0000.0001)                 9.162886297688426E+10,      /* I =190 */
(PID.TID 0000.0001)                 9.110170898494536E+10,      /* I =191 */
(PID.TID 0000.0001)                 9.083293515008307E+10,      /* I =192 */
(PID.TID 0000.0001)                 1.216690346714270E+10,      /* I =193 */
(PID.TID 0000.0001)                 2.390126200743558E+10,      /* I =194 */
(PID.TID 0000.0001)                 3.341968103208270E+10,      /* I =195 */
(PID.TID 0000.0001)      . . .
(PID.TID 0000.0001)                 3.341968103208270E+10,      /* I =286 */
(PID.TID 0000.0001)                 2.390126200743558E+10,      /* I =287 */
(PID.TID 0000.0001)                 1.216690346714270E+10,      /* I =288 */
(PID.TID 0000.0001)                 9.083293515008307E+10,      /* I =289 */
(PID.TID 0000.0001)                 9.110170898494536E+10,      /* I =290 */
(PID.TID 0000.0001)                 9.162886297688426E+10,      /* I =291 */
(PID.TID 0000.0001)      . . .
(PID.TID 0000.0001)                 9.162886297688426E+10,      /* I =382 */
(PID.TID 0000.0001)                 9.110170898494536E+10,      /* I =383 */
(PID.TID 0000.0001)                 9.083293515008307E+10       /* I =384 */
(PID.TID 0000.0001)     ;
(PID.TID 0000.0001) rAs =  /* rAs(1,:,1,:) ( units: m^2 ) */
(PID.TID 0000.0001)                 1.216690346714270E+10,      /* J =  1 */
(PID.TID 0000.0001)                 1.974052138506315E+10,      /* J =  2 */
(PID.TID 0000.0001)                 2.943712825252015E+10,      /* J =  3 */
(PID.TID 0000.0001)                 3.801790263324359E+10,      /* J =  4 */
(PID.TID 0000.0001)                 4.571243814189866E+10,      /* J =  5 */
(PID.TID 0000.0001)                 5.269930713599979E+10,      /* J =  6 */
(PID.TID 0000.0001)                 5.907428494299063E+10,      /* J =  7 */
(PID.TID 0000.0001)                 6.488320895111514E+10,      /* J =  8 */
(PID.TID 0000.0001)                 7.014205907741882E+10,      /* J =  9 */
(PID.TID 0000.0001)                 7.484854821847499E+10,      /* J = 10 */
(PID.TID 0000.0001)                 7.898934631431560E+10,      /* J = 11 */
(PID.TID 0000.0001)                 8.254500894894537E+10,      /* J = 12 */
(PID.TID 0000.0001)                 8.549360686473492E+10,      /* J = 13 */
(PID.TID 0000.0001)                 8.781353403175085E+10,      /* J = 14 */
(PID.TID 0000.0001)                 8.948571540392021E+10,      /* J = 15 */
(PID.TID 0000.0001)                 9.049530583086168E+10       /* J = 16 */
(PID.TID 0000.0001)     ;
(PID.TID 0000.0001) globalArea = /* Integrated horizontal Area (m^2) */
(PID.TID 0000.0001)                 3.638867375081599E+14
(PID.TID 0000.0001)     ;
(PID.TID 0000.0001) hasWetCSCorners = /* Domain contains CS corners (True/False) */
(PID.TID 0000.0001)                   T
(PID.TID 0000.0001)     ;
(PID.TID 0000.0001) // =======================================================
(PID.TID 0000.0001) // End of Model config. summary
(PID.TID 0000.0001) // =======================================================
(PID.TID 0000.0001) 
(PID.TID 0000.0001) == Packages configuration : Check & print summary ==
(PID.TID 0000.0001) 
(PID.TID 0000.0001) GMREDI_CHECK: #define GMREDI
(PID.TID 0000.0001) GM_AdvForm =     /* if FALSE => use SkewFlux Form */
(PID.TID 0000.0001)                   T
(PID.TID 0000.0001)     ;
(PID.TID 0000.0001) GM_InMomAsStress = /* if TRUE => apply as Eddy Stress */
(PID.TID 0000.0001)                   F
(PID.TID 0000.0001)     ;
(PID.TID 0000.0001) GM_AdvSeparate = /* Calc Bolus & Euler Adv. separately */
(PID.TID 0000.0001)                   F
(PID.TID 0000.0001)     ;
(PID.TID 0000.0001) GM_ExtraDiag =   /* Tensor Extra Diag (line 1&2) non 0 */
(PID.TID 0000.0001)                   T
(PID.TID 0000.0001)     ;
(PID.TID 0000.0001) GM_isopycK =    /* Background Isopyc. Diffusivity [m^2/s] */
(PID.TID 0000.0001)                 8.000000000000000E+02
(PID.TID 0000.0001)     ;
(PID.TID 0000.0001) GM_advec*K =    /* Backg. GM-Advec(=Bolus) Diffusivity [m^2/s] */
(PID.TID 0000.0001)                 8.000000000000000E+02
(PID.TID 0000.0001)     ;
(PID.TID 0000.0001) GM_skewflx*K =  /* Background GM_SkewFlx Diffusivity [m^2/s] */
(PID.TID 0000.0001)                 0.000000000000000E+00
(PID.TID 0000.0001)     ;
(PID.TID 0000.0001) GM_isoFac_calcK = /* Fraction of dynamic K added to Redi tensor */
(PID.TID 0000.0001)                 1.000000000000000E+00
(PID.TID 0000.0001)     ;
(PID.TID 0000.0001) GM_Kmin_horiz = /* Minimum Horizontal Diffusivity [m^2/s] */
(PID.TID 0000.0001)                 5.000000000000000E+01
(PID.TID 0000.0001)     ;
(PID.TID 0000.0001) GM_Visbeck_alpha = /* Visbeck alpha coeff. [-] */
(PID.TID 0000.0001)                 0.000000000000000E+00
(PID.TID 0000.0001)     ;
(PID.TID 0000.0001) GM_Small_Number =  /* epsilon used in slope calc */
(PID.TID 0000.0001)                 9.999999999999999E-21
(PID.TID 0000.0001)     ;
(PID.TID 0000.0001) GM_slopeSqCutoff = /* Slope^2 cut-off value */
(PID.TID 0000.0001)                 1.000000000000000E+48
(PID.TID 0000.0001)     ;
(PID.TID 0000.0001) GM_taper_scheme =  /* Type of Tapering/Clipping scheme */
(PID.TID 0000.0001)               'gkw91                                   '
(PID.TID 0000.0001)     ;
(PID.TID 0000.0001) GM_maxSlope =  /* Maximum Slope (Tapering/Clipping) */
(PID.TID 0000.0001)                 1.000000000000000E-02
(PID.TID 0000.0001)     ;
(PID.TID 0000.0001) GM_facTrL2dz = /* Minimum Trans.Layer Thick. (factor of dz) */
(PID.TID 0000.0001)                 1.000000000000000E+00
(PID.TID 0000.0001)     ;
(PID.TID 0000.0001) GM_facTrL2ML = /* Max.Trans.Layer Thick. (factor of MxL Depth)*/
(PID.TID 0000.0001)                 5.000000000000000E+00
(PID.TID 0000.0001)     ;
(PID.TID 0000.0001) GM_maxTransLay = /* Maximum Transition Layer Thickness [m] */
(PID.TID 0000.0001)                 5.000000000000000E+02
(PID.TID 0000.0001)     ;
(PID.TID 0000.0001) GM_UseBVP = /* if TRUE => use bvp a la Ferrari et al. (2010) */
(PID.TID 0000.0001)                   F
(PID.TID 0000.0001)     ;
(PID.TID 0000.0001) GM_BVP_ModeNumber = /* Vertical mode number for BVP wave speed */
(PID.TID 0000.0001)                       1
(PID.TID 0000.0001)     ;
(PID.TID 0000.0001) GM_BVP_cMin = /* Minimum wave speed for BVP [m/s] */
(PID.TID 0000.0001)                 1.000000000000000E-01
(PID.TID 0000.0001)     ;
(PID.TID 0000.0001) GM_useSubMeso = /* if TRUE => use Sub-Meso param. (B.Fox-Kemper) */
(PID.TID 0000.0001)                   F
(PID.TID 0000.0001)     ;
(PID.TID 0000.0001) subMeso_Ceff = /* efficiency coeff. of Mixed-Layer Eddies [-] */
(PID.TID 0000.0001)                 7.000000000000001E-02
(PID.TID 0000.0001)     ;
(PID.TID 0000.0001) subMeso_invTau = /* inverse of Sub-Meso mixing time-scale [/s] */
(PID.TID 0000.0001)                 2.000000000000000E-06
(PID.TID 0000.0001)     ;
(PID.TID 0000.0001) subMeso_LfMin = /* minimum length-scale "Lf" [m] */
(PID.TID 0000.0001)                 1.000000000000000E+03
(PID.TID 0000.0001)     ;
(PID.TID 0000.0001) subMeso_Lmax = /* maximum grid-scale length [m] */
(PID.TID 0000.0001)                 1.100000000000000E+05
(PID.TID 0000.0001)     ;
(PID.TID 0000.0001) GM_useLeithQG = /* if TRUE => add QG Leith viscosity to GMRedi tensor */
(PID.TID 0000.0001)                   F
(PID.TID 0000.0001)     ;
(PID.TID 0000.0001) GM_useGEOM = /* using GEOMETRIC */
(PID.TID 0000.0001)                   F
(PID.TID 0000.0001)     ;
(PID.TID 0000.0001) LONGSTEP_CHECK: #define ALLOW_LONGSTEP
(PID.TID 0000.0001) // ===================================
(PID.TID 0000.0001) // longstep parameters
(PID.TID 0000.0001) // ===================================
(PID.TID 0000.0001) LS_nIter = /* number of dynamics steps between ptracer steps */
(PID.TID 0000.0001)                       5
(PID.TID 0000.0001)     ;
(PID.TID 0000.0001) LS_whenToSample = /* 0: before; 1: after TD, before DYN; 2: after */
(PID.TID 0000.0001)                       2
(PID.TID 0000.0001)     ;
(PID.TID 0000.0001) PTRACERS_CHECK: #define ALLOW_PTRACERS
(PID.TID 0000.0001) // ===================================
(PID.TID 0000.0001) // PTRACERS parameters
(PID.TID 0000.0001) // ===================================
(PID.TID 0000.0001) PTRACERS_numInUse = /* number of tracers */
(PID.TID 0000.0001)                       1
(PID.TID 0000.0001)     ;
(PID.TID 0000.0001) PTRACERS_Iter0 = /* timestep number when tracers are initialized */
(PID.TID 0000.0001)                       0
(PID.TID 0000.0001)     ;
(PID.TID 0000.0001) PTRACERS_startAllTrc =/* all tracers start @ startTime */
(PID.TID 0000.0001)                   T
(PID.TID 0000.0001)     ;
(PID.TID 0000.0001) PTRACERS_doAB_onGpTr =/* apply AB on Tendencies (rather than on Tracers) */
(PID.TID 0000.0001)                   T
(PID.TID 0000.0001)     ;
(PID.TID 0000.0001) PTRACERS_addSrelax2EmP =/* add Salt relaxation to EmP */
(PID.TID 0000.0001)                   F
(PID.TID 0000.0001)     ;
(PID.TID 0000.0001) PTRACERS_dTLev =   /* Ptracer timestep ( s ) */
(PID.TID 0000.0001)    15 @  4.320000000000000E+05              /* K =  1: 15 */
(PID.TID 0000.0001)     ;
(PID.TID 0000.0001) PTRACERS_monitorFreq = /* Frequency^-1 for monitor output (s) */
(PID.TID 0000.0001)                 2.592000000000000E+06
(PID.TID 0000.0001)     ;
(PID.TID 0000.0001) PTRACERS_dumpFreq = /* Frequency^-1 for snapshot output (s) */
(PID.TID 0000.0001)                 2.592000000000000E+06
(PID.TID 0000.0001)     ;
(PID.TID 0000.0001) PTRACERS_taveFreq = /* Frequency^-1 for time-Aver. output (s) */
(PID.TID 0000.0001)                 1.244160000000000E+09
(PID.TID 0000.0001)     ;
(PID.TID 0000.0001) PTRACERS_useRecords = /* all tracers in 1 file */
(PID.TID 0000.0001)                   F
(PID.TID 0000.0001)     ;
(PID.TID 0000.0001) PTRACERS_timeave_mnc = /* use MNC for Tave output */
(PID.TID 0000.0001)                   F
(PID.TID 0000.0001)     ;
(PID.TID 0000.0001) PTRACERS_snapshot_mnc = /* use MNC for snapshot output */
(PID.TID 0000.0001)                   F
(PID.TID 0000.0001)     ;
(PID.TID 0000.0001) PTRACERS_pickup_write_mnc = /* use MNC for writing pickups */
(PID.TID 0000.0001)                   F
(PID.TID 0000.0001)     ;
(PID.TID 0000.0001) PTRACERS_pickup_read_mnc = /* use MNC for reading pickups */
(PID.TID 0000.0001)                   F
(PID.TID 0000.0001)     ;
(PID.TID 0000.0001)  -----------------------------------
(PID.TID 0000.0001)  tracer number :    1
(PID.TID 0000.0001) PTRACERS_names = /* Tracer short name */
(PID.TID 0000.0001)               'Age_tracer'
(PID.TID 0000.0001)     ;
(PID.TID 0000.0001) PTRACERS_long_names = /* Tracer long name */
(PID.TID 0000.0001)               ''
(PID.TID 0000.0001)     ;
(PID.TID 0000.0001) PTRACERS_ioLabel = /* tracer IO Label */
(PID.TID 0000.0001)               '01'
(PID.TID 0000.0001)     ;
(PID.TID 0000.0001) PTRACERS_advScheme = /* Advection Scheme */
(PID.TID 0000.0001)                      33
(PID.TID 0000.0001)     ;
(PID.TID 0000.0001) PTRACERS_SOM_Advection = /* tracer uses SOM advection scheme */
(PID.TID 0000.0001)                   F
(PID.TID 0000.0001)     ;
(PID.TID 0000.0001) PTRACERS_ImplVertAdv = /* implicit vert. advection flag */
(PID.TID 0000.0001)                   F
(PID.TID 0000.0001)     ;
(PID.TID 0000.0001) PTRACERS_MultiDimAdv = /* tracer uses Multi-Dim advection */
(PID.TID 0000.0001)                   T
(PID.TID 0000.0001)     ;
(PID.TID 0000.0001) PTRACERS_AdamsBashGtr = /* apply AB on tracer tendency */
(PID.TID 0000.0001)                   F
(PID.TID 0000.0001)     ;
(PID.TID 0000.0001) PTRACERS_AdamsBash_Tr = /* apply AB on passive tracer */
(PID.TID 0000.0001)                   F
(PID.TID 0000.0001)     ;
(PID.TID 0000.0001) PTRACERS_diffKh = /* Laplacian Diffusivity */
(PID.TID 0000.0001)                 0.000000000000000E+00
(PID.TID 0000.0001)     ;
(PID.TID 0000.0001) PTRACERS_diffK4 = /* Biharmonic Diffusivity */
(PID.TID 0000.0001)                 0.000000000000000E+00
(PID.TID 0000.0001)     ;
(PID.TID 0000.0001) PTRACERS_diffKrNr = /* Vertical Diffusivity */
(PID.TID 0000.0001)    15 @  3.000000000000000E-05              /* K =  1: 15 */
(PID.TID 0000.0001)     ;
(PID.TID 0000.0001) PTRACERS_useGMRedi = /* apply GM-Redi */
(PID.TID 0000.0001)                   T
(PID.TID 0000.0001)     ;
(PID.TID 0000.0001) PTRACERS_useDWNSLP = /* apply DOWN-SLOPE Flow */
(PID.TID 0000.0001)                   F
(PID.TID 0000.0001)     ;
(PID.TID 0000.0001) PTRACERS_useKPP = /* apply KPP scheme */
(PID.TID 0000.0001)                   F
(PID.TID 0000.0001)     ;
(PID.TID 0000.0001) PTRACERS_ref = /* Reference vertical profile */
(PID.TID 0000.0001)    15 @  0.000000000000000E+00              /* K =  1: 15 */
(PID.TID 0000.0001)     ;
(PID.TID 0000.0001) PTRACERS_EvPrRn =/* tracer conc. in Evap. & Rain */
(PID.TID 0000.0001)                 1.234567000000000E+05
(PID.TID 0000.0001)     ;
(PID.TID 0000.0001)  -----------------------------------
(PID.TID 0000.0001) GAD_CHECK: #define ALLOW_GENERIC_ADVDIFF
(PID.TID 0000.0001) // =======================================================
(PID.TID 0000.0001) // Check Model config. (CONFIG_CHECK):
(PID.TID 0000.0001) // CONFIG_CHECK : Normal End
(PID.TID 0000.0001) // =======================================================
(PID.TID 0000.0001) 
(PID.TID 0000.0001)  MDS_READ_FIELD: opening global file: lev_T_cs_15k.bin
(PID.TID 0000.0001)  MDS_READ_FIELD: opening global file: lev_S_cs_15k.bin
(PID.TID 0000.0001) Start initial hydrostatic pressure computation
(PID.TID 0000.0001) Pressure is predetermined for buoyancyRelation OCEANIC
(PID.TID 0000.0001) 
(PID.TID 0000.0001)  MDS_READ_FIELD: opening global file: trenberth_taux.bin
(PID.TID 0000.0001)  MDS_READ_FIELD: opening global file: trenberth_tauy.bin
(PID.TID 0000.0001)  MDS_READ_FIELD: opening global file: shiQnet_cs32.bin
(PID.TID 0000.0001)  MDS_READ_FIELD: opening global file: shiEmPR_cs32.bin
(PID.TID 0000.0001)  MDS_READ_FIELD: opening global file: lev_surfT_cs_12m.bin
(PID.TID 0000.0001)  MDS_READ_FIELD: opening global file: lev_surfS_cs_12m.bin
(PID.TID 0000.0001) DIAGSTATS_INI_IO: open file: dynStDiag.0000000000.txt , unit=     9
(PID.TID 0000.0001)  write diagnostics summary to file ioUnit:      6
Iter.Nb:         0 ; Time(s):  0.0000000000000E+00
------------------------------------------------------------------------
2D/3D diagnostics: Number of lists:     1
------------------------------------------------------------------------
listId=    1 ; file name: oceDiag
 nFlds, nActive,       freq     &     phase        , nLev               
    8  |    8  |    864000.000000         0.000000 |  15
 levels:   1   2   3   4   5   6   7   8   9  10  11  12  13  14  15
 diag# | name   |   ipt  |  iMate | kLev|   count |   mate.C|           
    79 |DRHODR  |      1 |      0 |  15 |       0 |
    64 |RHOAnoma|     16 |      0 |  15 |       0 |
    80 |CONVADJ |     31 |      0 |  15 |       0 |
   210 |GM_Kwx  |     46 |     61 |  15 |       0 |       0 |
   211 |GM_Kwy  |     61 |     46 |  15 |       0 |       0 |
   212 |GM_Kwz  |     76 |      0 |  15 |       0 |
   213 |GM_PsiX |     91 |    106 |  15 |       0 |       0 |
   214 |GM_PsiY |    106 |     91 |  15 |       0 |       0 |
------------------------------------------------------------------------
Global & Regional Statistics diagnostics: Number of lists:     1
------------------------------------------------------------------------
listId=   1 ; file name: dynStDiag
 nFlds, nActive,       freq     &     phase        |                    
    5  |    5  |   -864000.000000    432000.000000 |
 Regions:   0
 diag# | name   |   ipt  |  iMate |    Volume   |   mate-Vol. |         
    23 |ETAN    |      1 |      0 | 0.00000E+00 |
    30 |UVEL    |      2 |      0 | 0.00000E+00 |
    31 |VVEL    |     17 |      0 | 0.00000E+00 |
    32 |WVEL    |     32 |      0 | 0.00000E+00 |
    26 |THETA   |     47 |      0 | 0.00000E+00 |
------------------------------------------------------------------------
(PID.TID 0000.0001) // =======================================================
(PID.TID 0000.0001) // Model current state
(PID.TID 0000.0001) // =======================================================
(PID.TID 0000.0001) 
(PID.TID 0000.0001) // =======================================================
(PID.TID 0000.0001) // Begin MONITOR dynamic field statistics
(PID.TID 0000.0001) // =======================================================
(PID.TID 0000.0001) %MON time_tsnumber                =                     0
(PID.TID 0000.0001) %MON time_secondsf                =   0.0000000000000E+00
(PID.TID 0000.0001) %MON dynstat_eta_max              =   0.0000000000000E+00
(PID.TID 0000.0001) %MON dynstat_eta_min              =   0.0000000000000E+00
(PID.TID 0000.0001) %MON dynstat_eta_mean             =   0.0000000000000E+00
(PID.TID 0000.0001) %MON dynstat_eta_sd               =   0.0000000000000E+00
(PID.TID 0000.0001) %MON dynstat_eta_del2             =   0.0000000000000E+00
(PID.TID 0000.0001) %MON dynstat_uvel_max             =   0.0000000000000E+00
(PID.TID 0000.0001) %MON dynstat_uvel_min             =   0.0000000000000E+00
(PID.TID 0000.0001) %MON dynstat_uvel_mean            =   0.0000000000000E+00
(PID.TID 0000.0001) %MON dynstat_uvel_sd              =   0.0000000000000E+00
(PID.TID 0000.0001) %MON dynstat_uvel_del2            =   0.0000000000000E+00
(PID.TID 0000.0001) %MON dynstat_vvel_max             =   0.0000000000000E+00
(PID.TID 0000.0001) %MON dynstat_vvel_min             =   0.0000000000000E+00
(PID.TID 0000.0001) %MON dynstat_vvel_mean            =   0.0000000000000E+00
(PID.TID 0000.0001) %MON dynstat_vvel_sd              =   0.0000000000000E+00
(PID.TID 0000.0001) %MON dynstat_vvel_del2            =   0.0000000000000E+00
(PID.TID 0000.0001) %MON dynstat_wvel_max             =   0.0000000000000E+00
(PID.TID 0000.0001) %MON dynstat_wvel_min             =   0.0000000000000E+00
(PID.TID 0000.0001) %MON dynstat_wvel_mean            =   0.0000000000000E+00
(PID.TID 0000.0001) %MON dynstat_wvel_sd              =   0.0000000000000E+00
(PID.TID 0000.0001) %MON dynstat_wvel_del2            =   0.0000000000000E+00
(PID.TID 0000.0001) %MON dynstat_theta_max            =   2.9382676376985E+01
(PID.TID 0000.0001) %MON dynstat_theta_min            =  -1.8552983134796E+00
(PID.TID 0000.0001) %MON dynstat_theta_mean           =   3.6030349459887E+00
(PID.TID 0000.0001) %MON dynstat_theta_sd             =   4.4406771433446E+00
(PID.TID 0000.0001) %MON dynstat_theta_del2           =   2.1326598561892E-03
(PID.TID 0000.0001) %MON dynstat_salt_max             =   4.0715748807407E+01
(PID.TID 0000.0001) %MON dynstat_salt_min             =   1.8144841495627E+01
(PID.TID 0000.0001) %MON dynstat_salt_mean            =   3.4721451128586E+01
(PID.TID 0000.0001) %MON dynstat_salt_sd              =   4.8858744433685E-01
(PID.TID 0000.0001) %MON dynstat_salt_del2            =   5.1558447735922E-04
(PID.TID 0000.0001) %MON forcing_qnet_max             =   4.6211611868841E+02
(PID.TID 0000.0001) %MON forcing_qnet_min             =  -2.0410376912710E+02
(PID.TID 0000.0001) %MON forcing_qnet_mean            =  -1.2329247921290E+01
(PID.TID 0000.0001) %MON forcing_qnet_sd              =   1.1327998988989E+02
(PID.TID 0000.0001) %MON forcing_qnet_del2            =   4.4323506322358E-01
(PID.TID 0000.0001) %MON forcing_qsw_max              =   0.0000000000000E+00
(PID.TID 0000.0001) %MON forcing_qsw_min              =   0.0000000000000E+00
(PID.TID 0000.0001) %MON forcing_qsw_mean             =   0.0000000000000E+00
(PID.TID 0000.0001) %MON forcing_qsw_sd               =   0.0000000000000E+00
(PID.TID 0000.0001) %MON forcing_qsw_del2             =   0.0000000000000E+00
(PID.TID 0000.0001) %MON forcing_empmr_max            =   7.6494447208479E-05
(PID.TID 0000.0001) %MON forcing_empmr_min            =  -1.5362614137596E-04
(PID.TID 0000.0001) %MON forcing_empmr_mean           =  -2.7256318706594E-21
(PID.TID 0000.0001) %MON forcing_empmr_sd             =   2.4051723601802E-05
(PID.TID 0000.0001) %MON forcing_empmr_del2           =   1.2276157049243E-07
(PID.TID 0000.0001) %MON forcing_fu_max               =   2.4892781143428E-01
(PID.TID 0000.0001) %MON forcing_fu_min               =  -2.5159107438040E-01
(PID.TID 0000.0001) %MON forcing_fu_mean              =  -3.8956966288612E-03
(PID.TID 0000.0001) %MON forcing_fu_sd                =   6.5480383395885E-02
(PID.TID 0000.0001) %MON forcing_fu_del2              =   2.3114393556995E-04
(PID.TID 0000.0001) %MON forcing_fv_max               =   2.9305960402537E-01
(PID.TID 0000.0001) %MON forcing_fv_min               =  -3.3950131228473E-01
(PID.TID 0000.0001) %MON forcing_fv_mean              =  -1.3743384707768E-02
(PID.TID 0000.0001) %MON forcing_fv_sd                =   7.6816469815204E-02
(PID.TID 0000.0001) %MON forcing_fv_del2              =   2.5671701728584E-04
(PID.TID 0000.0001) %MON trAdv_CFL_u_max              =   0.0000000000000E+00
(PID.TID 0000.0001) %MON trAdv_CFL_v_max              =   0.0000000000000E+00
(PID.TID 0000.0001) %MON trAdv_CFL_w_max              =   0.0000000000000E+00
(PID.TID 0000.0001) %MON advcfl_uvel_max              =   0.0000000000000E+00
(PID.TID 0000.0001) %MON advcfl_vvel_max              =   0.0000000000000E+00
(PID.TID 0000.0001) %MON advcfl_wvel_max              =   0.0000000000000E+00
(PID.TID 0000.0001) %MON advcfl_W_hf_max              =   0.0000000000000E+00
(PID.TID 0000.0001) %MON pe_b_mean                    =   0.0000000000000E+00
(PID.TID 0000.0001) %MON ke_max                       =   0.0000000000000E+00
(PID.TID 0000.0001) %MON ke_mean                      =   0.0000000000000E+00
(PID.TID 0000.0001) %MON ke_vol                       =   1.3398024453628E+18
(PID.TID 0000.0001) %MON vort_r_min                   =   0.0000000000000E+00
(PID.TID 0000.0001) %MON vort_r_max                   =   0.0000000000000E+00
(PID.TID 0000.0001) %MON vort_a_mean                  =  -2.0549865324846E-05
(PID.TID 0000.0001) %MON vort_a_sd                    =   7.5259258474424E-05
(PID.TID 0000.0001) %MON vort_p_mean                  =  -2.4783522345032E-05
(PID.TID 0000.0001) %MON vort_p_sd                    =   1.2810783121880E-04
(PID.TID 0000.0001) %MON surfExpan_theta_mean         =   0.0000000000000E+00
(PID.TID 0000.0001) %MON surfExpan_salt_mean          =   0.0000000000000E+00
(PID.TID 0000.0001) // =======================================================
(PID.TID 0000.0001) // End MONITOR dynamic field statistics
(PID.TID 0000.0001) // =======================================================
(PID.TID 0000.0001) // =======================================================
(PID.TID 0000.0001) // Begin MONITOR ptracer field statistics
(PID.TID 0000.0001) // =======================================================
(PID.TID 0000.0001) %MON trcstat_ptracer01_max        =   0.0000000000000E+00
(PID.TID 0000.0001) %MON trcstat_ptracer01_min        =   0.0000000000000E+00
(PID.TID 0000.0001) %MON trcstat_ptracer01_mean       =   0.0000000000000E+00
(PID.TID 0000.0001) %MON trcstat_ptracer01_sd         =   0.0000000000000E+00
(PID.TID 0000.0001) %MON trcstat_ptracer01_del2       =   0.0000000000000E+00
(PID.TID 0000.0001) // =======================================================
(PID.TID 0000.0001) // End MONITOR ptracer field statistics
(PID.TID 0000.0001) // =======================================================
 EXTERNAL_FIELDS_LOAD,         0 : iP,iLd,i0,i1=   12    0   12    1 ; Wght=  0.5000000000  0.5000000000
 EXTERNAL_FIELDS_LOAD, it=         0 : Reading new data, i0,i1=   12    1 (prev=   12    0 )
(PID.TID 0000.0001)  MDS_READ_FIELD: opening global file: trenberth_taux.bin
(PID.TID 0000.0001)  MDS_READ_FIELD: opening global file: trenberth_taux.bin
(PID.TID 0000.0001)  MDS_READ_FIELD: opening global file: trenberth_tauy.bin
(PID.TID 0000.0001)  MDS_READ_FIELD: opening global file: trenberth_tauy.bin
(PID.TID 0000.0001)  MDS_READ_FIELD: opening global file: shiQnet_cs32.bin
(PID.TID 0000.0001)  MDS_READ_FIELD: opening global file: shiQnet_cs32.bin
(PID.TID 0000.0001)  MDS_READ_FIELD: opening global file: shiEmPR_cs32.bin
(PID.TID 0000.0001)  MDS_READ_FIELD: opening global file: shiEmPR_cs32.bin
(PID.TID 0000.0001)  MDS_READ_FIELD: opening global file: lev_surfT_cs_12m.bin
(PID.TID 0000.0001)  MDS_READ_FIELD: opening global file: lev_surfT_cs_12m.bin
(PID.TID 0000.0001)  MDS_READ_FIELD: opening global file: lev_surfS_cs_12m.bin
(PID.TID 0000.0001)  MDS_READ_FIELD: opening global file: lev_surfS_cs_12m.bin
(PID.TID 0000.0001) SOLVE_FOR_PRESSURE: putPmEinXvector =    F
(PID.TID 0000.0001) SOLVE_FOR_PRESSURE: oldFreeSurfTerm =    F
 cg2d: Sum(rhs),rhsMax =  -2.84217094304040E-14  6.08099353967481E+00
 EXTERNAL_FIELDS_LOAD,         1 : iP,iLd,i0,i1=   12    1   12    1 ; Wght=  0.4666666667  0.5333333333
 cg2d: Sum(rhs),rhsMax =   4.26325641456060E-14  6.13979113897832E+00
 EXTERNAL_FIELDS_LOAD,         2 : iP,iLd,i0,i1=   12    1   12    1 ; Wght=  0.4333333333  0.5666666667
 cg2d: Sum(rhs),rhsMax =  -1.56319401867222E-13  5.60272388210340E+00
 EXTERNAL_FIELDS_LOAD,         3 : iP,iLd,i0,i1=   12    1   12    1 ; Wght=  0.4000000000  0.6000000000
 cg2d: Sum(rhs),rhsMax =   0.00000000000000E+00  4.95732443653865E+00
 EXTERNAL_FIELDS_LOAD,         4 : iP,iLd,i0,i1=   12    1   12    1 ; Wght=  0.3666666667  0.6333333333
 cg2d: Sum(rhs),rhsMax =  -2.84217094304040E-14  4.17888872623812E+00
 EXTERNAL_FIELDS_LOAD,         5 : iP,iLd,i0,i1=   12    1   12    1 ; Wght=  0.3333333333  0.6666666667
 cg2d: Sum(rhs),rhsMax =  -8.52651282912120E-14  3.40442097338036E+00
 Compute Stats, Diag. #    23 "ETAN    " (list#  1) Parms "SM      M1      ", vol(  0 )= 3.639E+14
 Compute Stats, Diag. #    30 "UVEL    " (list#  1) Parms "UUR     MR      ", vol(  0 )= 1.231E+18
 Compute Stats, Diag. #    31 "VVEL    " (list#  1) Parms "VVR     MR      ", vol(  0 )= 1.243E+18
 Compute Stats, Diag. #    32 "WVEL    " (list#  1) Parms "WM      LR      ", vol(  0 )= 1.315E+18
 Compute Stats, Diag. #    26 "THETA   " (list#  1) Parms "SMR     MR      ", vol(  0 )= 1.340E+18
 EXTERNAL_FIELDS_LOAD,         6 : iP,iLd,i0,i1=   12    1   12    1 ; Wght=  0.3000000000  0.7000000000
 cg2d: Sum(rhs),rhsMax =  -5.68434188608080E-14  3.17516685523128E+00
 EXTERNAL_FIELDS_LOAD,         7 : iP,iLd,i0,i1=   12    1   12    1 ; Wght=  0.2666666667  0.7333333333
 cg2d: Sum(rhs),rhsMax =   1.42108547152020E-14  2.92130362722957E+00
 EXTERNAL_FIELDS_LOAD,         8 : iP,iLd,i0,i1=   12    1   12    1 ; Wght=  0.2333333333  0.7666666667
 cg2d: Sum(rhs),rhsMax =   1.42108547152020E-13  2.71363540729074E+00
 EXTERNAL_FIELDS_LOAD,         9 : iP,iLd,i0,i1=   12    1   12    1 ; Wght=  0.2000000000  0.8000000000
 cg2d: Sum(rhs),rhsMax =   5.68434188608080E-14  3.65877784209011E+00
 Computing Diagnostic #    79 "DRHODR  " (list#  1) Parms "SM      LR      ", Count=      10
 Computing Diagnostic #    64 "RHOAnoma" (list#  1) Parms "SMR     MR      ", Count=      10
 Computing Diagnostic #    80 "CONVADJ " (list#  1) Parms "SMR     LR      ", Count=      10
 Computing Diagnostic #   210 "GM_Kwx  " (list#  1) Parms "UM      LR      ", Count=      10
             Vector  Mate for "GM_Kwx  " :  Diagnostic #    211 "GM_Kwy  " exists
 Computing Diagnostic #   211 "GM_Kwy  " (list#  1) Parms "VM      LR      ", Count=      10
             Vector  Mate for "GM_Kwy  " :  Diagnostic #    210 "GM_Kwx  " exists
 Computing Diagnostic #   212 "GM_Kwz  " (list#  1) Parms "WM P    LR      ", Count=      10
 Computing Diagnostic #   213 "GM_PsiX " (list#  1) Parms "UU      LR      ", Count=      10
             Vector  Mate for "GM_PsiX " :  Diagnostic #    214 "GM_PsiY " exists
 Computing Diagnostic #   214 "GM_PsiY " (list#  1) Parms "VV      LR      ", Count=      10
             Vector  Mate for "GM_PsiY " :  Diagnostic #    213 "GM_PsiX " exists
 EXTERNAL_FIELDS_LOAD,        10 : iP,iLd,i0,i1=   12    1   12    1 ; Wght=  0.1666666667  0.8333333333
 cg2d: Sum(rhs),rhsMax =  -1.13686837721616E-13  4.46492861580984E+00
 EXTERNAL_FIELDS_LOAD,        11 : iP,iLd,i0,i1=   12    1   12    1 ; Wght=  0.1333333333  0.8666666667
 cg2d: Sum(rhs),rhsMax =   4.26325641456060E-14  5.10145967510674E+00
 EXTERNAL_FIELDS_LOAD,        12 : iP,iLd,i0,i1=   12    1   12    1 ; Wght=  0.1000000000  0.9000000000
 cg2d: Sum(rhs),rhsMax =   9.94759830064140E-14  5.55255071032443E+00
 EXTERNAL_FIELDS_LOAD,        13 : iP,iLd,i0,i1=   12    1   12    1 ; Wght=  0.0666666667  0.9333333333
 cg2d: Sum(rhs),rhsMax =   1.56319401867222E-13  5.80273275606364E+00
 EXTERNAL_FIELDS_LOAD,        14 : iP,iLd,i0,i1=   12    1   12    1 ; Wght=  0.0333333333  0.9666666667
 cg2d: Sum(rhs),rhsMax =   9.94759830064140E-14  5.85055250077897E+00
 EXTERNAL_FIELDS_LOAD,        15 : iP,iLd,i0,i1=   12    1    1    2 ; Wght=  1.0000000000  0.0000000000
 EXTERNAL_FIELDS_LOAD, it=        15 : Reading new data, i0,i1=    1    2 (prev=   12    1 )
(PID.TID 0000.0001)  MDS_READ_FIELD: opening global file: trenberth_taux.bin
(PID.TID 0000.0001)  MDS_READ_FIELD: opening global file: trenberth_taux.bin
(PID.TID 0000.0001)  MDS_READ_FIELD: opening global file: trenberth_tauy.bin
(PID.TID 0000.0001)  MDS_READ_FIELD: opening global file: trenberth_tauy.bin
(PID.TID 0000.0001)  MDS_READ_FIELD: opening global file: shiQnet_cs32.bin
(PID.TID 0000.0001)  MDS_READ_FIELD: opening global file: shiQnet_cs32.bin
(PID.TID 0000.0001)  MDS_READ_FIELD: opening global file: shiEmPR_cs32.bin
(PID.TID 0000.0001)  MDS_READ_FIELD: opening global file: shiEmPR_cs32.bin
(PID.TID 0000.0001)  MDS_READ_FIELD: opening global file: lev_surfT_cs_12m.bin
(PID.TID 0000.0001)  MDS_READ_FIELD: opening global file: lev_surfT_cs_12m.bin
(PID.TID 0000.0001)  MDS_READ_FIELD: opening global file: lev_surfS_cs_12m.bin
(PID.TID 0000.0001)  MDS_READ_FIELD: opening global file: lev_surfS_cs_12m.bin
 cg2d: Sum(rhs),rhsMax =   2.13162820728030E-13  5.70157193709188E+00
 Compute Stats, Diag. #    23 "ETAN    " (list#  1) Parms "SM      M1      ", vol(  0 )= 3.639E+14
 Compute Stats, Diag. #    30 "UVEL    " (list#  1) Parms "UUR     MR      ", vol(  0 )= 1.231E+18
 Compute Stats, Diag. #    31 "VVEL    " (list#  1) Parms "VVR     MR      ", vol(  0 )= 1.243E+18
 Compute Stats, Diag. #    32 "WVEL    " (list#  1) Parms "WM      LR      ", vol(  0 )= 1.315E+18
 Compute Stats, Diag. #    26 "THETA   " (list#  1) Parms "SMR     MR      ", vol(  0 )= 1.340E+18
 EXTERNAL_FIELDS_LOAD,        16 : iP,iLd,i0,i1=    1    2    1    2 ; Wght=  0.9666666667  0.0333333333
 cg2d: Sum(rhs),rhsMax =  -1.42108547152020E-14  5.49168102443453E+00
 EXTERNAL_FIELDS_LOAD,        17 : iP,iLd,i0,i1=    1    2    1    2 ; Wght=  0.9333333333  0.0666666667
 cg2d: Sum(rhs),rhsMax =   9.94759830064140E-14  5.67224614654976E+00
 EXTERNAL_FIELDS_LOAD,        18 : iP,iLd,i0,i1=    1    2    1    2 ; Wght=  0.9000000000  0.1000000000
 cg2d: Sum(rhs),rhsMax =   9.94759830064140E-14  5.72040801891478E+00
 EXTERNAL_FIELDS_LOAD,        19 : iP,iLd,i0,i1=    1    2    1    2 ; Wght=  0.8666666667  0.1333333333
 cg2d: Sum(rhs),rhsMax =  -2.84217094304040E-14  5.64251483365067E+00
 Computing Diagnostic #    79 "DRHODR  " (list#  1) Parms "SM      LR      ", Count=      10
 Computing Diagnostic #    64 "RHOAnoma" (list#  1) Parms "SMR     MR      ", Count=      10
 Computing Diagnostic #    80 "CONVADJ " (list#  1) Parms "SMR     LR      ", Count=      10
 Computing Diagnostic #   210 "GM_Kwx  " (list#  1) Parms "UM      LR      ", Count=      10
             Vector  Mate for "GM_Kwx  " :  Diagnostic #    211 "GM_Kwy  " exists
 Computing Diagnostic #   211 "GM_Kwy  " (list#  1) Parms "VM      LR      ", Count=      10
             Vector  Mate for "GM_Kwy  " :  Diagnostic #    210 "GM_Kwx  " exists
 Computing Diagnostic #   212 "GM_Kwz  " (list#  1) Parms "WM P    LR      ", Count=      10
 Computing Diagnostic #   213 "GM_PsiX " (list#  1) Parms "UU      LR      ", Count=      10
             Vector  Mate for "GM_PsiX " :  Diagnostic #    214 "GM_PsiY " exists
 Computing Diagnostic #   214 "GM_PsiY " (list#  1) Parms "VV      LR      ", Count=      10
             Vector  Mate for "GM_PsiY " :  Diagnostic #    213 "GM_PsiX " exists
 EXTERNAL_FIELDS_LOAD,        20 : iP,iLd,i0,i1=    1    2    1    2 ; Wght=  0.8333333333  0.1666666667
 cg2d: Sum(rhs),rhsMax =  -1.42108547152020E-14  5.44656846377657E+00
 EXTERNAL_FIELDS_LOAD,        21 : iP,iLd,i0,i1=    1    2    1    2 ; Wght=  0.8000000000  0.2000000000
 cg2d: Sum(rhs),rhsMax =  -9.94759830064140E-14  5.14194573955491E+00
 EXTERNAL_FIELDS_LOAD,        22 : iP,iLd,i0,i1=    1    2    1    2 ; Wght=  0.7666666667  0.2333333333
 cg2d: Sum(rhs),rhsMax =  -1.84741111297626E-13  4.73843831504861E+00
 EXTERNAL_FIELDS_LOAD,        23 : iP,iLd,i0,i1=    1    2    1    2 ; Wght=  0.7333333333  0.2666666667
 cg2d: Sum(rhs),rhsMax =   2.84217094304040E-14  4.24620122909149E+00
 EXTERNAL_FIELDS_LOAD,        24 : iP,iLd,i0,i1=    1    2    1    2 ; Wght=  0.7000000000  0.3000000000
 cg2d: Sum(rhs),rhsMax =   2.84217094304040E-14  3.67639445984817E+00
 EXTERNAL_FIELDS_LOAD,        25 : iP,iLd,i0,i1=    1    2    1    2 ; Wght=  0.6666666667  0.3333333333
 cg2d: Sum(rhs),rhsMax =   1.42108547152020E-13  3.04088639045410E+00
 Compute Stats, Diag. #    23 "ETAN    " (list#  1) Parms "SM      M1      ", vol(  0 )= 3.639E+14
 Compute Stats, Diag. #    30 "UVEL    " (list#  1) Parms "UUR     MR      ", vol(  0 )= 1.231E+18
 Compute Stats, Diag. #    31 "VVEL    " (list#  1) Parms "VVR     MR      ", vol(  0 )= 1.243E+18
 Compute Stats, Diag. #    32 "WVEL    " (list#  1) Parms "WM      LR      ", vol(  0 )= 1.315E+18
 Compute Stats, Diag. #    26 "THETA   " (list#  1) Parms "SMR     MR      ", vol(  0 )= 1.340E+18
 EXTERNAL_FIELDS_LOAD,        26 : iP,iLd,i0,i1=    1    2    1    2 ; Wght=  0.6333333333  0.3666666667
 cg2d: Sum(rhs),rhsMax =   0.00000000000000E+00  2.95759076862760E+00
 EXTERNAL_FIELDS_LOAD,        27 : iP,iLd,i0,i1=    1    2    1    2 ; Wght=  0.6000000000  0.4000000000
 cg2d: Sum(rhs),rhsMax =   7.10542735760100E-14  3.12966065642979E+00
 EXTERNAL_FIELDS_LOAD,        28 : iP,iLd,i0,i1=    1    2    1    2 ; Wght=  0.5666666667  0.4333333333
 cg2d: Sum(rhs),rhsMax =   4.26325641456060E-14  3.79648737785951E+00
 EXTERNAL_FIELDS_LOAD,        29 : iP,iLd,i0,i1=    1    2    1    2 ; Wght=  0.5333333333  0.4666666667
 cg2d: Sum(rhs),rhsMax =  -1.42108547152020E-14  4.39297918729921E+00
(PID.TID 0000.0001)      cg2d_init_res =   1.99050603744181E+00
(PID.TID 0000.0001)      cg2d_iters(min,last) =      -1      77
(PID.TID 0000.0001)      cg2d_last_res =   5.31846404697283E-07
(PID.TID 0000.0001) // =======================================================
(PID.TID 0000.0001) // Begin MONITOR dynamic field statistics
(PID.TID 0000.0001) // =======================================================
(PID.TID 0000.0001) %MON time_tsnumber                =                    30
(PID.TID 0000.0001) %MON time_secondsf                =   2.5920000000000E+06
(PID.TID 0000.0001) %MON dynstat_eta_max              =   1.1222497277817E+00
(PID.TID 0000.0001) %MON dynstat_eta_min              =  -1.4748294711807E+00
(PID.TID 0000.0001) %MON dynstat_eta_mean             =   8.2443235511784E-17
(PID.TID 0000.0001) %MON dynstat_eta_sd               =   5.7333942605771E-01
(PID.TID 0000.0001) %MON dynstat_eta_del2             =   6.3798495348908E-04
(PID.TID 0000.0001) %MON dynstat_uvel_max             =   1.9995003308569E-01
(PID.TID 0000.0001) %MON dynstat_uvel_min             =  -2.2718677261835E-01
(PID.TID 0000.0001) %MON dynstat_uvel_mean            =  -1.9543077697830E-04
(PID.TID 0000.0001) %MON dynstat_uvel_sd              =   1.3868348871144E-02
(PID.TID 0000.0001) %MON dynstat_uvel_del2            =   5.1993751838196E-05
(PID.TID 0000.0001) %MON dynstat_vvel_max             =   2.3322961401869E-01
(PID.TID 0000.0001) %MON dynstat_vvel_min             =  -1.8572424139964E-01
(PID.TID 0000.0001) %MON dynstat_vvel_mean            =   5.3762616388148E-05
(PID.TID 0000.0001) %MON dynstat_vvel_sd              =   1.4021198505566E-02
(PID.TID 0000.0001) %MON dynstat_vvel_del2            =   5.2240064564110E-05
(PID.TID 0000.0001) %MON dynstat_wvel_max             =   3.8471850135034E-04
(PID.TID 0000.0001) %MON dynstat_wvel_min             =  -2.2532824031195E-04
(PID.TID 0000.0001) %MON dynstat_wvel_mean            =  -6.4982748427181E-22
(PID.TID 0000.0001) %MON dynstat_wvel_sd              =   2.2783365496479E-05
(PID.TID 0000.0001) %MON dynstat_wvel_del2            =   1.5178933913153E-07
(PID.TID 0000.0001) %MON dynstat_theta_max            =   2.9778217936996E+01
(PID.TID 0000.0001) %MON dynstat_theta_min            =  -2.0065706153458E+00
(PID.TID 0000.0001) %MON dynstat_theta_mean           =   3.6048482845220E+00
(PID.TID 0000.0001) %MON dynstat_theta_sd             =   4.4434949331806E+00
(PID.TID 0000.0001) %MON dynstat_theta_del2           =   1.9488890276407E-03
(PID.TID 0000.0001) %MON dynstat_salt_max             =   4.0714363594395E+01
(PID.TID 0000.0001) %MON dynstat_salt_min             =   1.6707264292520E+01
(PID.TID 0000.0001) %MON dynstat_salt_mean            =   3.4721362930216E+01
(PID.TID 0000.0001) %MON dynstat_salt_sd              =   4.8925947478601E-01
(PID.TID 0000.0001) %MON dynstat_salt_del2            =   5.1260110682018E-04
(PID.TID 0000.0001) %MON forcing_qnet_max             =   4.2693997077631E+02
(PID.TID 0000.0001) %MON forcing_qnet_min             =  -1.9343616982889E+02
(PID.TID 0000.0001) %MON forcing_qnet_mean            =  -1.2968551416263E+01
(PID.TID 0000.0001) %MON forcing_qnet_sd              =   9.9492223300472E+01
(PID.TID 0000.0001) %MON forcing_qnet_del2            =   4.2364946540961E-01
(PID.TID 0000.0001) %MON forcing_qsw_max              =   0.0000000000000E+00
(PID.TID 0000.0001) %MON forcing_qsw_min              =   0.0000000000000E+00
(PID.TID 0000.0001) %MON forcing_qsw_mean             =   0.0000000000000E+00
(PID.TID 0000.0001) %MON forcing_qsw_sd               =   0.0000000000000E+00
(PID.TID 0000.0001) %MON forcing_qsw_del2             =   0.0000000000000E+00
(PID.TID 0000.0001) %MON forcing_empmr_max            =   7.6494447208479E-05
(PID.TID 0000.0001) %MON forcing_empmr_min            =  -1.5362614137596E-04
(PID.TID 0000.0001) %MON forcing_empmr_mean           =  -2.7256318706594E-21
(PID.TID 0000.0001) %MON forcing_empmr_sd             =   2.4051723601802E-05
(PID.TID 0000.0001) %MON forcing_empmr_del2           =   1.2276157049243E-07
(PID.TID 0000.0001) %MON forcing_fu_max               =   2.4203671674909E-01
(PID.TID 0000.0001) %MON forcing_fu_min               =  -1.9431438996982E-01
(PID.TID 0000.0001) %MON forcing_fu_mean              =  -4.3454983033901E-03
(PID.TID 0000.0001) %MON forcing_fu_sd                =   6.3991651081989E-02
(PID.TID 0000.0001) %MON forcing_fu_del2              =   2.0330644295017E-04
(PID.TID 0000.0001) %MON forcing_fv_max               =   2.8181226170264E-01
(PID.TID 0000.0001) %MON forcing_fv_min               =  -2.9135458178179E-01
(PID.TID 0000.0001) %MON forcing_fv_mean              =  -1.3718324798732E-02
(PID.TID 0000.0001) %MON forcing_fv_sd                =   7.4616601676114E-02
(PID.TID 0000.0001) %MON forcing_fv_del2              =   2.3832796041755E-04
(PID.TID 0000.0001) %MON trAdv_CFL_u_max              =   1.7407735649525E-01
(PID.TID 0000.0001) %MON trAdv_CFL_v_max              =   1.2503580726599E-01
(PID.TID 0000.0001) %MON trAdv_CFL_w_max              =   1.8096620892809E-01
(PID.TID 0000.0001) %MON advcfl_uvel_max              =   9.0154250850794E-02
(PID.TID 0000.0001) %MON advcfl_vvel_max              =   1.0018799958826E-01
(PID.TID 0000.0001) %MON advcfl_wvel_max              =   1.4992495062947E-01
(PID.TID 0000.0001) %MON advcfl_W_hf_max              =   1.8205172576436E-01
(PID.TID 0000.0001) %MON pe_b_mean                    =   4.3791325165234E-04
(PID.TID 0000.0001) %MON ke_max                       =   2.5502834884435E-02
(PID.TID 0000.0001) %MON ke_mean                      =   1.7958012322806E-04
(PID.TID 0000.0001) %MON ke_vol                       =   1.3398024453628E+18
(PID.TID 0000.0001) %MON vort_r_min                   =  -1.2512181955932E-06
(PID.TID 0000.0001) %MON vort_r_max                   =   1.6944545397935E-06
(PID.TID 0000.0001) %MON vort_a_mean                  =  -2.0549865324846E-05
(PID.TID 0000.0001) %MON vort_a_sd                    =   7.5259283390400E-05
(PID.TID 0000.0001) %MON vort_p_mean                  =  -2.4783522345032E-05
(PID.TID 0000.0001) %MON vort_p_sd                    =   1.2810212792544E-04
(PID.TID 0000.0001) %MON surfExpan_theta_mean         =  -4.8638518865648E-07
(PID.TID 0000.0001) %MON surfExpan_salt_mean          =   4.2410077396065E-08
(PID.TID 0000.0001) // =======================================================
(PID.TID 0000.0001) // End MONITOR dynamic field statistics
(PID.TID 0000.0001) // =======================================================
(PID.TID 0000.0001) // =======================================================
(PID.TID 0000.0001) // Begin MONITOR ptracer field statistics
(PID.TID 0000.0001) // =======================================================
(PID.TID 0000.0001) %MON trcstat_ptracer01_max        =   2.5988319828157E+06
(PID.TID 0000.0001) %MON trcstat_ptracer01_min        =  -1.2283338263549E+05
(PID.TID 0000.0001) %MON trcstat_ptracer01_mean       =   2.5562963163559E+06
(PID.TID 0000.0001) %MON trcstat_ptracer01_sd         =   2.8559848310661E+05
(PID.TID 0000.0001) %MON trcstat_ptracer01_del2       =   5.8084342467255E+02
(PID.TID 0000.0001) // =======================================================
(PID.TID 0000.0001) // End MONITOR ptracer field statistics
(PID.TID 0000.0001) // =======================================================
 Computing Diagnostic #    79 "DRHODR  " (list#  1) Parms "SM      LR      ", Count=      10
 Computing Diagnostic #    64 "RHOAnoma" (list#  1) Parms "SMR     MR      ", Count=      10
 Computing Diagnostic #    80 "CONVADJ " (list#  1) Parms "SMR     LR      ", Count=      10
 Computing Diagnostic #   210 "GM_Kwx  " (list#  1) Parms "UM      LR      ", Count=      10
             Vector  Mate for "GM_Kwx  " :  Diagnostic #    211 "GM_Kwy  " exists
 Computing Diagnostic #   211 "GM_Kwy  " (list#  1) Parms "VM      LR      ", Count=      10
             Vector  Mate for "GM_Kwy  " :  Diagnostic #    210 "GM_Kwx  " exists
 Computing Diagnostic #   212 "GM_Kwz  " (list#  1) Parms "WM P    LR      ", Count=      10
 Computing Diagnostic #   213 "GM_PsiX " (list#  1) Parms "UU      LR      ", Count=      10
             Vector  Mate for "GM_PsiX " :  Diagnostic #    214 "GM_PsiY " exists
 Computing Diagnostic #   214 "GM_PsiY " (list#  1) Parms "VV      LR      ", Count=      10
             Vector  Mate for "GM_PsiY " :  Diagnostic #    213 "GM_PsiX " exists
 EXTERNAL_FIELDS_LOAD,        30 : iP,iLd,i0,i1=    1    2    1    2 ; Wght=  0.5000000000  0.5000000000
 cg2d: Sum(rhs),rhsMax =  -4.26325641456060E-14  4.91343223310849E+00
 EXTERNAL_FIELDS_LOAD,        31 : iP,iLd,i0,i1=    1    2    1    2 ; Wght=  0.4666666667  0.5333333333
 cg2d: Sum(rhs),rhsMax =   1.13686837721616E-13  5.35278995867238E+00
 EXTERNAL_FIELDS_LOAD,        32 : iP,iLd,i0,i1=    1    2    1    2 ; Wght=  0.4333333333  0.5666666667
 cg2d: Sum(rhs),rhsMax =   1.42108547152020E-14  5.70644376533275E+00
 EXTERNAL_FIELDS_LOAD,        33 : iP,iLd,i0,i1=    1    2    1    2 ; Wght=  0.4000000000  0.6000000000
 cg2d: Sum(rhs),rhsMax =  -1.84741111297626E-13  5.97015298760790E+00
 EXTERNAL_FIELDS_LOAD,        34 : iP,iLd,i0,i1=    1    2    1    2 ; Wght=  0.3666666667  0.6333333333
 cg2d: Sum(rhs),rhsMax =   1.42108547152020E-14  6.13984851201696E+00
 EXTERNAL_FIELDS_LOAD,        35 : iP,iLd,i0,i1=    1    2    1    2 ; Wght=  0.3333333333  0.6666666667
 cg2d: Sum(rhs),rhsMax =   1.42108547152020E-13  6.21191779114332E+00
 Compute Stats, Diag. #    23 "ETAN    " (list#  1) Parms "SM      M1      ", vol(  0 )= 3.639E+14
 Compute Stats, Diag. #    30 "UVEL    " (list#  1) Parms "UUR     MR      ", vol(  0 )= 1.231E+18
 Compute Stats, Diag. #    31 "VVEL    " (list#  1) Parms "VVR     MR      ", vol(  0 )= 1.243E+18
 Compute Stats, Diag. #    32 "WVEL    " (list#  1) Parms "WM      LR      ", vol(  0 )= 1.315E+18
 Compute Stats, Diag. #    26 "THETA   " (list#  1) Parms "SMR     MR      ", vol(  0 )= 1.340E+18
 EXTERNAL_FIELDS_LOAD,        36 : iP,iLd,i0,i1=    1    2    1    2 ; Wght=  0.3000000000  0.7000000000
 cg2d: Sum(rhs),rhsMax =  -5.68434188608080E-14  6.18333973867756E+00
 EXTERNAL_FIELDS_LOAD,        37 : iP,iLd,i0,i1=    1    2    1    2 ; Wght=  0.2666666667  0.7333333333
 cg2d: Sum(rhs),rhsMax =   1.27897692436818E-13  6.05198191342560E+00
 EXTERNAL_FIELDS_LOAD,        38 : iP,iLd,i0,i1=    1    2    1    2 ; Wght=  0.2333333333  0.7666666667
 cg2d: Sum(rhs),rhsMax =  -1.27897692436818E-13  5.81655956956032E+00
 EXTERNAL_FIELDS_LOAD,        39 : iP,iLd,i0,i1=    1    2    1    2 ; Wght=  0.2000000000  0.8000000000
 cg2d: Sum(rhs),rhsMax =   1.42108547152020E-14  5.47725477718382E+00
 Computing Diagnostic #    79 "DRHODR  " (list#  1) Parms "SM      LR      ", Count=      10
 Computing Diagnostic #    64 "RHOAnoma" (list#  1) Parms "SMR     MR      ", Count=      10
 Computing Diagnostic #    80 "CONVADJ " (list#  1) Parms "SMR     LR      ", Count=      10
 Computing Diagnostic #   210 "GM_Kwx  " (list#  1) Parms "UM      LR      ", Count=      10
             Vector  Mate for "GM_Kwx  " :  Diagnostic #    211 "GM_Kwy  " exists
 Computing Diagnostic #   211 "GM_Kwy  " (list#  1) Parms "VM      LR      ", Count=      10
             Vector  Mate for "GM_Kwy  " :  Diagnostic #    210 "GM_Kwx  " exists
 Computing Diagnostic #   212 "GM_Kwz  " (list#  1) Parms "WM P    LR      ", Count=      10
 Computing Diagnostic #   213 "GM_PsiX " (list#  1) Parms "UU      LR      ", Count=      10
             Vector  Mate for "GM_PsiX " :  Diagnostic #    214 "GM_PsiY " exists
 Computing Diagnostic #   214 "GM_PsiY " (list#  1) Parms "VV      LR      ", Count=      10
             Vector  Mate for "GM_PsiY " :  Diagnostic #    213 "GM_PsiX " exists
 EXTERNAL_FIELDS_LOAD,        40 : iP,iLd,i0,i1=    1    2    1    2 ; Wght=  0.1666666667  0.8333333333
 cg2d: Sum(rhs),rhsMax =  -7.10542735760100E-14  5.26011481555658E+00
 EXTERNAL_FIELDS_LOAD,        41 : iP,iLd,i0,i1=    1    2    1    2 ; Wght=  0.1333333333  0.8666666667
 cg2d: Sum(rhs),rhsMax =   2.84217094304040E-14  5.24049390295844E+00
 EXTERNAL_FIELDS_LOAD,        42 : iP,iLd,i0,i1=    1    2    1    2 ; Wght=  0.1000000000  0.9000000000
 cg2d: Sum(rhs),rhsMax =  -2.84217094304040E-14  5.12202295562796E+00
 EXTERNAL_FIELDS_LOAD,        43 : iP,iLd,i0,i1=    1    2    1    2 ; Wght=  0.0666666667  0.9333333333
 cg2d: Sum(rhs),rhsMax =   2.13162820728030E-13  4.90817440588712E+00
 EXTERNAL_FIELDS_LOAD,        44 : iP,iLd,i0,i1=    1    2    1    2 ; Wght=  0.0333333333  0.9666666667
 cg2d: Sum(rhs),rhsMax =   0.00000000000000E+00  4.60443056825579E+00
 EXTERNAL_FIELDS_LOAD,        45 : iP,iLd,i0,i1=    1    2    2    3 ; Wght=  1.0000000000  0.0000000000
 EXTERNAL_FIELDS_LOAD, it=        45 : Reading new data, i0,i1=    2    3 (prev=    1    2 )
(PID.TID 0000.0001)  MDS_READ_FIELD: opening global file: trenberth_taux.bin
(PID.TID 0000.0001)  MDS_READ_FIELD: opening global file: trenberth_taux.bin
(PID.TID 0000.0001)  MDS_READ_FIELD: opening global file: trenberth_tauy.bin
(PID.TID 0000.0001)  MDS_READ_FIELD: opening global file: trenberth_tauy.bin
(PID.TID 0000.0001)  MDS_READ_FIELD: opening global file: shiQnet_cs32.bin
(PID.TID 0000.0001)  MDS_READ_FIELD: opening global file: shiQnet_cs32.bin
(PID.TID 0000.0001)  MDS_READ_FIELD: opening global file: shiEmPR_cs32.bin
(PID.TID 0000.0001)  MDS_READ_FIELD: opening global file: shiEmPR_cs32.bin
(PID.TID 0000.0001)  MDS_READ_FIELD: opening global file: lev_surfT_cs_12m.bin
(PID.TID 0000.0001)  MDS_READ_FIELD: opening global file: lev_surfT_cs_12m.bin
(PID.TID 0000.0001)  MDS_READ_FIELD: opening global file: lev_surfS_cs_12m.bin
(PID.TID 0000.0001)  MDS_READ_FIELD: opening global file: lev_surfS_cs_12m.bin
 cg2d: Sum(rhs),rhsMax =   4.26325641456060E-14  4.21969250417095E+00
 Compute Stats, Diag. #    23 "ETAN    " (list#  1) Parms "SM      M1      ", vol(  0 )= 3.639E+14
 Compute Stats, Diag. #    30 "UVEL    " (list#  1) Parms "UUR     MR      ", vol(  0 )= 1.231E+18
 Compute Stats, Diag. #    31 "VVEL    " (list#  1) Parms "VVR     MR      ", vol(  0 )= 1.243E+18
 Compute Stats, Diag. #    32 "WVEL    " (list#  1) Parms "WM      LR      ", vol(  0 )= 1.315E+18
 Compute Stats, Diag. #    26 "THETA   " (list#  1) Parms "SMR     MR      ", vol(  0 )= 1.340E+18
 EXTERNAL_FIELDS_LOAD,        46 : iP,iLd,i0,i1=    2    3    2    3 ; Wght=  0.9666666667  0.0333333333
 cg2d: Sum(rhs),rhsMax =  -5.68434188608080E-14  3.80152391229434E+00
 EXTERNAL_FIELDS_LOAD,        47 : iP,iLd,i0,i1=    2    3    2    3 ; Wght=  0.9333333333  0.0666666667
 cg2d: Sum(rhs),rhsMax =   1.42108547152020E-14  3.77353050689368E+00
 EXTERNAL_FIELDS_LOAD,        48 : iP,iLd,i0,i1=    2    3    2    3 ; Wght=  0.9000000000  0.1000000000
 cg2d: Sum(rhs),rhsMax =   1.27897692436818E-13  3.74140044929904E+00
 EXTERNAL_FIELDS_LOAD,        49 : iP,iLd,i0,i1=    2    3    2    3 ; Wght=  0.8666666667  0.1333333333
 cg2d: Sum(rhs),rhsMax =  -5.68434188608080E-14  3.70652754072055E+00
 Computing Diagnostic #    79 "DRHODR  " (list#  1) Parms "SM      LR      ", Count=      10
 Computing Diagnostic #    64 "RHOAnoma" (list#  1) Parms "SMR     MR      ", Count=      10
 Computing Diagnostic #    80 "CONVADJ " (list#  1) Parms "SMR     LR      ", Count=      10
 Computing Diagnostic #   210 "GM_Kwx  " (list#  1) Parms "UM      LR      ", Count=      10
             Vector  Mate for "GM_Kwx  " :  Diagnostic #    211 "GM_Kwy  " exists
 Computing Diagnostic #   211 "GM_Kwy  " (list#  1) Parms "VM      LR      ", Count=      10
             Vector  Mate for "GM_Kwy  " :  Diagnostic #    210 "GM_Kwx  " exists
 Computing Diagnostic #   212 "GM_Kwz  " (list#  1) Parms "WM P    LR      ", Count=      10
 Computing Diagnostic #   213 "GM_PsiX " (list#  1) Parms "UU      LR      ", Count=      10
             Vector  Mate for "GM_PsiX " :  Diagnostic #    214 "GM_PsiY " exists
 Computing Diagnostic #   214 "GM_PsiY " (list#  1) Parms "VV      LR      ", Count=      10
             Vector  Mate for "GM_PsiY " :  Diagnostic #    213 "GM_PsiX " exists
 EXTERNAL_FIELDS_LOAD,        50 : iP,iLd,i0,i1=    2    3    2    3 ; Wght=  0.8333333333  0.1666666667
 cg2d: Sum(rhs),rhsMax =   4.26325641456060E-14  3.67030028046170E+00
 EXTERNAL_FIELDS_LOAD,        51 : iP,iLd,i0,i1=    2    3    2    3 ; Wght=  0.8000000000  0.2000000000
 cg2d: Sum(rhs),rhsMax =  -5.68434188608080E-14  3.63405740606077E+00
 EXTERNAL_FIELDS_LOAD,        52 : iP,iLd,i0,i1=    2    3    2    3 ; Wght=  0.7666666667  0.2333333333
 cg2d: Sum(rhs),rhsMax =  -8.52651282912120E-14  3.95472310527575E+00
 EXTERNAL_FIELDS_LOAD,        53 : iP,iLd,i0,i1=    2    3    2    3 ; Wght=  0.7333333333  0.2666666667
 cg2d: Sum(rhs),rhsMax =   0.00000000000000E+00  4.44780078479465E+00
 EXTERNAL_FIELDS_LOAD,        54 : iP,iLd,i0,i1=    2    3    2    3 ; Wght=  0.7000000000  0.3000000000
 cg2d: Sum(rhs),rhsMax =   7.10542735760100E-14  4.82185500066893E+00
 EXTERNAL_FIELDS_LOAD,        55 : iP,iLd,i0,i1=    2    3    2    3 ; Wght=  0.6666666667  0.3333333333
 cg2d: Sum(rhs),rhsMax =   0.00000000000000E+00  5.07115322389723E+00
 Compute Stats, Diag. #    23 "ETAN    " (list#  1) Parms "SM      M1      ", vol(  0 )= 3.639E+14
 Compute Stats, Diag. #    30 "UVEL    " (list#  1) Parms "UUR     MR      ", vol(  0 )= 1.231E+18
 Compute Stats, Diag. #    31 "VVEL    " (list#  1) Parms "VVR     MR      ", vol(  0 )= 1.243E+18
 Compute Stats, Diag. #    32 "WVEL    " (list#  1) Parms "WM      LR      ", vol(  0 )= 1.315E+18
 Compute Stats, Diag. #    26 "THETA   " (list#  1) Parms "SMR     MR      ", vol(  0 )= 1.340E+18
 EXTERNAL_FIELDS_LOAD,        56 : iP,iLd,i0,i1=    2    3    2    3 ; Wght=  0.6333333333  0.3666666667
 cg2d: Sum(rhs),rhsMax =   1.56319401867222E-13  5.19439556163448E+00
 EXTERNAL_FIELDS_LOAD,        57 : iP,iLd,i0,i1=    2    3    2    3 ; Wght=  0.6000000000  0.4000000000
 cg2d: Sum(rhs),rhsMax =  -4.26325641456060E-14  5.19456612432208E+00
 EXTERNAL_FIELDS_LOAD,        58 : iP,iLd,i0,i1=    2    3    2    3 ; Wght=  0.5666666667  0.4333333333
 cg2d: Sum(rhs),rhsMax =   2.84217094304040E-14  5.07858979755033E+00
 EXTERNAL_FIELDS_LOAD,        59 : iP,iLd,i0,i1=    2    3    2    3 ; Wght=  0.5333333333  0.4666666667
 cg2d: Sum(rhs),rhsMax =  -4.26325641456060E-14  4.85686346101630E+00
(PID.TID 0000.0001)      cg2d_init_res =   1.35822600795100E+00
(PID.TID 0000.0001)      cg2d_iters(min,last) =      -1      75
(PID.TID 0000.0001)      cg2d_last_res =   4.90837843353122E-07
(PID.TID 0000.0001) // =======================================================
(PID.TID 0000.0001) // Begin MONITOR dynamic field statistics
(PID.TID 0000.0001) // =======================================================
(PID.TID 0000.0001) %MON time_tsnumber                =                    60
(PID.TID 0000.0001) %MON time_secondsf                =   5.1840000000000E+06
(PID.TID 0000.0001) %MON dynstat_eta_max              =   1.0394276966403E+00
(PID.TID 0000.0001) %MON dynstat_eta_min              =  -1.6068784899058E+00
(PID.TID 0000.0001) %MON dynstat_eta_mean             =  -9.6183774763748E-17
(PID.TID 0000.0001) %MON dynstat_eta_sd               =   5.8426582704127E-01
(PID.TID 0000.0001) %MON dynstat_eta_del2             =   7.2646142631090E-04
(PID.TID 0000.0001) %MON dynstat_uvel_max             =   1.5494802818481E-01
(PID.TID 0000.0001) %MON dynstat_uvel_min             =  -2.6935079047929E-01
(PID.TID 0000.0001) %MON dynstat_uvel_mean            =  -3.6852770488660E-04
(PID.TID 0000.0001) %MON dynstat_uvel_sd              =   1.2347102994284E-02
(PID.TID 0000.0001) %MON dynstat_uvel_del2            =   5.4019239108772E-05
(PID.TID 0000.0001) %MON dynstat_vvel_max             =   1.9496006285281E-01
(PID.TID 0000.0001) %MON dynstat_vvel_min             =  -1.6442452425575E-01
(PID.TID 0000.0001) %MON dynstat_vvel_mean            =  -4.2973797325387E-04
(PID.TID 0000.0001) %MON dynstat_vvel_sd              =   1.2929393436437E-02
(PID.TID 0000.0001) %MON dynstat_vvel_del2            =   5.1893805087911E-05
(PID.TID 0000.0001) %MON dynstat_wvel_max             =   5.2082789355726E-04
(PID.TID 0000.0001) %MON dynstat_wvel_min             =  -2.5482721433427E-04
(PID.TID 0000.0001) %MON dynstat_wvel_mean            =  -2.0423149505685E-21
(PID.TID 0000.0001) %MON dynstat_wvel_sd              =   1.7867084331973E-05
(PID.TID 0000.0001) %MON dynstat_wvel_del2            =   1.2200220288239E-07
(PID.TID 0000.0001) %MON dynstat_theta_max            =   3.0574764298877E+01
(PID.TID 0000.0001) %MON dynstat_theta_min            =  -2.4012852462720E+00
(PID.TID 0000.0001) %MON dynstat_theta_mean           =   3.6077080262389E+00
(PID.TID 0000.0001) %MON dynstat_theta_sd             =   4.4549427953900E+00
(PID.TID 0000.0001) %MON dynstat_theta_del2           =   2.1820957093922E-03
(PID.TID 0000.0001) %MON dynstat_salt_max             =   4.0712355849842E+01
(PID.TID 0000.0001) %MON dynstat_salt_min             =   1.8210114626660E+01
(PID.TID 0000.0001) %MON dynstat_salt_mean            =   3.4721331990671E+01
(PID.TID 0000.0001) %MON dynstat_salt_sd              =   4.8945845837771E-01
(PID.TID 0000.0001) %MON dynstat_salt_del2            =   5.7400233226098E-04
(PID.TID 0000.0001) %MON forcing_qnet_max             =   3.3042634335178E+02
(PID.TID 0000.0001) %MON forcing_qnet_min             =  -1.7660851259454E+02
(PID.TID 0000.0001) %MON forcing_qnet_mean            =  -1.0852729938019E+01
(PID.TID 0000.0001) %MON forcing_qnet_sd              =   7.0657056700312E+01
(PID.TID 0000.0001) %MON forcing_qnet_del2            =   4.2814957942894E-01
(PID.TID 0000.0001) %MON forcing_qsw_max              =   0.0000000000000E+00
(PID.TID 0000.0001) %MON forcing_qsw_min              =   0.0000000000000E+00
(PID.TID 0000.0001) %MON forcing_qsw_mean             =   0.0000000000000E+00
(PID.TID 0000.0001) %MON forcing_qsw_sd               =   0.0000000000000E+00
(PID.TID 0000.0001) %MON forcing_qsw_del2             =   0.0000000000000E+00
(PID.TID 0000.0001) %MON forcing_empmr_max            =   7.6494447208479E-05
(PID.TID 0000.0001) %MON forcing_empmr_min            =  -1.5362614137596E-04
(PID.TID 0000.0001) %MON forcing_empmr_mean           =  -2.7256318706594E-21
(PID.TID 0000.0001) %MON forcing_empmr_sd             =   2.4051723601802E-05
(PID.TID 0000.0001) %MON forcing_empmr_del2           =   1.2276157049243E-07
(PID.TID 0000.0001) %MON forcing_fu_max               =   2.5900680920623E-01
(PID.TID 0000.0001) %MON forcing_fu_min               =  -2.7674482002417E-01
(PID.TID 0000.0001) %MON forcing_fu_mean              =  -6.6071708361519E-03
(PID.TID 0000.0001) %MON forcing_fu_sd                =   6.6479507797018E-02
(PID.TID 0000.0001) %MON forcing_fu_del2              =   2.0283374775688E-04
(PID.TID 0000.0001) %MON forcing_fv_max               =   2.5607026525915E-01
(PID.TID 0000.0001) %MON forcing_fv_min               =  -3.1974616055058E-01
(PID.TID 0000.0001) %MON forcing_fv_mean              =  -1.3204626201289E-02
(PID.TID 0000.0001) %MON forcing_fv_sd                =   7.6035559339825E-02
(PID.TID 0000.0001) %MON forcing_fv_del2              =   2.3251705072657E-04
(PID.TID 0000.0001) %MON trAdv_CFL_u_max              =   8.0243474885792E-02
(PID.TID 0000.0001) %MON trAdv_CFL_v_max              =   8.5491350577557E-02
(PID.TID 0000.0001) %MON trAdv_CFL_w_max              =   1.0317773685541E-01
(PID.TID 0000.0001) %MON advcfl_uvel_max              =   7.6642944636543E-02
(PID.TID 0000.0001) %MON advcfl_vvel_max              =   7.6646810327788E-02
(PID.TID 0000.0001) %MON advcfl_wvel_max              =   9.6773182802897E-02
(PID.TID 0000.0001) %MON advcfl_W_hf_max              =   1.0364480400295E-01
(PID.TID 0000.0001) %MON pe_b_mean                    =   4.5476333666063E-04
(PID.TID 0000.0001) %MON ke_max                       =   2.4104182535328E-02
(PID.TID 0000.0001) %MON ke_mean                      =   1.4774552073238E-04
(PID.TID 0000.0001) %MON ke_vol                       =   1.3398024453628E+18
(PID.TID 0000.0001) %MON vort_r_min                   =  -1.3565958702123E-06
(PID.TID 0000.0001) %MON vort_r_max                   =   1.0149503517859E-06
(PID.TID 0000.0001) %MON vort_a_mean                  =  -2.0549865324846E-05
(PID.TID 0000.0001) %MON vort_a_sd                    =   7.5259446378468E-05
(PID.TID 0000.0001) %MON vort_p_mean                  =  -2.4783522345032E-05
(PID.TID 0000.0001) %MON vort_p_sd                    =   1.2810294315991E-04
(PID.TID 0000.0001) %MON surfExpan_theta_mean         =   4.2724855337769E-07
(PID.TID 0000.0001) %MON surfExpan_salt_mean          =   1.9680667362924E-08
(PID.TID 0000.0001) // =======================================================
(PID.TID 0000.0001) // End MONITOR dynamic field statistics
(PID.TID 0000.0001) // =======================================================
(PID.TID 0000.0001) // =======================================================
(PID.TID 0000.0001) // Begin MONITOR ptracer field statistics
(PID.TID 0000.0001) // =======================================================
(PID.TID 0000.0001) %MON trcstat_ptracer01_max        =   5.2073266671472E+06
(PID.TID 0000.0001) %MON trcstat_ptracer01_min        =  -1.7672959880068E+05
(PID.TID 0000.0001) %MON trcstat_ptracer01_mean       =   5.1085401435842E+06
(PID.TID 0000.0001) %MON trcstat_ptracer01_sd         =   5.6209846274770E+05
(PID.TID 0000.0001) %MON trcstat_ptracer01_del2       =   1.2030677694457E+03
(PID.TID 0000.0001) // =======================================================
(PID.TID 0000.0001) // End MONITOR ptracer field statistics
(PID.TID 0000.0001) // =======================================================
 Computing Diagnostic #    79 "DRHODR  " (list#  1) Parms "SM      LR      ", Count=      10
 Computing Diagnostic #    64 "RHOAnoma" (list#  1) Parms "SMR     MR      ", Count=      10
 Computing Diagnostic #    80 "CONVADJ " (list#  1) Parms "SMR     LR      ", Count=      10
 Computing Diagnostic #   210 "GM_Kwx  " (list#  1) Parms "UM      LR      ", Count=      10
             Vector  Mate for "GM_Kwx  " :  Diagnostic #    211 "GM_Kwy  " exists
 Computing Diagnostic #   211 "GM_Kwy  " (list#  1) Parms "VM      LR      ", Count=      10
             Vector  Mate for "GM_Kwy  " :  Diagnostic #    210 "GM_Kwx  " exists
 Computing Diagnostic #   212 "GM_Kwz  " (list#  1) Parms "WM P    LR      ", Count=      10
 Computing Diagnostic #   213 "GM_PsiX " (list#  1) Parms "UU      LR      ", Count=      10
             Vector  Mate for "GM_PsiX " :  Diagnostic #    214 "GM_PsiY " exists
 Computing Diagnostic #   214 "GM_PsiY " (list#  1) Parms "VV      LR      ", Count=      10
             Vector  Mate for "GM_PsiY " :  Diagnostic #    213 "GM_PsiX " exists
 EXTERNAL_FIELDS_LOAD,        60 : iP,iLd,i0,i1=    2    3    2    3 ; Wght=  0.5000000000  0.5000000000
 cg2d: Sum(rhs),rhsMax =  -7.10542735760100E-14  4.54263852955198E+00
 EXTERNAL_FIELDS_LOAD,        61 : iP,iLd,i0,i1=    2    3    2    3 ; Wght=  0.4666666667  0.5333333333
 cg2d: Sum(rhs),rhsMax =   2.41584530158434E-13  4.15128904978816E+00
 EXTERNAL_FIELDS_LOAD,        62 : iP,iLd,i0,i1=    2    3    2    3 ; Wght=  0.4333333333  0.5666666667
 cg2d: Sum(rhs),rhsMax =  -9.94759830064140E-14  3.69967535000448E+00
 EXTERNAL_FIELDS_LOAD,        63 : iP,iLd,i0,i1=    2    3    2    3 ; Wght=  0.4000000000  0.6000000000
 cg2d: Sum(rhs),rhsMax =  -5.68434188608080E-14  3.53105279132026E+00
 EXTERNAL_FIELDS_LOAD,        64 : iP,iLd,i0,i1=    2    3    2    3 ; Wght=  0.3666666667  0.6333333333
 cg2d: Sum(rhs),rhsMax =   1.13686837721616E-13  3.56283508336147E+00
 EXTERNAL_FIELDS_LOAD,        65 : iP,iLd,i0,i1=    2    3    2    3 ; Wght=  0.3333333333  0.6666666667
 cg2d: Sum(rhs),rhsMax =  -9.94759830064140E-14  3.64459007022618E+00
 Compute Stats, Diag. #    23 "ETAN    " (list#  1) Parms "SM      M1      ", vol(  0 )= 3.639E+14
 Compute Stats, Diag. #    30 "UVEL    " (list#  1) Parms "UUR     MR      ", vol(  0 )= 1.231E+18
 Compute Stats, Diag. #    31 "VVEL    " (list#  1) Parms "VVR     MR      ", vol(  0 )= 1.243E+18
 Compute Stats, Diag. #    32 "WVEL    " (list#  1) Parms "WM      LR      ", vol(  0 )= 1.315E+18
 Compute Stats, Diag. #    26 "THETA   " (list#  1) Parms "SMR     MR      ", vol(  0 )= 1.340E+18
 EXTERNAL_FIELDS_LOAD,        66 : iP,iLd,i0,i1=    2    3    2    3 ; Wght=  0.3000000000  0.7000000000
 cg2d: Sum(rhs),rhsMax =  -2.84217094304040E-14  3.91435336775423E+00
 EXTERNAL_FIELDS_LOAD,        67 : iP,iLd,i0,i1=    2    3    2    3 ; Wght=  0.2666666667  0.7333333333
 cg2d: Sum(rhs),rhsMax =   4.26325641456060E-14  4.07508932733330E+00
 EXTERNAL_FIELDS_LOAD,        68 : iP,iLd,i0,i1=    2    3    2    3 ; Wght=  0.2333333333  0.7666666667
 cg2d: Sum(rhs),rhsMax =   7.10542735760100E-14  4.12336097321994E+00
 EXTERNAL_FIELDS_LOAD,        69 : iP,iLd,i0,i1=    2    3    2    3 ; Wght=  0.2000000000  0.8000000000
 cg2d: Sum(rhs),rhsMax =  -9.94759830064140E-14  4.06019873623373E+00
 Computing Diagnostic #    79 "DRHODR  " (list#  1) Parms "SM      LR      ", Count=      10
 Computing Diagnostic #    64 "RHOAnoma" (list#  1) Parms "SMR     MR      ", Count=      10
 Computing Diagnostic #    80 "CONVADJ " (list#  1) Parms "SMR     LR      ", Count=      10
 Computing Diagnostic #   210 "GM_Kwx  " (list#  1) Parms "UM      LR      ", Count=      10
             Vector  Mate for "GM_Kwx  " :  Diagnostic #    211 "GM_Kwy  " exists
 Computing Diagnostic #   211 "GM_Kwy  " (list#  1) Parms "VM      LR      ", Count=      10
             Vector  Mate for "GM_Kwy  " :  Diagnostic #    210 "GM_Kwx  " exists
 Computing Diagnostic #   212 "GM_Kwz  " (list#  1) Parms "WM P    LR      ", Count=      10
 Computing Diagnostic #   213 "GM_PsiX " (list#  1) Parms "UU      LR      ", Count=      10
             Vector  Mate for "GM_PsiX " :  Diagnostic #    214 "GM_PsiY " exists
 Computing Diagnostic #   214 "GM_PsiY " (list#  1) Parms "VV      LR      ", Count=      10
             Vector  Mate for "GM_PsiY " :  Diagnostic #    213 "GM_PsiX " exists
 EXTERNAL_FIELDS_LOAD,        70 : iP,iLd,i0,i1=    2    3    2    3 ; Wght=  0.1666666667  0.8333333333
 cg2d: Sum(rhs),rhsMax =  -1.56319401867222E-13  3.89100531058150E+00
 EXTERNAL_FIELDS_LOAD,        71 : iP,iLd,i0,i1=    2    3    2    3 ; Wght=  0.1333333333  0.8666666667
 cg2d: Sum(rhs),rhsMax =  -4.26325641456060E-14  3.90624475919570E+00
 EXTERNAL_FIELDS_LOAD,        72 : iP,iLd,i0,i1=    2    3    2    3 ; Wght=  0.1000000000  0.9000000000
 cg2d: Sum(rhs),rhsMax =  -1.84741111297626E-13  3.96176383103003E+00
 EXTERNAL_FIELDS_LOAD,        73 : iP,iLd,i0,i1=    2    3    2    3 ; Wght=  0.0666666667  0.9333333333
 cg2d: Sum(rhs),rhsMax =   4.26325641456060E-14  4.02776649443068E+00
 EXTERNAL_FIELDS_LOAD,        74 : iP,iLd,i0,i1=    2    3    2    3 ; Wght=  0.0333333333  0.9666666667
 cg2d: Sum(rhs),rhsMax =   4.26325641456060E-14  4.13047285636331E+00
 EXTERNAL_FIELDS_LOAD,        75 : iP,iLd,i0,i1=    2    3    3    4 ; Wght=  1.0000000000  0.0000000000
 EXTERNAL_FIELDS_LOAD, it=        75 : Reading new data, i0,i1=    3    4 (prev=    2    3 )
(PID.TID 0000.0001)  MDS_READ_FIELD: opening global file: trenberth_taux.bin
(PID.TID 0000.0001)  MDS_READ_FIELD: opening global file: trenberth_taux.bin
(PID.TID 0000.0001)  MDS_READ_FIELD: opening global file: trenberth_tauy.bin
(PID.TID 0000.0001)  MDS_READ_FIELD: opening global file: trenberth_tauy.bin
(PID.TID 0000.0001)  MDS_READ_FIELD: opening global file: shiQnet_cs32.bin
(PID.TID 0000.0001)  MDS_READ_FIELD: opening global file: shiQnet_cs32.bin
(PID.TID 0000.0001)  MDS_READ_FIELD: opening global file: shiEmPR_cs32.bin
(PID.TID 0000.0001)  MDS_READ_FIELD: opening global file: shiEmPR_cs32.bin
(PID.TID 0000.0001)  MDS_READ_FIELD: opening global file: lev_surfT_cs_12m.bin
(PID.TID 0000.0001)  MDS_READ_FIELD: opening global file: lev_surfT_cs_12m.bin
(PID.TID 0000.0001)  MDS_READ_FIELD: opening global file: lev_surfS_cs_12m.bin
(PID.TID 0000.0001)  MDS_READ_FIELD: opening global file: lev_surfS_cs_12m.bin
 cg2d: Sum(rhs),rhsMax =  -4.26325641456060E-14  4.22461173364122E+00
 Compute Stats, Diag. #    23 "ETAN    " (list#  1) Parms "SM      M1      ", vol(  0 )= 3.639E+14
 Compute Stats, Diag. #    30 "UVEL    " (list#  1) Parms "UUR     MR      ", vol(  0 )= 1.231E+18
 Compute Stats, Diag. #    31 "VVEL    " (list#  1) Parms "VVR     MR      ", vol(  0 )= 1.243E+18
 Compute Stats, Diag. #    32 "WVEL    " (list#  1) Parms "WM      LR      ", vol(  0 )= 1.315E+18
 Compute Stats, Diag. #    26 "THETA   " (list#  1) Parms "SMR     MR      ", vol(  0 )= 1.340E+18
 EXTERNAL_FIELDS_LOAD,        76 : iP,iLd,i0,i1=    3    4    3    4 ; Wght=  0.9666666667  0.0333333333
 cg2d: Sum(rhs),rhsMax =  -1.84741111297626E-13  4.30880872532604E+00
 EXTERNAL_FIELDS_LOAD,        77 : iP,iLd,i0,i1=    3    4    3    4 ; Wght=  0.9333333333  0.0666666667
 cg2d: Sum(rhs),rhsMax =   1.27897692436818E-13  4.38179949220105E+00
 EXTERNAL_FIELDS_LOAD,        78 : iP,iLd,i0,i1=    3    4    3    4 ; Wght=  0.9000000000  0.1000000000
 cg2d: Sum(rhs),rhsMax =  -1.70530256582424E-13  4.44274444561103E+00
 EXTERNAL_FIELDS_LOAD,        79 : iP,iLd,i0,i1=    3    4    3    4 ; Wght=  0.8666666667  0.1333333333
 cg2d: Sum(rhs),rhsMax =  -1.13686837721616E-13  4.49105132373125E+00
 Computing Diagnostic #    79 "DRHODR  " (list#  1) Parms "SM      LR      ", Count=      10
 Computing Diagnostic #    64 "RHOAnoma" (list#  1) Parms "SMR     MR      ", Count=      10
 Computing Diagnostic #    80 "CONVADJ " (list#  1) Parms "SMR     LR      ", Count=      10
 Computing Diagnostic #   210 "GM_Kwx  " (list#  1) Parms "UM      LR      ", Count=      10
             Vector  Mate for "GM_Kwx  " :  Diagnostic #    211 "GM_Kwy  " exists
 Computing Diagnostic #   211 "GM_Kwy  " (list#  1) Parms "VM      LR      ", Count=      10
             Vector  Mate for "GM_Kwy  " :  Diagnostic #    210 "GM_Kwx  " exists
 Computing Diagnostic #   212 "GM_Kwz  " (list#  1) Parms "WM P    LR      ", Count=      10
 Computing Diagnostic #   213 "GM_PsiX " (list#  1) Parms "UU      LR      ", Count=      10
             Vector  Mate for "GM_PsiX " :  Diagnostic #    214 "GM_PsiY " exists
 Computing Diagnostic #   214 "GM_PsiY " (list#  1) Parms "VV      LR      ", Count=      10
             Vector  Mate for "GM_PsiY " :  Diagnostic #    213 "GM_PsiX " exists
 EXTERNAL_FIELDS_LOAD,        80 : iP,iLd,i0,i1=    3    4    3    4 ; Wght=  0.8333333333  0.1666666667
 cg2d: Sum(rhs),rhsMax =  -2.84217094304040E-14  4.52641772277248E+00
 EXTERNAL_FIELDS_LOAD,        81 : iP,iLd,i0,i1=    3    4    3    4 ; Wght=  0.8000000000  0.2000000000
 cg2d: Sum(rhs),rhsMax =  -8.52651282912120E-14  4.54883116981679E+00
 EXTERNAL_FIELDS_LOAD,        82 : iP,iLd,i0,i1=    3    4    3    4 ; Wght=  0.7666666667  0.2333333333
 cg2d: Sum(rhs),rhsMax =   8.52651282912120E-14  4.55855333277419E+00
 EXTERNAL_FIELDS_LOAD,        83 : iP,iLd,i0,i1=    3    4    3    4 ; Wght=  0.7333333333  0.2666666667
 cg2d: Sum(rhs),rhsMax =  -1.42108547152020E-13  4.55610142114266E+00
 EXTERNAL_FIELDS_LOAD,        84 : iP,iLd,i0,i1=    3    4    3    4 ; Wght=  0.7000000000  0.3000000000
 cg2d: Sum(rhs),rhsMax =   5.68434188608080E-14  4.54222637389429E+00
 EXTERNAL_FIELDS_LOAD,        85 : iP,iLd,i0,i1=    3    4    3    4 ; Wght=  0.6666666667  0.3333333333
 cg2d: Sum(rhs),rhsMax =   0.00000000000000E+00  4.51788776757763E+00
 Compute Stats, Diag. #    23 "ETAN    " (list#  1) Parms "SM      M1      ", vol(  0 )= 3.639E+14
 Compute Stats, Diag. #    30 "UVEL    " (list#  1) Parms "UUR     MR      ", vol(  0 )= 1.231E+18
 Compute Stats, Diag. #    31 "VVEL    " (list#  1) Parms "VVR     MR      ", vol(  0 )= 1.243E+18
 Compute Stats, Diag. #    32 "WVEL    " (list#  1) Parms "WM      LR      ", vol(  0 )= 1.315E+18
 Compute Stats, Diag. #    26 "THETA   " (list#  1) Parms "SMR     MR      ", vol(  0 )= 1.340E+18
 EXTERNAL_FIELDS_LOAD,        86 : iP,iLd,i0,i1=    3    4    3    4 ; Wght=  0.6333333333  0.3666666667
 cg2d: Sum(rhs),rhsMax =   5.68434188608080E-14  4.48422585036197E+00
 EXTERNAL_FIELDS_LOAD,        87 : iP,iLd,i0,i1=    3    4    3    4 ; Wght=  0.6000000000  0.4000000000
 cg2d: Sum(rhs),rhsMax =  -1.42108547152020E-13  4.44253232939600E+00
 EXTERNAL_FIELDS_LOAD,        88 : iP,iLd,i0,i1=    3    4    3    4 ; Wght=  0.5666666667  0.4333333333
 cg2d: Sum(rhs),rhsMax =   0.00000000000000E+00  4.39421970335717E+00
 EXTERNAL_FIELDS_LOAD,        89 : iP,iLd,i0,i1=    3    4    3    4 ; Wght=  0.5333333333  0.4666666667
 cg2d: Sum(rhs),rhsMax =  -2.55795384873636E-13  4.34079009162320E+00
(PID.TID 0000.0001)      cg2d_init_res =   9.80831292417345E-01
(PID.TID 0000.0001)      cg2d_iters(min,last) =      -1      68
(PID.TID 0000.0001)      cg2d_last_res =   4.96166854256544E-07
(PID.TID 0000.0001) // =======================================================
(PID.TID 0000.0001) // Begin MONITOR dynamic field statistics
(PID.TID 0000.0001) // =======================================================
(PID.TID 0000.0001) %MON time_tsnumber                =                    90
(PID.TID 0000.0001) %MON time_secondsf                =   7.7760000000000E+06
(PID.TID 0000.0001) %MON dynstat_eta_max              =   1.0055675203377E+00
(PID.TID 0000.0001) %MON dynstat_eta_min              =  -1.7416520652975E+00
(PID.TID 0000.0001) %MON dynstat_eta_mean             =   9.6183774763748E-17
(PID.TID 0000.0001) %MON dynstat_eta_sd               =   5.9847909491292E-01
(PID.TID 0000.0001) %MON dynstat_eta_del2             =   7.1474263880327E-04
(PID.TID 0000.0001) %MON dynstat_uvel_max             =   1.7509213172696E-01
(PID.TID 0000.0001) %MON dynstat_uvel_min             =  -2.7234094919543E-01
(PID.TID 0000.0001) %MON dynstat_uvel_mean            =  -4.8459867427559E-04
(PID.TID 0000.0001) %MON dynstat_uvel_sd              =   1.1605211159488E-02
(PID.TID 0000.0001) %MON dynstat_uvel_del2            =   5.1557407802691E-05
(PID.TID 0000.0001) %MON dynstat_vvel_max             =   1.6847459024821E-01
(PID.TID 0000.0001) %MON dynstat_vvel_min             =  -1.3341164853156E-01
(PID.TID 0000.0001) %MON dynstat_vvel_mean            =  -3.7441021636636E-04
(PID.TID 0000.0001) %MON dynstat_vvel_sd              =   1.1988853116253E-02
(PID.TID 0000.0001) %MON dynstat_vvel_del2            =   5.1243004575252E-05
(PID.TID 0000.0001) %MON dynstat_wvel_max             =   3.1035098250854E-04
(PID.TID 0000.0001) %MON dynstat_wvel_min             =  -2.5618024966575E-04
(PID.TID 0000.0001) %MON dynstat_wvel_mean            =   7.8907623090148E-22
(PID.TID 0000.0001) %MON dynstat_wvel_sd              =   1.4367256335953E-05
(PID.TID 0000.0001) %MON dynstat_wvel_del2            =   9.5641464818299E-08
(PID.TID 0000.0001) %MON dynstat_theta_max            =   3.2169506203271E+01
(PID.TID 0000.0001) %MON dynstat_theta_min            =  -3.7121015973937E+00
(PID.TID 0000.0001) %MON dynstat_theta_mean           =   3.6086091265797E+00
(PID.TID 0000.0001) %MON dynstat_theta_sd             =   4.4626255828779E+00
(PID.TID 0000.0001) %MON dynstat_theta_del2           =   2.2203783997341E-03
(PID.TID 0000.0001) %MON dynstat_salt_max             =   4.0977422875950E+01
(PID.TID 0000.0001) %MON dynstat_salt_min             =   1.7817556593914E+01
(PID.TID 0000.0001) %MON dynstat_salt_mean            =   3.4721297100593E+01
(PID.TID 0000.0001) %MON dynstat_salt_sd              =   4.8986509119984E-01
(PID.TID 0000.0001) %MON dynstat_salt_del2            =   6.0187001261895E-04
(PID.TID 0000.0001) %MON forcing_qnet_max             =   2.5831548769935E+02
(PID.TID 0000.0001) %MON forcing_qnet_min             =  -1.7711183959068E+02
(PID.TID 0000.0001) %MON forcing_qnet_mean            =  -2.2000230223660E+00
(PID.TID 0000.0001) %MON forcing_qnet_sd              =   5.4013286575424E+01
(PID.TID 0000.0001) %MON forcing_qnet_del2            =   4.2321284728114E-01
(PID.TID 0000.0001) %MON forcing_qsw_max              =   0.0000000000000E+00
(PID.TID 0000.0001) %MON forcing_qsw_min              =   0.0000000000000E+00
(PID.TID 0000.0001) %MON forcing_qsw_mean             =   0.0000000000000E+00
(PID.TID 0000.0001) %MON forcing_qsw_sd               =   0.0000000000000E+00
(PID.TID 0000.0001) %MON forcing_qsw_del2             =   0.0000000000000E+00
(PID.TID 0000.0001) %MON forcing_empmr_max            =   7.6494447208479E-05
(PID.TID 0000.0001) %MON forcing_empmr_min            =  -1.5362614137596E-04
(PID.TID 0000.0001) %MON forcing_empmr_mean           =  -2.7256318706594E-21
(PID.TID 0000.0001) %MON forcing_empmr_sd             =   2.4051723601802E-05
(PID.TID 0000.0001) %MON forcing_empmr_del2           =   1.2276157049243E-07
(PID.TID 0000.0001) %MON forcing_fu_max               =   2.6643568027634E-01
(PID.TID 0000.0001) %MON forcing_fu_min               =  -3.2484514575530E-01
(PID.TID 0000.0001) %MON forcing_fu_mean              =  -8.6046156021580E-03
(PID.TID 0000.0001) %MON forcing_fu_sd                =   7.1623035383705E-02
(PID.TID 0000.0001) %MON forcing_fu_del2              =   2.0334094197389E-04
(PID.TID 0000.0001) %MON forcing_fv_max               =   2.0001411394083E-01
(PID.TID 0000.0001) %MON forcing_fv_min               =  -3.2442472981373E-01
(PID.TID 0000.0001) %MON forcing_fv_mean              =  -1.2827574480664E-02
(PID.TID 0000.0001) %MON forcing_fv_sd                =   7.4837413411441E-02
(PID.TID 0000.0001) %MON forcing_fv_del2              =   2.2208242510170E-04
(PID.TID 0000.0001) %MON trAdv_CFL_u_max              =   1.0649222653258E-01
(PID.TID 0000.0001) %MON trAdv_CFL_v_max              =   7.2404992515655E-02
(PID.TID 0000.0001) %MON trAdv_CFL_w_max              =   1.0259111505413E-01
(PID.TID 0000.0001) %MON advcfl_uvel_max              =   7.7493785165088E-02
(PID.TID 0000.0001) %MON advcfl_vvel_max              =   6.7424647889460E-02
(PID.TID 0000.0001) %MON advcfl_wvel_max              =   8.3524428570266E-02
(PID.TID 0000.0001) %MON advcfl_W_hf_max              =   9.2224889879668E-02
(PID.TID 0000.0001) %MON pe_b_mean                    =   4.7715825617902E-04
(PID.TID 0000.0001) %MON ke_max                       =   2.3659707893948E-02
(PID.TID 0000.0001) %MON ke_mean                      =   1.2872572235834E-04
(PID.TID 0000.0001) %MON ke_vol                       =   1.3398024453628E+18
(PID.TID 0000.0001) %MON vort_r_min                   =  -9.8982586417746E-07
(PID.TID 0000.0001) %MON vort_r_max                   =   1.2110354098413E-06
(PID.TID 0000.0001) %MON vort_a_mean                  =  -2.0549865324846E-05
(PID.TID 0000.0001) %MON vort_a_sd                    =   7.5259497305705E-05
(PID.TID 0000.0001) %MON vort_p_mean                  =  -2.4783522345032E-05
(PID.TID 0000.0001) %MON vort_p_sd                    =   1.2810301475742E-04
(PID.TID 0000.0001) %MON surfExpan_theta_mean         =   1.5355450147963E-07
(PID.TID 0000.0001) %MON surfExpan_salt_mean          =   5.5872772736886E-09
(PID.TID 0000.0001) // =======================================================
(PID.TID 0000.0001) // End MONITOR dynamic field statistics
(PID.TID 0000.0001) // =======================================================
(PID.TID 0000.0001) // =======================================================
(PID.TID 0000.0001) // Begin MONITOR ptracer field statistics
(PID.TID 0000.0001) // =======================================================
(PID.TID 0000.0001) %MON trcstat_ptracer01_max        =   7.8178888566667E+06
(PID.TID 0000.0001) %MON trcstat_ptracer01_min        =  -7.2877416261438E+05
(PID.TID 0000.0001) %MON trcstat_ptracer01_mean       =   7.6564134731509E+06
(PID.TID 0000.0001) %MON trcstat_ptracer01_sd         =   8.4790543604527E+05
(PID.TID 0000.0001) %MON trcstat_ptracer01_del2       =   1.7824363990556E+03
(PID.TID 0000.0001) // =======================================================
(PID.TID 0000.0001) // End MONITOR ptracer field statistics
(PID.TID 0000.0001) // =======================================================
 Computing Diagnostic #    79 "DRHODR  " (list#  1) Parms "SM      LR      ", Count=      10
 Computing Diagnostic #    64 "RHOAnoma" (list#  1) Parms "SMR     MR      ", Count=      10
 Computing Diagnostic #    80 "CONVADJ " (list#  1) Parms "SMR     LR      ", Count=      10
 Computing Diagnostic #   210 "GM_Kwx  " (list#  1) Parms "UM      LR      ", Count=      10
             Vector  Mate for "GM_Kwx  " :  Diagnostic #    211 "GM_Kwy  " exists
 Computing Diagnostic #   211 "GM_Kwy  " (list#  1) Parms "VM      LR      ", Count=      10
             Vector  Mate for "GM_Kwy  " :  Diagnostic #    210 "GM_Kwx  " exists
 Computing Diagnostic #   212 "GM_Kwz  " (list#  1) Parms "WM P    LR      ", Count=      10
 Computing Diagnostic #   213 "GM_PsiX " (list#  1) Parms "UU      LR      ", Count=      10
             Vector  Mate for "GM_PsiX " :  Diagnostic #    214 "GM_PsiY " exists
 Computing Diagnostic #   214 "GM_PsiY " (list#  1) Parms "VV      LR      ", Count=      10
             Vector  Mate for "GM_PsiY " :  Diagnostic #    213 "GM_PsiX " exists
 EXTERNAL_FIELDS_LOAD,        90 : iP,iLd,i0,i1=    3    4    3    4 ; Wght=  0.5000000000  0.5000000000
 cg2d: Sum(rhs),rhsMax =  -2.55795384873636E-13  4.28380350248754E+00
 EXTERNAL_FIELDS_LOAD,        91 : iP,iLd,i0,i1=    3    4    3    4 ; Wght=  0.4666666667  0.5333333333
 cg2d: Sum(rhs),rhsMax =  -3.12638803734444E-13  4.22484616322858E+00
 EXTERNAL_FIELDS_LOAD,        92 : iP,iLd,i0,i1=    3    4    3    4 ; Wght=  0.4333333333  0.5666666667
 cg2d: Sum(rhs),rhsMax =  -1.13686837721616E-13  4.16549801244856E+00
 EXTERNAL_FIELDS_LOAD,        93 : iP,iLd,i0,i1=    3    4    3    4 ; Wght=  0.4000000000  0.6000000000
 cg2d: Sum(rhs),rhsMax =   1.42108547152020E-13  4.10730078635489E+00
 EXTERNAL_FIELDS_LOAD,        94 : iP,iLd,i0,i1=    3    4    3    4 ; Wght=  0.3666666667  0.6333333333
 cg2d: Sum(rhs),rhsMax =   2.27373675443232E-13  4.05172679118159E+00
 EXTERNAL_FIELDS_LOAD,        95 : iP,iLd,i0,i1=    3    4    3    4 ; Wght=  0.3333333333  0.6666666667
 cg2d: Sum(rhs),rhsMax =  -1.70530256582424E-13  4.00014929588115E+00
 Compute Stats, Diag. #    23 "ETAN    " (list#  1) Parms "SM      M1      ", vol(  0 )= 3.639E+14
 Compute Stats, Diag. #    30 "UVEL    " (list#  1) Parms "UUR     MR      ", vol(  0 )= 1.231E+18
 Compute Stats, Diag. #    31 "VVEL    " (list#  1) Parms "VVR     MR      ", vol(  0 )= 1.243E+18
 Compute Stats, Diag. #    32 "WVEL    " (list#  1) Parms "WM      LR      ", vol(  0 )= 1.315E+18
 Compute Stats, Diag. #    26 "THETA   " (list#  1) Parms "SMR     MR      ", vol(  0 )= 1.340E+18
 EXTERNAL_FIELDS_LOAD,        96 : iP,iLd,i0,i1=    3    4    3    4 ; Wght=  0.3000000000  0.7000000000
 cg2d: Sum(rhs),rhsMax =  -8.52651282912120E-14  3.95381505420332E+00
 EXTERNAL_FIELDS_LOAD,        97 : iP,iLd,i0,i1=    3    4    3    4 ; Wght=  0.2666666667  0.7333333333
 cg2d: Sum(rhs),rhsMax =   0.00000000000000E+00  3.91382004890883E+00
 EXTERNAL_FIELDS_LOAD,        98 : iP,iLd,i0,i1=    3    4    3    4 ; Wght=  0.2333333333  0.7666666667
 cg2d: Sum(rhs),rhsMax =  -5.68434188608080E-14  3.88108890150482E+00
 EXTERNAL_FIELDS_LOAD,        99 : iP,iLd,i0,i1=    3    4    3    4 ; Wght=  0.2000000000  0.8000000000
 cg2d: Sum(rhs),rhsMax =  -2.84217094304040E-14  3.85635849326904E+00
 Computing Diagnostic #    79 "DRHODR  " (list#  1) Parms "SM      LR      ", Count=      10
 Computing Diagnostic #    64 "RHOAnoma" (list#  1) Parms "SMR     MR      ", Count=      10
 Computing Diagnostic #    80 "CONVADJ " (list#  1) Parms "SMR     LR      ", Count=      10
 Computing Diagnostic #   210 "GM_Kwx  " (list#  1) Parms "UM      LR      ", Count=      10
             Vector  Mate for "GM_Kwx  " :  Diagnostic #    211 "GM_Kwy  " exists
 Computing Diagnostic #   211 "GM_Kwy  " (list#  1) Parms "VM      LR      ", Count=      10
             Vector  Mate for "GM_Kwy  " :  Diagnostic #    210 "GM_Kwx  " exists
 Computing Diagnostic #   212 "GM_Kwz  " (list#  1) Parms "WM P    LR      ", Count=      10
 Computing Diagnostic #   213 "GM_PsiX " (list#  1) Parms "UU      LR      ", Count=      10
             Vector  Mate for "GM_PsiX " :  Diagnostic #    214 "GM_PsiY " exists
 Computing Diagnostic #   214 "GM_PsiY " (list#  1) Parms "VV      LR      ", Count=      10
             Vector  Mate for "GM_PsiY " :  Diagnostic #    213 "GM_PsiX " exists
 EXTERNAL_FIELDS_LOAD,       100 : iP,iLd,i0,i1=    3    4    3    4 ; Wght=  0.1666666667  0.8333333333
 cg2d: Sum(rhs),rhsMax =   0.00000000000000E+00  3.84016637429186E+00
 EXTERNAL_FIELDS_LOAD,       101 : iP,iLd,i0,i1=    3    4    3    4 ; Wght=  0.1333333333  0.8666666667
 cg2d: Sum(rhs),rhsMax =   8.52651282912120E-14  3.83284370515663E+00
 EXTERNAL_FIELDS_LOAD,       102 : iP,iLd,i0,i1=    3    4    3    4 ; Wght=  0.1000000000  0.9000000000
 cg2d: Sum(rhs),rhsMax =  -5.68434188608080E-14  3.83451319696335E+00
 EXTERNAL_FIELDS_LOAD,       103 : iP,iLd,i0,i1=    3    4    3    4 ; Wght=  0.0666666667  0.9333333333
 cg2d: Sum(rhs),rhsMax =  -5.68434188608080E-14  3.84509166314497E+00
 EXTERNAL_FIELDS_LOAD,       104 : iP,iLd,i0,i1=    3    4    3    4 ; Wght=  0.0333333333  0.9666666667
 cg2d: Sum(rhs),rhsMax =   1.42108547152020E-13  3.86429698535062E+00
 EXTERNAL_FIELDS_LOAD,       105 : iP,iLd,i0,i1=    3    4    4    5 ; Wght=  1.0000000000  0.0000000000
 EXTERNAL_FIELDS_LOAD, it=       105 : Reading new data, i0,i1=    4    5 (prev=    3    4 )
(PID.TID 0000.0001)  MDS_READ_FIELD: opening global file: trenberth_taux.bin
(PID.TID 0000.0001)  MDS_READ_FIELD: opening global file: trenberth_taux.bin
(PID.TID 0000.0001)  MDS_READ_FIELD: opening global file: trenberth_tauy.bin
(PID.TID 0000.0001)  MDS_READ_FIELD: opening global file: trenberth_tauy.bin
(PID.TID 0000.0001)  MDS_READ_FIELD: opening global file: shiQnet_cs32.bin
(PID.TID 0000.0001)  MDS_READ_FIELD: opening global file: shiQnet_cs32.bin
(PID.TID 0000.0001)  MDS_READ_FIELD: opening global file: shiEmPR_cs32.bin
(PID.TID 0000.0001)  MDS_READ_FIELD: opening global file: shiEmPR_cs32.bin
(PID.TID 0000.0001)  MDS_READ_FIELD: opening global file: lev_surfT_cs_12m.bin
(PID.TID 0000.0001)  MDS_READ_FIELD: opening global file: lev_surfT_cs_12m.bin
(PID.TID 0000.0001)  MDS_READ_FIELD: opening global file: lev_surfS_cs_12m.bin
(PID.TID 0000.0001)  MDS_READ_FIELD: opening global file: lev_surfS_cs_12m.bin
 cg2d: Sum(rhs),rhsMax =  -5.68434188608080E-14  3.89165909432710E+00
 Compute Stats, Diag. #    23 "ETAN    " (list#  1) Parms "SM      M1      ", vol(  0 )= 3.639E+14
 Compute Stats, Diag. #    30 "UVEL    " (list#  1) Parms "UUR     MR      ", vol(  0 )= 1.231E+18
 Compute Stats, Diag. #    31 "VVEL    " (list#  1) Parms "VVR     MR      ", vol(  0 )= 1.243E+18
 Compute Stats, Diag. #    32 "WVEL    " (list#  1) Parms "WM      LR      ", vol(  0 )= 1.315E+18
 Compute Stats, Diag. #    26 "THETA   " (list#  1) Parms "SMR     MR      ", vol(  0 )= 1.340E+18
 EXTERNAL_FIELDS_LOAD,       106 : iP,iLd,i0,i1=    4    5    4    5 ; Wght=  0.9666666667  0.0333333333
 cg2d: Sum(rhs),rhsMax =  -5.68434188608080E-14  3.92648682164290E+00
 EXTERNAL_FIELDS_LOAD,       107 : iP,iLd,i0,i1=    4    5    4    5 ; Wght=  0.9333333333  0.0666666667
 cg2d: Sum(rhs),rhsMax =   1.70530256582424E-13  3.96799950849968E+00
 EXTERNAL_FIELDS_LOAD,       108 : iP,iLd,i0,i1=    4    5    4    5 ; Wght=  0.9000000000  0.1000000000
 cg2d: Sum(rhs),rhsMax =  -2.55795384873636E-13  4.01522378890113E+00
 EXTERNAL_FIELDS_LOAD,       109 : iP,iLd,i0,i1=    4    5    4    5 ; Wght=  0.8666666667  0.1333333333
 cg2d: Sum(rhs),rhsMax =  -8.52651282912120E-14  4.06711174248842E+00
 Computing Diagnostic #    79 "DRHODR  " (list#  1) Parms "SM      LR      ", Count=      10
 Computing Diagnostic #    64 "RHOAnoma" (list#  1) Parms "SMR     MR      ", Count=      10
 Computing Diagnostic #    80 "CONVADJ " (list#  1) Parms "SMR     LR      ", Count=      10
 Computing Diagnostic #   210 "GM_Kwx  " (list#  1) Parms "UM      LR      ", Count=      10
             Vector  Mate for "GM_Kwx  " :  Diagnostic #    211 "GM_Kwy  " exists
 Computing Diagnostic #   211 "GM_Kwy  " (list#  1) Parms "VM      LR      ", Count=      10
             Vector  Mate for "GM_Kwy  " :  Diagnostic #    210 "GM_Kwx  " exists
 Computing Diagnostic #   212 "GM_Kwz  " (list#  1) Parms "WM P    LR      ", Count=      10
 Computing Diagnostic #   213 "GM_PsiX " (list#  1) Parms "UU      LR      ", Count=      10
             Vector  Mate for "GM_PsiX " :  Diagnostic #    214 "GM_PsiY " exists
 Computing Diagnostic #   214 "GM_PsiY " (list#  1) Parms "VV      LR      ", Count=      10
             Vector  Mate for "GM_PsiY " :  Diagnostic #    213 "GM_PsiX " exists
 EXTERNAL_FIELDS_LOAD,       110 : iP,iLd,i0,i1=    4    5    4    5 ; Wght=  0.8333333333  0.1666666667
 cg2d: Sum(rhs),rhsMax =  -1.42108547152020E-13  4.12253714904868E+00
 EXTERNAL_FIELDS_LOAD,       111 : iP,iLd,i0,i1=    4    5    4    5 ; Wght=  0.8000000000  0.2000000000
 cg2d: Sum(rhs),rhsMax =  -2.84217094304040E-14  4.18031642124819E+00
 EXTERNAL_FIELDS_LOAD,       112 : iP,iLd,i0,i1=    4    5    4    5 ; Wght=  0.7666666667  0.2333333333
 cg2d: Sum(rhs),rhsMax =  -1.13686837721616E-13  4.23923801911289E+00
 EXTERNAL_FIELDS_LOAD,       113 : iP,iLd,i0,i1=    4    5    4    5 ; Wght=  0.7333333333  0.2666666667
 cg2d: Sum(rhs),rhsMax =  -5.68434188608080E-14  4.29809129732622E+00
 EXTERNAL_FIELDS_LOAD,       114 : iP,iLd,i0,i1=    4    5    4    5 ; Wght=  0.7000000000  0.3000000000
 cg2d: Sum(rhs),rhsMax =  -2.84217094304040E-14  4.35569446644740E+00
 EXTERNAL_FIELDS_LOAD,       115 : iP,iLd,i0,i1=    4    5    4    5 ; Wght=  0.6666666667  0.3333333333
 cg2d: Sum(rhs),rhsMax =   1.98951966012828E-13  4.41092177356949E+00
 Compute Stats, Diag. #    23 "ETAN    " (list#  1) Parms "SM      M1      ", vol(  0 )= 3.639E+14
 Compute Stats, Diag. #    30 "UVEL    " (list#  1) Parms "UUR     MR      ", vol(  0 )= 1.231E+18
 Compute Stats, Diag. #    31 "VVEL    " (list#  1) Parms "VVR     MR      ", vol(  0 )= 1.243E+18
 Compute Stats, Diag. #    32 "WVEL    " (list#  1) Parms "WM      LR      ", vol(  0 )= 1.315E+18
 Compute Stats, Diag. #    26 "THETA   " (list#  1) Parms "SMR     MR      ", vol(  0 )= 1.340E+18
 EXTERNAL_FIELDS_LOAD,       116 : iP,iLd,i0,i1=    4    5    4    5 ; Wght=  0.6333333333  0.3666666667
 cg2d: Sum(rhs),rhsMax =   8.52651282912120E-14  4.46272903055838E+00
 EXTERNAL_FIELDS_LOAD,       117 : iP,iLd,i0,i1=    4    5    4    5 ; Wght=  0.6000000000  0.4000000000
 cg2d: Sum(rhs),rhsMax =  -2.84217094304040E-14  4.51017640943723E+00
 EXTERNAL_FIELDS_LOAD,       118 : iP,iLd,i0,i1=    4    5    4    5 ; Wght=  0.5666666667  0.4333333333
 cg2d: Sum(rhs),rhsMax =  -5.68434188608080E-14  4.55244743781285E+00
 EXTERNAL_FIELDS_LOAD,       119 : iP,iLd,i0,i1=    4    5    4    5 ; Wght=  0.5333333333  0.4666666667
 cg2d: Sum(rhs),rhsMax =  -1.13686837721616E-13  4.58886370630324E+00
(PID.TID 0000.0001)      cg2d_init_res =   8.41504382146932E-01
(PID.TID 0000.0001)      cg2d_iters(min,last) =      -1      68
(PID.TID 0000.0001)      cg2d_last_res =   4.90246722958137E-07
(PID.TID 0000.0001) // =======================================================
(PID.TID 0000.0001) // Begin MONITOR dynamic field statistics
(PID.TID 0000.0001) // =======================================================
(PID.TID 0000.0001) %MON time_tsnumber                =                   120
(PID.TID 0000.0001) %MON time_secondsf                =   1.0368000000000E+07
(PID.TID 0000.0001) %MON dynstat_eta_max              =   8.8496941922464E-01
(PID.TID 0000.0001) %MON dynstat_eta_min              =  -1.8271456826089E+00
(PID.TID 0000.0001) %MON dynstat_eta_mean             =   1.0992431401571E-16
(PID.TID 0000.0001) %MON dynstat_eta_sd               =   6.2689999526324E-01
(PID.TID 0000.0001) %MON dynstat_eta_del2             =   6.8700860178310E-04
(PID.TID 0000.0001) %MON dynstat_uvel_max             =   1.8094692291682E-01
(PID.TID 0000.0001) %MON dynstat_uvel_min             =  -2.5279333614643E-01
(PID.TID 0000.0001) %MON dynstat_uvel_mean            =  -5.8989945096403E-04
(PID.TID 0000.0001) %MON dynstat_uvel_sd              =   1.3428793998582E-02
(PID.TID 0000.0001) %MON dynstat_uvel_del2            =   5.2509431691740E-05
(PID.TID 0000.0001) %MON dynstat_vvel_max             =   2.0688516496831E-01
(PID.TID 0000.0001) %MON dynstat_vvel_min             =  -1.8302871608697E-01
(PID.TID 0000.0001) %MON dynstat_vvel_mean            =  -4.1345300289889E-04
(PID.TID 0000.0001) %MON dynstat_vvel_sd              =   1.3226388058230E-02
(PID.TID 0000.0001) %MON dynstat_vvel_del2            =   5.2694101730921E-05
(PID.TID 0000.0001) %MON dynstat_wvel_max             =   2.1366870901061E-04
(PID.TID 0000.0001) %MON dynstat_wvel_min             =  -2.5270620196573E-04
(PID.TID 0000.0001) %MON dynstat_wvel_mean            =   4.6416248876558E-22
(PID.TID 0000.0001) %MON dynstat_wvel_sd              =   1.3323297488077E-05
(PID.TID 0000.0001) %MON dynstat_wvel_del2            =   8.0776677482235E-08
(PID.TID 0000.0001) %MON dynstat_theta_max            =   3.1252502391353E+01
(PID.TID 0000.0001) %MON dynstat_theta_min            =  -5.0546216148973E+00
(PID.TID 0000.0001) %MON dynstat_theta_mean           =   3.6077323646291E+00
(PID.TID 0000.0001) %MON dynstat_theta_sd             =   4.4621944113373E+00
(PID.TID 0000.0001) %MON dynstat_theta_del2           =   2.1280135166377E-03
(PID.TID 0000.0001) %MON dynstat_salt_max             =   4.1424777723554E+01
(PID.TID 0000.0001) %MON dynstat_salt_min             =   1.7356579288993E+01
(PID.TID 0000.0001) %MON dynstat_salt_mean            =   3.4721278112052E+01
(PID.TID 0000.0001) %MON dynstat_salt_sd              =   4.9024059003567E-01
(PID.TID 0000.0001) %MON dynstat_salt_del2            =   6.1104988315029E-04
(PID.TID 0000.0001) %MON forcing_qnet_max             =   2.1934515500016E+02
(PID.TID 0000.0001) %MON forcing_qnet_min             =  -1.6486040907681E+02
(PID.TID 0000.0001) %MON forcing_qnet_mean            =   8.9314966133584E+00
(PID.TID 0000.0001) %MON forcing_qnet_sd              =   6.7768604997073E+01
(PID.TID 0000.0001) %MON forcing_qnet_del2            =   3.9934967955079E-01
(PID.TID 0000.0001) %MON forcing_qsw_max              =   0.0000000000000E+00
(PID.TID 0000.0001) %MON forcing_qsw_min              =   0.0000000000000E+00
(PID.TID 0000.0001) %MON forcing_qsw_mean             =   0.0000000000000E+00
(PID.TID 0000.0001) %MON forcing_qsw_sd               =   0.0000000000000E+00
(PID.TID 0000.0001) %MON forcing_qsw_del2             =   0.0000000000000E+00
(PID.TID 0000.0001) %MON forcing_empmr_max            =   7.6494447208479E-05
(PID.TID 0000.0001) %MON forcing_empmr_min            =  -1.5362614137596E-04
(PID.TID 0000.0001) %MON forcing_empmr_mean           =  -2.7256318706594E-21
(PID.TID 0000.0001) %MON forcing_empmr_sd             =   2.4051723601802E-05
(PID.TID 0000.0001) %MON forcing_empmr_del2           =   1.2276157049243E-07
(PID.TID 0000.0001) %MON forcing_fu_max               =   2.6376707634895E-01
(PID.TID 0000.0001) %MON forcing_fu_min               =  -3.5181701991123E-01
(PID.TID 0000.0001) %MON forcing_fu_mean              =  -9.1725361907261E-03
(PID.TID 0000.0001) %MON forcing_fu_sd                =   7.3147688306408E-02
(PID.TID 0000.0001) %MON forcing_fu_del2              =   2.0151832318310E-04
(PID.TID 0000.0001) %MON forcing_fv_max               =   2.3362458312789E-01
(PID.TID 0000.0001) %MON forcing_fv_min               =  -3.0178655558957E-01
(PID.TID 0000.0001) %MON forcing_fv_mean              =  -1.1987018747997E-02
(PID.TID 0000.0001) %MON forcing_fv_sd                =   7.0322777084510E-02
(PID.TID 0000.0001) %MON forcing_fv_del2              =   2.0736000433565E-04
(PID.TID 0000.0001) %MON trAdv_CFL_u_max              =   7.2798668968335E-02
(PID.TID 0000.0001) %MON trAdv_CFL_v_max              =   7.4083282488896E-02
(PID.TID 0000.0001) %MON trAdv_CFL_w_max              =   1.0081722664859E-01
(PID.TID 0000.0001) %MON advcfl_uvel_max              =   7.1931571584705E-02
(PID.TID 0000.0001) %MON advcfl_vvel_max              =   6.5310287786237E-02
(PID.TID 0000.0001) %MON advcfl_wvel_max              =   8.2391757923923E-02
(PID.TID 0000.0001) %MON advcfl_W_hf_max              =   9.0974232707665E-02
(PID.TID 0000.0001) %MON pe_b_mean                    =   5.2355342613901E-04
(PID.TID 0000.0001) %MON ke_max                       =   2.1129445301952E-02
(PID.TID 0000.0001) %MON ke_mean                      =   1.6424663355952E-04
(PID.TID 0000.0001) %MON ke_vol                       =   1.3398024453628E+18
(PID.TID 0000.0001) %MON vort_r_min                   =  -8.5057179901886E-07
(PID.TID 0000.0001) %MON vort_r_max                   =   1.1100030364474E-06
(PID.TID 0000.0001) %MON vort_a_mean                  =  -2.0549865324846E-05
(PID.TID 0000.0001) %MON vort_a_sd                    =   7.5259534600593E-05
(PID.TID 0000.0001) %MON vort_p_mean                  =  -2.4783522345032E-05
(PID.TID 0000.0001) %MON vort_p_sd                    =   1.2810328691275E-04
(PID.TID 0000.0001) %MON surfExpan_theta_mean         =   2.3180307968919E-08
(PID.TID 0000.0001) %MON surfExpan_salt_mean          =   2.3854291621301E-08
(PID.TID 0000.0001) // =======================================================
(PID.TID 0000.0001) // End MONITOR dynamic field statistics
(PID.TID 0000.0001) // =======================================================
(PID.TID 0000.0001) // =======================================================
(PID.TID 0000.0001) // Begin MONITOR ptracer field statistics
(PID.TID 0000.0001) // =======================================================
(PID.TID 0000.0001) %MON trcstat_ptracer01_max        =   1.0442947878854E+07
(PID.TID 0000.0001) %MON trcstat_ptracer01_min        =  -6.8931568594790E+05
(PID.TID 0000.0001) %MON trcstat_ptracer01_mean       =   1.0201530535090E+07
(PID.TID 0000.0001) %MON trcstat_ptracer01_sd         =   1.1432565532701E+06
(PID.TID 0000.0001) %MON trcstat_ptracer01_del2       =   2.2529394568594E+03
(PID.TID 0000.0001) // =======================================================
(PID.TID 0000.0001) // End MONITOR ptracer field statistics
(PID.TID 0000.0001) // =======================================================
 Computing Diagnostic #    79 "DRHODR  " (list#  1) Parms "SM      LR      ", Count=      10
 Computing Diagnostic #    64 "RHOAnoma" (list#  1) Parms "SMR     MR      ", Count=      10
 Computing Diagnostic #    80 "CONVADJ " (list#  1) Parms "SMR     LR      ", Count=      10
 Computing Diagnostic #   210 "GM_Kwx  " (list#  1) Parms "UM      LR      ", Count=      10
             Vector  Mate for "GM_Kwx  " :  Diagnostic #    211 "GM_Kwy  " exists
 Computing Diagnostic #   211 "GM_Kwy  " (list#  1) Parms "VM      LR      ", Count=      10
             Vector  Mate for "GM_Kwy  " :  Diagnostic #    210 "GM_Kwx  " exists
 Computing Diagnostic #   212 "GM_Kwz  " (list#  1) Parms "WM P    LR      ", Count=      10
 Computing Diagnostic #   213 "GM_PsiX " (list#  1) Parms "UU      LR      ", Count=      10
             Vector  Mate for "GM_PsiX " :  Diagnostic #    214 "GM_PsiY " exists
 Computing Diagnostic #   214 "GM_PsiY " (list#  1) Parms "VV      LR      ", Count=      10
             Vector  Mate for "GM_PsiY " :  Diagnostic #    213 "GM_PsiX " exists
 EXTERNAL_FIELDS_LOAD,       120 : iP,iLd,i0,i1=    4    5    4    5 ; Wght=  0.5000000000  0.5000000000
 cg2d: Sum(rhs),rhsMax =   8.52651282912120E-14  4.61889507733735E+00
 EXTERNAL_FIELDS_LOAD,       121 : iP,iLd,i0,i1=    4    5    4    5 ; Wght=  0.4666666667  0.5333333333
 cg2d: Sum(rhs),rhsMax =   0.00000000000000E+00  4.64216551024740E+00
 EXTERNAL_FIELDS_LOAD,       122 : iP,iLd,i0,i1=    4    5    4    5 ; Wght=  0.4333333333  0.5666666667
 cg2d: Sum(rhs),rhsMax =   0.00000000000000E+00  4.65845469247892E+00
 EXTERNAL_FIELDS_LOAD,       123 : iP,iLd,i0,i1=    4    5    4    5 ; Wght=  0.4000000000  0.6000000000
 cg2d: Sum(rhs),rhsMax =  -1.98951966012828E-13  4.66769583295763E+00
 EXTERNAL_FIELDS_LOAD,       124 : iP,iLd,i0,i1=    4    5    4    5 ; Wght=  0.3666666667  0.6333333333
 cg2d: Sum(rhs),rhsMax =   1.70530256582424E-13  4.66996972011669E+00
 EXTERNAL_FIELDS_LOAD,       125 : iP,iLd,i0,i1=    4    5    4    5 ; Wght=  0.3333333333  0.6666666667
 cg2d: Sum(rhs),rhsMax =   0.00000000000000E+00  4.66549622740316E+00
 Compute Stats, Diag. #    23 "ETAN    " (list#  1) Parms "SM      M1      ", vol(  0 )= 3.639E+14
 Compute Stats, Diag. #    30 "UVEL    " (list#  1) Parms "UUR     MR      ", vol(  0 )= 1.231E+18
 Compute Stats, Diag. #    31 "VVEL    " (list#  1) Parms "VVR     MR      ", vol(  0 )= 1.243E+18
 Compute Stats, Diag. #    32 "WVEL    " (list#  1) Parms "WM      LR      ", vol(  0 )= 1.315E+18
 Compute Stats, Diag. #    26 "THETA   " (list#  1) Parms "SMR     MR      ", vol(  0 )= 1.340E+18
 EXTERNAL_FIELDS_LOAD,       126 : iP,iLd,i0,i1=    4    5    4    5 ; Wght=  0.3000000000  0.7000000000
 cg2d: Sum(rhs),rhsMax =  -2.84217094304040E-13  4.65462318208476E+00
 EXTERNAL_FIELDS_LOAD,       127 : iP,iLd,i0,i1=    4    5    4    5 ; Wght=  0.2666666667  0.7333333333
 cg2d: Sum(rhs),rhsMax =  -2.84217094304040E-14  4.63781323957606E+00
 EXTERNAL_FIELDS_LOAD,       128 : iP,iLd,i0,i1=    4    5    4    5 ; Wght=  0.2333333333  0.7666666667
 cg2d: Sum(rhs),rhsMax =  -1.13686837721616E-13  4.61562940320729E+00
 EXTERNAL_FIELDS_LOAD,       129 : iP,iLd,i0,i1=    4    5    4    5 ; Wght=  0.2000000000  0.8000000000
 cg2d: Sum(rhs),rhsMax =   5.68434188608080E-14  4.58871950991668E+00
 Computing Diagnostic #    79 "DRHODR  " (list#  1) Parms "SM      LR      ", Count=      10
 Computing Diagnostic #    64 "RHOAnoma" (list#  1) Parms "SMR     MR      ", Count=      10
 Computing Diagnostic #    80 "CONVADJ " (list#  1) Parms "SMR     LR      ", Count=      10
 Computing Diagnostic #   210 "GM_Kwx  " (list#  1) Parms "UM      LR      ", Count=      10
             Vector  Mate for "GM_Kwx  " :  Diagnostic #    211 "GM_Kwy  " exists
 Computing Diagnostic #   211 "GM_Kwy  " (list#  1) Parms "VM      LR      ", Count=      10
             Vector  Mate for "GM_Kwy  " :  Diagnostic #    210 "GM_Kwx  " exists
 Computing Diagnostic #   212 "GM_Kwz  " (list#  1) Parms "WM P    LR      ", Count=      10
 Computing Diagnostic #   213 "GM_PsiX " (list#  1) Parms "UU      LR      ", Count=      10
             Vector  Mate for "GM_PsiX " :  Diagnostic #    214 "GM_PsiY " exists
 Computing Diagnostic #   214 "GM_PsiY " (list#  1) Parms "VV      LR      ", Count=      10
             Vector  Mate for "GM_PsiY " :  Diagnostic #    213 "GM_PsiX " exists
 EXTERNAL_FIELDS_LOAD,       130 : iP,iLd,i0,i1=    4    5    4    5 ; Wght=  0.1666666667  0.8333333333
 cg2d: Sum(rhs),rhsMax =   1.42108547152020E-13  4.55779943749919E+00
 EXTERNAL_FIELDS_LOAD,       131 : iP,iLd,i0,i1=    4    5    4    5 ; Wght=  0.1333333333  0.8666666667
 cg2d: Sum(rhs),rhsMax =   1.42108547152020E-13  4.52363619284746E+00
 EXTERNAL_FIELDS_LOAD,       132 : iP,iLd,i0,i1=    4    5    4    5 ; Wght=  0.1000000000  0.9000000000
 cg2d: Sum(rhs),rhsMax =  -2.84217094304040E-14  4.48703266660675E+00
 EXTERNAL_FIELDS_LOAD,       133 : iP,iLd,i0,i1=    4    5    4    5 ; Wght=  0.0666666667  0.9333333333
 cg2d: Sum(rhs),rhsMax =   2.84217094304040E-14  4.44880834037685E+00
 EXTERNAL_FIELDS_LOAD,       134 : iP,iLd,i0,i1=    4    5    4    5 ; Wght=  0.0333333333  0.9666666667
 cg2d: Sum(rhs),rhsMax =   2.84217094304040E-14  4.40978083286195E+00
 EXTERNAL_FIELDS_LOAD,       135 : iP,iLd,i0,i1=    4    5    5    6 ; Wght=  1.0000000000  0.0000000000
 EXTERNAL_FIELDS_LOAD, it=       135 : Reading new data, i0,i1=    5    6 (prev=    4    5 )
(PID.TID 0000.0001)  MDS_READ_FIELD: opening global file: trenberth_taux.bin
(PID.TID 0000.0001)  MDS_READ_FIELD: opening global file: trenberth_taux.bin
(PID.TID 0000.0001)  MDS_READ_FIELD: opening global file: trenberth_tauy.bin
(PID.TID 0000.0001)  MDS_READ_FIELD: opening global file: trenberth_tauy.bin
(PID.TID 0000.0001)  MDS_READ_FIELD: opening global file: shiQnet_cs32.bin
(PID.TID 0000.0001)  MDS_READ_FIELD: opening global file: shiQnet_cs32.bin
(PID.TID 0000.0001)  MDS_READ_FIELD: opening global file: shiEmPR_cs32.bin
(PID.TID 0000.0001)  MDS_READ_FIELD: opening global file: shiEmPR_cs32.bin
(PID.TID 0000.0001)  MDS_READ_FIELD: opening global file: lev_surfT_cs_12m.bin
(PID.TID 0000.0001)  MDS_READ_FIELD: opening global file: lev_surfT_cs_12m.bin
(PID.TID 0000.0001)  MDS_READ_FIELD: opening global file: lev_surfS_cs_12m.bin
(PID.TID 0000.0001)  MDS_READ_FIELD: opening global file: lev_surfS_cs_12m.bin
 cg2d: Sum(rhs),rhsMax =  -5.68434188608080E-14  4.37075225367744E+00
 Compute Stats, Diag. #    23 "ETAN    " (list#  1) Parms "SM      M1      ", vol(  0 )= 3.639E+14
 Compute Stats, Diag. #    30 "UVEL    " (list#  1) Parms "UUR     MR      ", vol(  0 )= 1.231E+18
 Compute Stats, Diag. #    31 "VVEL    " (list#  1) Parms "VVR     MR      ", vol(  0 )= 1.243E+18
 Compute Stats, Diag. #    32 "WVEL    " (list#  1) Parms "WM      LR      ", vol(  0 )= 1.315E+18
 Compute Stats, Diag. #    26 "THETA   " (list#  1) Parms "SMR     MR      ", vol(  0 )= 1.340E+18
 EXTERNAL_FIELDS_LOAD,       136 : iP,iLd,i0,i1=    5    6    5    6 ; Wght=  0.9666666667  0.0333333333
 cg2d: Sum(rhs),rhsMax =   1.13686837721616E-13  4.33251285417600E+00
 EXTERNAL_FIELDS_LOAD,       137 : iP,iLd,i0,i1=    5    6    5    6 ; Wght=  0.9333333333  0.0666666667
 cg2d: Sum(rhs),rhsMax =  -1.13686837721616E-13  4.29580145447680E+00
 EXTERNAL_FIELDS_LOAD,       138 : iP,iLd,i0,i1=    5    6    5    6 ; Wght=  0.9000000000  0.1000000000
 cg2d: Sum(rhs),rhsMax =  -1.13686837721616E-13  4.26129109755165E+00
 EXTERNAL_FIELDS_LOAD,       139 : iP,iLd,i0,i1=    5    6    5    6 ; Wght=  0.8666666667  0.1333333333
 cg2d: Sum(rhs),rhsMax =  -8.52651282912120E-14  4.22959110973126E+00
 Computing Diagnostic #    79 "DRHODR  " (list#  1) Parms "SM      LR      ", Count=      10
 Computing Diagnostic #    64 "RHOAnoma" (list#  1) Parms "SMR     MR      ", Count=      10
 Computing Diagnostic #    80 "CONVADJ " (list#  1) Parms "SMR     LR      ", Count=      10
 Computing Diagnostic #   210 "GM_Kwx  " (list#  1) Parms "UM      LR      ", Count=      10
             Vector  Mate for "GM_Kwx  " :  Diagnostic #    211 "GM_Kwy  " exists
 Computing Diagnostic #   211 "GM_Kwy  " (list#  1) Parms "VM      LR      ", Count=      10
             Vector  Mate for "GM_Kwy  " :  Diagnostic #    210 "GM_Kwx  " exists
 Computing Diagnostic #   212 "GM_Kwz  " (list#  1) Parms "WM P    LR      ", Count=      10
 Computing Diagnostic #   213 "GM_PsiX " (list#  1) Parms "UU      LR      ", Count=      10
             Vector  Mate for "GM_PsiX " :  Diagnostic #    214 "GM_PsiY " exists
 Computing Diagnostic #   214 "GM_PsiY " (list#  1) Parms "VV      LR      ", Count=      10
             Vector  Mate for "GM_PsiY " :  Diagnostic #    213 "GM_PsiX " exists
 EXTERNAL_FIELDS_LOAD,       140 : iP,iLd,i0,i1=    5    6    5    6 ; Wght=  0.8333333333  0.1666666667
 cg2d: Sum(rhs),rhsMax =   0.00000000000000E+00  4.20122099675903E+00
 EXTERNAL_FIELDS_LOAD,       141 : iP,iLd,i0,i1=    5    6    5    6 ; Wght=  0.8000000000  0.2000000000
 cg2d: Sum(rhs),rhsMax =   2.84217094304040E-14  4.17660622480782E+00
 EXTERNAL_FIELDS_LOAD,       142 : iP,iLd,i0,i1=    5    6    5    6 ; Wght=  0.7666666667  0.2333333333
 cg2d: Sum(rhs),rhsMax =  -4.26325641456060E-13  4.15607523265765E+00
 EXTERNAL_FIELDS_LOAD,       143 : iP,iLd,i0,i1=    5    6    5    6 ; Wght=  0.7333333333  0.2666666667
 cg2d: Sum(rhs),rhsMax =   0.00000000000000E+00  4.13985440407199E+00
 EXTERNAL_FIELDS_LOAD,       144 : iP,iLd,i0,i1=    5    6    5    6 ; Wght=  0.7000000000  0.3000000000
 cg2d: Sum(rhs),rhsMax =  -8.52651282912120E-14  4.12806600019780E+00
 EXTERNAL_FIELDS_LOAD,       145 : iP,iLd,i0,i1=    5    6    5    6 ; Wght=  0.6666666667  0.3333333333
 cg2d: Sum(rhs),rhsMax =   2.84217094304040E-14  4.12072831708140E+00
 Compute Stats, Diag. #    23 "ETAN    " (list#  1) Parms "SM      M1      ", vol(  0 )= 3.639E+14
 Compute Stats, Diag. #    30 "UVEL    " (list#  1) Parms "UUR     MR      ", vol(  0 )= 1.231E+18
 Compute Stats, Diag. #    31 "VVEL    " (list#  1) Parms "VVR     MR      ", vol(  0 )= 1.243E+18
 Compute Stats, Diag. #    32 "WVEL    " (list#  1) Parms "WM      LR      ", vol(  0 )= 1.315E+18
 Compute Stats, Diag. #    26 "THETA   " (list#  1) Parms "SMR     MR      ", vol(  0 )= 1.340E+18
 EXTERNAL_FIELDS_LOAD,       146 : iP,iLd,i0,i1=    5    6    5    6 ; Wght=  0.6333333333  0.3666666667
 cg2d: Sum(rhs),rhsMax =   8.52651282912120E-14  4.11775792135663E+00
 EXTERNAL_FIELDS_LOAD,       147 : iP,iLd,i0,i1=    5    6    5    6 ; Wght=  0.6000000000  0.4000000000
 cg2d: Sum(rhs),rhsMax =  -2.84217094304040E-13  4.11897527069327E+00
 EXTERNAL_FIELDS_LOAD,       148 : iP,iLd,i0,i1=    5    6    5    6 ; Wght=  0.5666666667  0.4333333333
 cg2d: Sum(rhs),rhsMax =  -5.68434188608080E-14  4.12411083356676E+00
 EXTERNAL_FIELDS_LOAD,       149 : iP,iLd,i0,i1=    5    6    5    6 ; Wght=  0.5333333333  0.4666666667
 cg2d: Sum(rhs),rhsMax =  -1.42108547152020E-13  4.13281473997519E+00
(PID.TID 0000.0001)      cg2d_init_res =   6.75982883327893E-01
(PID.TID 0000.0001)      cg2d_iters(min,last) =      -1      65
(PID.TID 0000.0001)      cg2d_last_res =   5.29176064531697E-07
(PID.TID 0000.0001) // =======================================================
(PID.TID 0000.0001) // Begin MONITOR dynamic field statistics
(PID.TID 0000.0001) // =======================================================
(PID.TID 0000.0001) %MON time_tsnumber                =                   150
(PID.TID 0000.0001) %MON time_secondsf                =   1.2960000000000E+07
(PID.TID 0000.0001) %MON dynstat_eta_max              =   8.6212740568866E-01
(PID.TID 0000.0001) %MON dynstat_eta_min              =  -1.8660141011034E+00
(PID.TID 0000.0001) %MON dynstat_eta_mean             =   5.4962157007856E-17
(PID.TID 0000.0001) %MON dynstat_eta_sd               =   6.3290821444802E-01
(PID.TID 0000.0001) %MON dynstat_eta_del2             =   6.8853296238063E-04
(PID.TID 0000.0001) %MON dynstat_uvel_max             =   1.4634412058856E-01
(PID.TID 0000.0001) %MON dynstat_uvel_min             =  -1.8898969922420E-01
(PID.TID 0000.0001) %MON dynstat_uvel_mean            =  -6.3313602693194E-04
(PID.TID 0000.0001) %MON dynstat_uvel_sd              =   1.3063625923306E-02
(PID.TID 0000.0001) %MON dynstat_uvel_del2            =   5.1883738876502E-05
(PID.TID 0000.0001) %MON dynstat_vvel_max             =   2.0546615652934E-01
(PID.TID 0000.0001) %MON dynstat_vvel_min             =  -1.4194804867782E-01
(PID.TID 0000.0001) %MON dynstat_vvel_mean            =  -4.6168996547516E-04
(PID.TID 0000.0001) %MON dynstat_vvel_sd              =   1.3012216768627E-02
(PID.TID 0000.0001) %MON dynstat_vvel_del2            =   5.2274941458253E-05
(PID.TID 0000.0001) %MON dynstat_wvel_max             =   1.7083310276793E-04
(PID.TID 0000.0001) %MON dynstat_wvel_min             =  -2.7174212708364E-04
(PID.TID 0000.0001) %MON dynstat_wvel_mean            =  -3.7132999101246E-22
(PID.TID 0000.0001) %MON dynstat_wvel_sd              =   1.2717517874684E-05
(PID.TID 0000.0001) %MON dynstat_wvel_del2            =   6.7757436107635E-08
(PID.TID 0000.0001) %MON dynstat_theta_max            =   3.1793285101646E+01
(PID.TID 0000.0001) %MON dynstat_theta_min            =  -5.9492411711642E+00
(PID.TID 0000.0001) %MON dynstat_theta_mean           =   3.6056610603765E+00
(PID.TID 0000.0001) %MON dynstat_theta_sd             =   4.4532769489824E+00
(PID.TID 0000.0001) %MON dynstat_theta_del2           =   2.1369630680213E-03
(PID.TID 0000.0001) %MON dynstat_salt_max             =   4.1616026470444E+01
(PID.TID 0000.0001) %MON dynstat_salt_min             =   1.8343563181614E+01
(PID.TID 0000.0001) %MON dynstat_salt_mean            =   3.4721260802336E+01
(PID.TID 0000.0001) %MON dynstat_salt_sd              =   4.9044940900770E-01
(PID.TID 0000.0001) %MON dynstat_salt_del2            =   6.3071786523390E-04
(PID.TID 0000.0001) %MON forcing_qnet_max             =   2.1306198854283E+02
(PID.TID 0000.0001) %MON forcing_qnet_min             =  -1.8612587055834E+02
(PID.TID 0000.0001) %MON forcing_qnet_mean            =   1.7779209533326E+01
(PID.TID 0000.0001) %MON forcing_qnet_sd              =   8.6039549543257E+01
(PID.TID 0000.0001) %MON forcing_qnet_del2            =   3.9274976073871E-01
(PID.TID 0000.0001) %MON forcing_qsw_max              =   0.0000000000000E+00
(PID.TID 0000.0001) %MON forcing_qsw_min              =   0.0000000000000E+00
(PID.TID 0000.0001) %MON forcing_qsw_mean             =   0.0000000000000E+00
(PID.TID 0000.0001) %MON forcing_qsw_sd               =   0.0000000000000E+00
(PID.TID 0000.0001) %MON forcing_qsw_del2             =   0.0000000000000E+00
(PID.TID 0000.0001) %MON forcing_empmr_max            =   7.6494447208479E-05
(PID.TID 0000.0001) %MON forcing_empmr_min            =  -1.5362614137596E-04
(PID.TID 0000.0001) %MON forcing_empmr_mean           =  -2.7256318706594E-21
(PID.TID 0000.0001) %MON forcing_empmr_sd             =   2.4051723601802E-05
(PID.TID 0000.0001) %MON forcing_empmr_del2           =   1.2276157049243E-07
(PID.TID 0000.0001) %MON forcing_fu_max               =   2.7087502733075E-01
(PID.TID 0000.0001) %MON forcing_fu_min               =  -3.1157384005291E-01
(PID.TID 0000.0001) %MON forcing_fu_mean              =  -5.9802452710338E-03
(PID.TID 0000.0001) %MON forcing_fu_sd                =   7.3367932669566E-02
(PID.TID 0000.0001) %MON forcing_fu_del2              =   2.0043372226090E-04
(PID.TID 0000.0001) %MON forcing_fv_max               =   2.7394949129489E-01
(PID.TID 0000.0001) %MON forcing_fv_min               =  -2.9997476765686E-01
(PID.TID 0000.0001) %MON forcing_fv_mean              =  -8.5312903702452E-03
(PID.TID 0000.0001) %MON forcing_fv_sd                =   6.8612871399238E-02
(PID.TID 0000.0001) %MON forcing_fv_del2              =   2.1212490881227E-04
(PID.TID 0000.0001) %MON trAdv_CFL_u_max              =   7.9584167563243E-02
(PID.TID 0000.0001) %MON trAdv_CFL_v_max              =   1.0565623333377E-01
(PID.TID 0000.0001) %MON trAdv_CFL_w_max              =   1.0411671509317E-01
(PID.TID 0000.0001) %MON advcfl_uvel_max              =   6.0986933009977E-02
(PID.TID 0000.0001) %MON advcfl_vvel_max              =   7.4069691807044E-02
(PID.TID 0000.0001) %MON advcfl_wvel_max              =   8.8598187849157E-02
(PID.TID 0000.0001) %MON advcfl_W_hf_max              =   9.7827165750110E-02
(PID.TID 0000.0001) %MON pe_b_mean                    =   5.3363700443280E-04
(PID.TID 0000.0001) %MON ke_max                       =   2.1237363322388E-02
(PID.TID 0000.0001) %MON ke_mean                      =   1.5723856699932E-04
(PID.TID 0000.0001) %MON ke_vol                       =   1.3398024453628E+18
(PID.TID 0000.0001) %MON vort_r_min                   =  -7.8623127223621E-07
(PID.TID 0000.0001) %MON vort_r_max                   =   1.2466995403773E-06
(PID.TID 0000.0001) %MON vort_a_mean                  =  -2.0549865324846E-05
(PID.TID 0000.0001) %MON vort_a_sd                    =   7.5259572901199E-05
(PID.TID 0000.0001) %MON vort_p_mean                  =  -2.4783522345032E-05
(PID.TID 0000.0001) %MON vort_p_sd                    =   1.2810433919854E-04
(PID.TID 0000.0001) %MON surfExpan_theta_mean         =   4.9426005120782E-08
(PID.TID 0000.0001) %MON surfExpan_salt_mean          =   1.6206889017880E-08
(PID.TID 0000.0001) // =======================================================
(PID.TID 0000.0001) // End MONITOR dynamic field statistics
(PID.TID 0000.0001) // =======================================================
(PID.TID 0000.0001) // =======================================================
(PID.TID 0000.0001) // Begin MONITOR ptracer field statistics
(PID.TID 0000.0001) // =======================================================
(PID.TID 0000.0001) %MON trcstat_ptracer01_max        =   1.3070693984190E+07
(PID.TID 0000.0001) %MON trcstat_ptracer01_min        =  -3.9318310345294E+05
(PID.TID 0000.0001) %MON trcstat_ptracer01_mean       =   1.2745250523033E+07
(PID.TID 0000.0001) %MON trcstat_ptracer01_sd         =   1.4362479464014E+06
(PID.TID 0000.0001) %MON trcstat_ptracer01_del2       =   3.3624590057860E+03
(PID.TID 0000.0001) // =======================================================
(PID.TID 0000.0001) // End MONITOR ptracer field statistics
(PID.TID 0000.0001) // =======================================================
 Computing Diagnostic #    79 "DRHODR  " (list#  1) Parms "SM      LR      ", Count=      10
 Computing Diagnostic #    64 "RHOAnoma" (list#  1) Parms "SMR     MR      ", Count=      10
 Computing Diagnostic #    80 "CONVADJ " (list#  1) Parms "SMR     LR      ", Count=      10
 Computing Diagnostic #   210 "GM_Kwx  " (list#  1) Parms "UM      LR      ", Count=      10
             Vector  Mate for "GM_Kwx  " :  Diagnostic #    211 "GM_Kwy  " exists
 Computing Diagnostic #   211 "GM_Kwy  " (list#  1) Parms "VM      LR      ", Count=      10
             Vector  Mate for "GM_Kwy  " :  Diagnostic #    210 "GM_Kwx  " exists
 Computing Diagnostic #   212 "GM_Kwz  " (list#  1) Parms "WM P    LR      ", Count=      10
 Computing Diagnostic #   213 "GM_PsiX " (list#  1) Parms "UU      LR      ", Count=      10
             Vector  Mate for "GM_PsiX " :  Diagnostic #    214 "GM_PsiY " exists
 Computing Diagnostic #   214 "GM_PsiY " (list#  1) Parms "VV      LR      ", Count=      10
             Vector  Mate for "GM_PsiY " :  Diagnostic #    213 "GM_PsiX " exists
 EXTERNAL_FIELDS_LOAD,       150 : iP,iLd,i0,i1=    5    6    5    6 ; Wght=  0.5000000000  0.5000000000
 cg2d: Sum(rhs),rhsMax =   1.70530256582424E-13  4.14466691031352E+00
 EXTERNAL_FIELDS_LOAD,       151 : iP,iLd,i0,i1=    5    6    5    6 ; Wght=  0.4666666667  0.5333333333
 cg2d: Sum(rhs),rhsMax =  -1.13686837721616E-13  4.15918721405195E+00
 EXTERNAL_FIELDS_LOAD,       152 : iP,iLd,i0,i1=    5    6    5    6 ; Wght=  0.4333333333  0.5666666667
 cg2d: Sum(rhs),rhsMax =  -2.84217094304040E-14  4.17584451124291E+00
 EXTERNAL_FIELDS_LOAD,       153 : iP,iLd,i0,i1=    5    6    5    6 ; Wght=  0.4000000000  0.6000000000
 cg2d: Sum(rhs),rhsMax =  -2.84217094304040E-14  4.19407208768688E+00
 EXTERNAL_FIELDS_LOAD,       154 : iP,iLd,i0,i1=    5    6    5    6 ; Wght=  0.3666666667  0.6333333333
 cg2d: Sum(rhs),rhsMax =  -2.27373675443232E-13  4.21328369606191E+00
 EXTERNAL_FIELDS_LOAD,       155 : iP,iLd,i0,i1=    5    6    5    6 ; Wght=  0.3333333333  0.6666666667
 cg2d: Sum(rhs),rhsMax =  -5.68434188608080E-14  4.23288352491445E+00
 Compute Stats, Diag. #    23 "ETAN    " (list#  1) Parms "SM      M1      ", vol(  0 )= 3.639E+14
 Compute Stats, Diag. #    30 "UVEL    " (list#  1) Parms "UUR     MR      ", vol(  0 )= 1.231E+18
 Compute Stats, Diag. #    31 "VVEL    " (list#  1) Parms "VVR     MR      ", vol(  0 )= 1.243E+18
 Compute Stats, Diag. #    32 "WVEL    " (list#  1) Parms "WM      LR      ", vol(  0 )= 1.315E+18
 Compute Stats, Diag. #    26 "THETA   " (list#  1) Parms "SMR     MR      ", vol(  0 )= 1.340E+18
 EXTERNAL_FIELDS_LOAD,       156 : iP,iLd,i0,i1=    5    6    5    6 ; Wght=  0.3000000000  0.7000000000
 cg2d: Sum(rhs),rhsMax =  -5.68434188608080E-14  4.25228444608302E+00
 EXTERNAL_FIELDS_LOAD,       157 : iP,iLd,i0,i1=    5    6    5    6 ; Wght=  0.2666666667  0.7333333333
 cg2d: Sum(rhs),rhsMax =   8.52651282912120E-14  4.27092414439116E+00
 EXTERNAL_FIELDS_LOAD,       158 : iP,iLd,i0,i1=    5    6    5    6 ; Wght=  0.2333333333  0.7666666667
 cg2d: Sum(rhs),rhsMax =  -5.68434188608080E-14  4.28826988337287E+00
 EXTERNAL_FIELDS_LOAD,       159 : iP,iLd,i0,i1=    5    6    5    6 ; Wght=  0.2000000000  0.8000000000
 cg2d: Sum(rhs),rhsMax =  -2.84217094304040E-14  4.30383787564922E+00
 Computing Diagnostic #    79 "DRHODR  " (list#  1) Parms "SM      LR      ", Count=      10
 Computing Diagnostic #    64 "RHOAnoma" (list#  1) Parms "SMR     MR      ", Count=      10
 Computing Diagnostic #    80 "CONVADJ " (list#  1) Parms "SMR     LR      ", Count=      10
 Computing Diagnostic #   210 "GM_Kwx  " (list#  1) Parms "UM      LR      ", Count=      10
             Vector  Mate for "GM_Kwx  " :  Diagnostic #    211 "GM_Kwy  " exists
 Computing Diagnostic #   211 "GM_Kwy  " (list#  1) Parms "VM      LR      ", Count=      10
             Vector  Mate for "GM_Kwy  " :  Diagnostic #    210 "GM_Kwx  " exists
 Computing Diagnostic #   212 "GM_Kwz  " (list#  1) Parms "WM P    LR      ", Count=      10
 Computing Diagnostic #   213 "GM_PsiX " (list#  1) Parms "UU      LR      ", Count=      10
             Vector  Mate for "GM_PsiX " :  Diagnostic #    214 "GM_PsiY " exists
 Computing Diagnostic #   214 "GM_PsiY " (list#  1) Parms "VV      LR      ", Count=      10
             Vector  Mate for "GM_PsiY " :  Diagnostic #    213 "GM_PsiX " exists
 EXTERNAL_FIELDS_LOAD,       160 : iP,iLd,i0,i1=    5    6    5    6 ; Wght=  0.1666666667  0.8333333333
 cg2d: Sum(rhs),rhsMax =   5.68434188608080E-14  4.31719672702358E+00
 EXTERNAL_FIELDS_LOAD,       161 : iP,iLd,i0,i1=    5    6    5    6 ; Wght=  0.1333333333  0.8666666667
 cg2d: Sum(rhs),rhsMax =   8.52651282912120E-14  4.32796080015186E+00
 EXTERNAL_FIELDS_LOAD,       162 : iP,iLd,i0,i1=    5    6    5    6 ; Wght=  0.1000000000  0.9000000000
 cg2d: Sum(rhs),rhsMax =  -1.13686837721616E-13  4.33583162254705E+00
 EXTERNAL_FIELDS_LOAD,       163 : iP,iLd,i0,i1=    5    6    5    6 ; Wght=  0.0666666667  0.9333333333
 cg2d: Sum(rhs),rhsMax =   1.13686837721616E-13  4.34059429388005E+00
 EXTERNAL_FIELDS_LOAD,       164 : iP,iLd,i0,i1=    5    6    5    6 ; Wght=  0.0333333333  0.9666666667
 cg2d: Sum(rhs),rhsMax =   8.52651282912120E-14  4.34211692789368E+00
 EXTERNAL_FIELDS_LOAD,       165 : iP,iLd,i0,i1=    5    6    6    7 ; Wght=  1.0000000000  0.0000000000
 EXTERNAL_FIELDS_LOAD, it=       165 : Reading new data, i0,i1=    6    7 (prev=    5    6 )
(PID.TID 0000.0001)  MDS_READ_FIELD: opening global file: trenberth_taux.bin
(PID.TID 0000.0001)  MDS_READ_FIELD: opening global file: trenberth_taux.bin
(PID.TID 0000.0001)  MDS_READ_FIELD: opening global file: trenberth_tauy.bin
(PID.TID 0000.0001)  MDS_READ_FIELD: opening global file: trenberth_tauy.bin
(PID.TID 0000.0001)  MDS_READ_FIELD: opening global file: shiQnet_cs32.bin
(PID.TID 0000.0001)  MDS_READ_FIELD: opening global file: shiQnet_cs32.bin
(PID.TID 0000.0001)  MDS_READ_FIELD: opening global file: shiEmPR_cs32.bin
(PID.TID 0000.0001)  MDS_READ_FIELD: opening global file: shiEmPR_cs32.bin
(PID.TID 0000.0001)  MDS_READ_FIELD: opening global file: lev_surfT_cs_12m.bin
(PID.TID 0000.0001)  MDS_READ_FIELD: opening global file: lev_surfT_cs_12m.bin
(PID.TID 0000.0001)  MDS_READ_FIELD: opening global file: lev_surfS_cs_12m.bin
(PID.TID 0000.0001)  MDS_READ_FIELD: opening global file: lev_surfS_cs_12m.bin
 cg2d: Sum(rhs),rhsMax =   1.70530256582424E-13  4.34044588095472E+00
 Compute Stats, Diag. #    23 "ETAN    " (list#  1) Parms "SM      M1      ", vol(  0 )= 3.639E+14
 Compute Stats, Diag. #    30 "UVEL    " (list#  1) Parms "UUR     MR      ", vol(  0 )= 1.231E+18
 Compute Stats, Diag. #    31 "VVEL    " (list#  1) Parms "VVR     MR      ", vol(  0 )= 1.243E+18
 Compute Stats, Diag. #    32 "WVEL    " (list#  1) Parms "WM      LR      ", vol(  0 )= 1.315E+18
 Compute Stats, Diag. #    26 "THETA   " (list#  1) Parms "SMR     MR      ", vol(  0 )= 1.340E+18
 EXTERNAL_FIELDS_LOAD,       166 : iP,iLd,i0,i1=    6    7    6    7 ; Wght=  0.9666666667  0.0333333333
 cg2d: Sum(rhs),rhsMax =  -3.41060513164848E-13  4.33541151019625E+00
 EXTERNAL_FIELDS_LOAD,       167 : iP,iLd,i0,i1=    6    7    6    7 ; Wght=  0.9333333333  0.0666666667
 cg2d: Sum(rhs),rhsMax =  -1.70530256582424E-13  4.32713004468766E+00
 EXTERNAL_FIELDS_LOAD,       168 : iP,iLd,i0,i1=    6    7    6    7 ; Wght=  0.9000000000  0.1000000000
 cg2d: Sum(rhs),rhsMax =   1.70530256582424E-13  4.31574820664954E+00
 EXTERNAL_FIELDS_LOAD,       169 : iP,iLd,i0,i1=    6    7    6    7 ; Wght=  0.8666666667  0.1333333333
 cg2d: Sum(rhs),rhsMax =   2.84217094304040E-14  4.30145886972391E+00
 Computing Diagnostic #    79 "DRHODR  " (list#  1) Parms "SM      LR      ", Count=      10
 Computing Diagnostic #    64 "RHOAnoma" (list#  1) Parms "SMR     MR      ", Count=      10
 Computing Diagnostic #    80 "CONVADJ " (list#  1) Parms "SMR     LR      ", Count=      10
 Computing Diagnostic #   210 "GM_Kwx  " (list#  1) Parms "UM      LR      ", Count=      10
             Vector  Mate for "GM_Kwx  " :  Diagnostic #    211 "GM_Kwy  " exists
 Computing Diagnostic #   211 "GM_Kwy  " (list#  1) Parms "VM      LR      ", Count=      10
             Vector  Mate for "GM_Kwy  " :  Diagnostic #    210 "GM_Kwx  " exists
 Computing Diagnostic #   212 "GM_Kwz  " (list#  1) Parms "WM P    LR      ", Count=      10
 Computing Diagnostic #   213 "GM_PsiX " (list#  1) Parms "UU      LR      ", Count=      10
             Vector  Mate for "GM_PsiX " :  Diagnostic #    214 "GM_PsiY " exists
 Computing Diagnostic #   214 "GM_PsiY " (list#  1) Parms "VV      LR      ", Count=      10
             Vector  Mate for "GM_PsiY " :  Diagnostic #    213 "GM_PsiX " exists
 EXTERNAL_FIELDS_LOAD,       170 : iP,iLd,i0,i1=    6    7    6    7 ; Wght=  0.8333333333  0.1666666667
 cg2d: Sum(rhs),rhsMax =  -1.98951966012828E-13  4.28452251240109E+00
 EXTERNAL_FIELDS_LOAD,       171 : iP,iLd,i0,i1=    6    7    6    7 ; Wght=  0.8000000000  0.2000000000
 cg2d: Sum(rhs),rhsMax =   0.00000000000000E+00  4.26524877996598E+00
 EXTERNAL_FIELDS_LOAD,       172 : iP,iLd,i0,i1=    6    7    6    7 ; Wght=  0.7666666667  0.2333333333
 cg2d: Sum(rhs),rhsMax =  -2.84217094304040E-14  4.24398307412470E+00
 EXTERNAL_FIELDS_LOAD,       173 : iP,iLd,i0,i1=    6    7    6    7 ; Wght=  0.7333333333  0.2666666667
 cg2d: Sum(rhs),rhsMax =   1.42108547152020E-13  4.22110207841074E+00
 EXTERNAL_FIELDS_LOAD,       174 : iP,iLd,i0,i1=    6    7    6    7 ; Wght=  0.7000000000  0.3000000000
 cg2d: Sum(rhs),rhsMax =  -2.84217094304040E-14  4.19700195914186E+00
 EXTERNAL_FIELDS_LOAD,       175 : iP,iLd,i0,i1=    6    7    6    7 ; Wght=  0.6666666667  0.3333333333
 cg2d: Sum(rhs),rhsMax =   0.00000000000000E+00  4.17209238698601E+00
 Compute Stats, Diag. #    23 "ETAN    " (list#  1) Parms "SM      M1      ", vol(  0 )= 3.639E+14
 Compute Stats, Diag. #    30 "UVEL    " (list#  1) Parms "UUR     MR      ", vol(  0 )= 1.231E+18
 Compute Stats, Diag. #    31 "VVEL    " (list#  1) Parms "VVR     MR      ", vol(  0 )= 1.243E+18
 Compute Stats, Diag. #    32 "WVEL    " (list#  1) Parms "WM      LR      ", vol(  0 )= 1.315E+18
 Compute Stats, Diag. #    26 "THETA   " (list#  1) Parms "SMR     MR      ", vol(  0 )= 1.340E+18
 EXTERNAL_FIELDS_LOAD,       176 : iP,iLd,i0,i1=    6    7    6    7 ; Wght=  0.6333333333  0.3666666667
 cg2d: Sum(rhs),rhsMax =   1.13686837721616E-13  4.14678505316994E+00
 EXTERNAL_FIELDS_LOAD,       177 : iP,iLd,i0,i1=    6    7    6    7 ; Wght=  0.6000000000  0.4000000000
 cg2d: Sum(rhs),rhsMax =   2.84217094304040E-14  4.12148789295663E+00
 EXTERNAL_FIELDS_LOAD,       178 : iP,iLd,i0,i1=    6    7    6    7 ; Wght=  0.5666666667  0.4333333333
 cg2d: Sum(rhs),rhsMax =  -5.68434188608080E-14  4.09658429158436E+00
 EXTERNAL_FIELDS_LOAD,       179 : iP,iLd,i0,i1=    6    7    6    7 ; Wght=  0.5333333333  0.4666666667
 cg2d: Sum(rhs),rhsMax =  -5.68434188608080E-14  4.07244227882792E+00
(PID.TID 0000.0001)      cg2d_init_res =   6.05389391242905E-01
(PID.TID 0000.0001)      cg2d_iters(min,last) =      -1      66
(PID.TID 0000.0001)      cg2d_last_res =   5.05560577551003E-07
(PID.TID 0000.0001) // =======================================================
(PID.TID 0000.0001) // Begin MONITOR dynamic field statistics
(PID.TID 0000.0001) // =======================================================
(PID.TID 0000.0001) %MON time_tsnumber                =                   180
(PID.TID 0000.0001) %MON time_secondsf                =   1.5552000000000E+07
(PID.TID 0000.0001) %MON dynstat_eta_max              =   9.1355150846765E-01
(PID.TID 0000.0001) %MON dynstat_eta_min              =  -1.8816717718898E+00
(PID.TID 0000.0001) %MON dynstat_eta_mean             =   8.2443235511784E-17
(PID.TID 0000.0001) %MON dynstat_eta_sd               =   6.3490346659307E-01
(PID.TID 0000.0001) %MON dynstat_eta_del2             =   7.1253257061588E-04
(PID.TID 0000.0001) %MON dynstat_uvel_max             =   2.9493241416057E-01
(PID.TID 0000.0001) %MON dynstat_uvel_min             =  -1.7279356903081E-01
(PID.TID 0000.0001) %MON dynstat_uvel_mean            =  -6.1278966596131E-04
(PID.TID 0000.0001) %MON dynstat_uvel_sd              =   1.3060976684182E-02
(PID.TID 0000.0001) %MON dynstat_uvel_del2            =   5.1873060667737E-05
(PID.TID 0000.0001) %MON dynstat_vvel_max             =   3.0304334615885E-01
(PID.TID 0000.0001) %MON dynstat_vvel_min             =  -1.5651175134845E-01
(PID.TID 0000.0001) %MON dynstat_vvel_mean            =  -4.5502959296662E-04
(PID.TID 0000.0001) %MON dynstat_vvel_sd              =   1.3070705670054E-02
(PID.TID 0000.0001) %MON dynstat_vvel_del2            =   5.2730156771277E-05
(PID.TID 0000.0001) %MON dynstat_wvel_max             =   1.4496929951716E-04
(PID.TID 0000.0001) %MON dynstat_wvel_min             =  -2.7821633726908E-04
(PID.TID 0000.0001) %MON dynstat_wvel_mean            =  -1.1023859108183E-22
(PID.TID 0000.0001) %MON dynstat_wvel_sd              =   1.1579155389447E-05
(PID.TID 0000.0001) %MON dynstat_wvel_del2            =   6.2916218073375E-08
(PID.TID 0000.0001) %MON dynstat_theta_max            =   3.1315264500691E+01
(PID.TID 0000.0001) %MON dynstat_theta_min            =  -6.4653203566625E+00
(PID.TID 0000.0001) %MON dynstat_theta_mean           =   3.6034560955791E+00
(PID.TID 0000.0001) %MON dynstat_theta_sd             =   4.4414765958577E+00
(PID.TID 0000.0001) %MON dynstat_theta_del2           =   2.1555850414056E-03
(PID.TID 0000.0001) %MON dynstat_salt_max             =   4.1594027524184E+01
(PID.TID 0000.0001) %MON dynstat_salt_min             =   1.8039860450709E+01
(PID.TID 0000.0001) %MON dynstat_salt_mean            =   3.4721231807615E+01
(PID.TID 0000.0001) %MON dynstat_salt_sd              =   4.9076450021409E-01
(PID.TID 0000.0001) %MON dynstat_salt_del2            =   6.3169113544318E-04
(PID.TID 0000.0001) %MON forcing_qnet_max             =   2.0229973837998E+02
(PID.TID 0000.0001) %MON forcing_qnet_min             =  -1.9718863546915E+02
(PID.TID 0000.0001) %MON forcing_qnet_mean            =   1.9596147289475E+01
(PID.TID 0000.0001) %MON forcing_qnet_sd              =   9.2166533481062E+01
(PID.TID 0000.0001) %MON forcing_qnet_del2            =   3.9201995701631E-01
(PID.TID 0000.0001) %MON forcing_qsw_max              =   0.0000000000000E+00
(PID.TID 0000.0001) %MON forcing_qsw_min              =   0.0000000000000E+00
(PID.TID 0000.0001) %MON forcing_qsw_mean             =   0.0000000000000E+00
(PID.TID 0000.0001) %MON forcing_qsw_sd               =   0.0000000000000E+00
(PID.TID 0000.0001) %MON forcing_qsw_del2             =   0.0000000000000E+00
(PID.TID 0000.0001) %MON forcing_empmr_max            =   7.6494447208479E-05
(PID.TID 0000.0001) %MON forcing_empmr_min            =  -1.5362614137596E-04
(PID.TID 0000.0001) %MON forcing_empmr_mean           =  -2.7256318706594E-21
(PID.TID 0000.0001) %MON forcing_empmr_sd             =   2.4051723601802E-05
(PID.TID 0000.0001) %MON forcing_empmr_del2           =   1.2276157049243E-07
(PID.TID 0000.0001) %MON forcing_fu_max               =   3.3519419512490E-01
(PID.TID 0000.0001) %MON forcing_fu_min               =  -2.6040991621841E-01
(PID.TID 0000.0001) %MON forcing_fu_mean              =  -2.7210120622396E-03
(PID.TID 0000.0001) %MON forcing_fu_sd                =   8.0360246474857E-02
(PID.TID 0000.0001) %MON forcing_fu_del2              =   2.2269164233251E-04
(PID.TID 0000.0001) %MON forcing_fv_max               =   3.3932416083857E-01
(PID.TID 0000.0001) %MON forcing_fv_min               =  -3.6036762335569E-01
(PID.TID 0000.0001) %MON forcing_fv_mean              =  -7.2632087421189E-03
(PID.TID 0000.0001) %MON forcing_fv_sd                =   7.4683547988714E-02
(PID.TID 0000.0001) %MON forcing_fv_del2              =   2.4339892805045E-04
(PID.TID 0000.0001) %MON trAdv_CFL_u_max              =   1.4925744301356E-01
(PID.TID 0000.0001) %MON trAdv_CFL_v_max              =   1.2021287079377E-01
(PID.TID 0000.0001) %MON trAdv_CFL_w_max              =   1.4548733604504E-01
(PID.TID 0000.0001) %MON advcfl_uvel_max              =   8.5311142773068E-02
(PID.TID 0000.0001) %MON advcfl_vvel_max              =   8.7120079180638E-02
(PID.TID 0000.0001) %MON advcfl_wvel_max              =   9.0709024679430E-02
(PID.TID 0000.0001) %MON advcfl_W_hf_max              =   1.0015788141687E-01
(PID.TID 0000.0001) %MON pe_b_mean                    =   5.3700690438991E-04
(PID.TID 0000.0001) %MON ke_max                       =   5.2632890570266E-02
(PID.TID 0000.0001) %MON ke_mean                      =   1.5789947628409E-04
(PID.TID 0000.0001) %MON ke_vol                       =   1.3398024453628E+18
(PID.TID 0000.0001) %MON vort_r_min                   =  -7.2825572435616E-07
(PID.TID 0000.0001) %MON vort_r_max                   =   1.6338838830959E-06
(PID.TID 0000.0001) %MON vort_a_mean                  =  -2.0549865324846E-05
(PID.TID 0000.0001) %MON vort_a_sd                    =   7.5259603577240E-05
(PID.TID 0000.0001) %MON vort_p_mean                  =  -2.4783522345032E-05
(PID.TID 0000.0001) %MON vort_p_sd                    =   1.2810499985159E-04
(PID.TID 0000.0001) %MON surfExpan_theta_mean         =   9.0537643090347E-08
(PID.TID 0000.0001) %MON surfExpan_salt_mean          =   1.3994897552759E-08
(PID.TID 0000.0001) // =======================================================
(PID.TID 0000.0001) // End MONITOR dynamic field statistics
(PID.TID 0000.0001) // =======================================================
(PID.TID 0000.0001) // =======================================================
(PID.TID 0000.0001) // Begin MONITOR ptracer field statistics
(PID.TID 0000.0001) // =======================================================
(PID.TID 0000.0001) %MON trcstat_ptracer01_max        =   1.5745564895450E+07
(PID.TID 0000.0001) %MON trcstat_ptracer01_min        =  -6.4092055373609E+05
(PID.TID 0000.0001) %MON trcstat_ptracer01_mean       =   1.5282798625263E+07
(PID.TID 0000.0001) %MON trcstat_ptracer01_sd         =   1.7119014866881E+06
(PID.TID 0000.0001) %MON trcstat_ptracer01_del2       =   5.0037033206462E+03
(PID.TID 0000.0001) // =======================================================
(PID.TID 0000.0001) // End MONITOR ptracer field statistics
(PID.TID 0000.0001) // =======================================================
 Computing Diagnostic #    79 "DRHODR  " (list#  1) Parms "SM      LR      ", Count=      10
 Computing Diagnostic #    64 "RHOAnoma" (list#  1) Parms "SMR     MR      ", Count=      10
 Computing Diagnostic #    80 "CONVADJ " (list#  1) Parms "SMR     LR      ", Count=      10
 Computing Diagnostic #   210 "GM_Kwx  " (list#  1) Parms "UM      LR      ", Count=      10
             Vector  Mate for "GM_Kwx  " :  Diagnostic #    211 "GM_Kwy  " exists
 Computing Diagnostic #   211 "GM_Kwy  " (list#  1) Parms "VM      LR      ", Count=      10
             Vector  Mate for "GM_Kwy  " :  Diagnostic #    210 "GM_Kwx  " exists
 Computing Diagnostic #   212 "GM_Kwz  " (list#  1) Parms "WM P    LR      ", Count=      10
 Computing Diagnostic #   213 "GM_PsiX " (list#  1) Parms "UU      LR      ", Count=      10
             Vector  Mate for "GM_PsiX " :  Diagnostic #    214 "GM_PsiY " exists
 Computing Diagnostic #   214 "GM_PsiY " (list#  1) Parms "VV      LR      ", Count=      10
             Vector  Mate for "GM_PsiY " :  Diagnostic #    213 "GM_PsiX " exists
 EXTERNAL_FIELDS_LOAD,       180 : iP,iLd,i0,i1=    6    7    6    7 ; Wght=  0.5000000000  0.5000000000
 cg2d: Sum(rhs),rhsMax =   1.70530256582424E-13  4.04939410498089E+00
 EXTERNAL_FIELDS_LOAD,       181 : iP,iLd,i0,i1=    6    7    6    7 ; Wght=  0.4666666667  0.5333333333
 cg2d: Sum(rhs),rhsMax =  -5.68434188608080E-14  4.02773819204883E+00
 EXTERNAL_FIELDS_LOAD,       182 : iP,iLd,i0,i1=    6    7    6    7 ; Wght=  0.4333333333  0.5666666667
 cg2d: Sum(rhs),rhsMax =   8.52651282912120E-14  4.00772892693562E+00
 EXTERNAL_FIELDS_LOAD,       183 : iP,iLd,i0,i1=    6    7    6    7 ; Wght=  0.4000000000  0.6000000000
 cg2d: Sum(rhs),rhsMax =  -1.42108547152020E-13  3.98957994062518E+00
 EXTERNAL_FIELDS_LOAD,       184 : iP,iLd,i0,i1=    6    7    6    7 ; Wght=  0.3666666667  0.6333333333
 cg2d: Sum(rhs),rhsMax =  -2.84217094304040E-14  3.97344897932591E+00
 EXTERNAL_FIELDS_LOAD,       185 : iP,iLd,i0,i1=    6    7    6    7 ; Wght=  0.3333333333  0.6666666667
 cg2d: Sum(rhs),rhsMax =  -5.68434188608080E-14  3.95944131753137E+00
 Compute Stats, Diag. #    23 "ETAN    " (list#  1) Parms "SM      M1      ", vol(  0 )= 3.639E+14
 Compute Stats, Diag. #    30 "UVEL    " (list#  1) Parms "UUR     MR      ", vol(  0 )= 1.231E+18
 Compute Stats, Diag. #    31 "VVEL    " (list#  1) Parms "VVR     MR      ", vol(  0 )= 1.243E+18
 Compute Stats, Diag. #    32 "WVEL    " (list#  1) Parms "WM      LR      ", vol(  0 )= 1.315E+18
 Compute Stats, Diag. #    26 "THETA   " (list#  1) Parms "SMR     MR      ", vol(  0 )= 1.340E+18
 EXTERNAL_FIELDS_LOAD,       186 : iP,iLd,i0,i1=    6    7    6    7 ; Wght=  0.3000000000  0.7000000000
 cg2d: Sum(rhs),rhsMax =   1.13686837721616E-13  3.94762559907075E+00
 EXTERNAL_FIELDS_LOAD,       187 : iP,iLd,i0,i1=    6    7    6    7 ; Wght=  0.2666666667  0.7333333333
 cg2d: Sum(rhs),rhsMax =  -8.52651282912120E-14  3.93801708005982E+00
 EXTERNAL_FIELDS_LOAD,       188 : iP,iLd,i0,i1=    6    7    6    7 ; Wght=  0.2333333333  0.7666666667
 cg2d: Sum(rhs),rhsMax =  -5.68434188608080E-14  3.93058444927994E+00
 EXTERNAL_FIELDS_LOAD,       189 : iP,iLd,i0,i1=    6    7    6    7 ; Wght=  0.2000000000  0.8000000000
 cg2d: Sum(rhs),rhsMax =   2.27373675443232E-13  3.92525177956587E+00
 Computing Diagnostic #    79 "DRHODR  " (list#  1) Parms "SM      LR      ", Count=      10
 Computing Diagnostic #    64 "RHOAnoma" (list#  1) Parms "SMR     MR      ", Count=      10
 Computing Diagnostic #    80 "CONVADJ " (list#  1) Parms "SMR     LR      ", Count=      10
 Computing Diagnostic #   210 "GM_Kwx  " (list#  1) Parms "UM      LR      ", Count=      10
             Vector  Mate for "GM_Kwx  " :  Diagnostic #    211 "GM_Kwy  " exists
 Computing Diagnostic #   211 "GM_Kwy  " (list#  1) Parms "VM      LR      ", Count=      10
             Vector  Mate for "GM_Kwy  " :  Diagnostic #    210 "GM_Kwx  " exists
 Computing Diagnostic #   212 "GM_Kwz  " (list#  1) Parms "WM P    LR      ", Count=      10
 Computing Diagnostic #   213 "GM_PsiX " (list#  1) Parms "UU      LR      ", Count=      10
             Vector  Mate for "GM_PsiX " :  Diagnostic #    214 "GM_PsiY " exists
 Computing Diagnostic #   214 "GM_PsiY " (list#  1) Parms "VV      LR      ", Count=      10
             Vector  Mate for "GM_PsiY " :  Diagnostic #    213 "GM_PsiX " exists
 EXTERNAL_FIELDS_LOAD,       190 : iP,iLd,i0,i1=    6    7    6    7 ; Wght=  0.1666666667  0.8333333333
 cg2d: Sum(rhs),rhsMax =  -1.13686837721616E-13  3.92190096420823E+00
 EXTERNAL_FIELDS_LOAD,       191 : iP,iLd,i0,i1=    6    7    6    7 ; Wght=  0.1333333333  0.8666666667
 cg2d: Sum(rhs),rhsMax =   1.42108547152020E-13  3.92037646207514E+00
 EXTERNAL_FIELDS_LOAD,       192 : iP,iLd,i0,i1=    6    7    6    7 ; Wght=  0.1000000000  0.9000000000
 cg2d: Sum(rhs),rhsMax =  -8.52651282912120E-14  3.92048652668866E+00
 EXTERNAL_FIELDS_LOAD,       193 : iP,iLd,i0,i1=    6    7    6    7 ; Wght=  0.0666666667  0.9333333333
 cg2d: Sum(rhs),rhsMax =  -5.68434188608080E-14  3.92201086880657E+00
 EXTERNAL_FIELDS_LOAD,       194 : iP,iLd,i0,i1=    6    7    6    7 ; Wght=  0.0333333333  0.9666666667
 cg2d: Sum(rhs),rhsMax =  -1.70530256582424E-13  3.92470317790424E+00
 EXTERNAL_FIELDS_LOAD,       195 : iP,iLd,i0,i1=    6    7    7    8 ; Wght=  1.0000000000  0.0000000000
 EXTERNAL_FIELDS_LOAD, it=       195 : Reading new data, i0,i1=    7    8 (prev=    6    7 )
(PID.TID 0000.0001)  MDS_READ_FIELD: opening global file: trenberth_taux.bin
(PID.TID 0000.0001)  MDS_READ_FIELD: opening global file: trenberth_taux.bin
(PID.TID 0000.0001)  MDS_READ_FIELD: opening global file: trenberth_tauy.bin
(PID.TID 0000.0001)  MDS_READ_FIELD: opening global file: trenberth_tauy.bin
(PID.TID 0000.0001)  MDS_READ_FIELD: opening global file: shiQnet_cs32.bin
(PID.TID 0000.0001)  MDS_READ_FIELD: opening global file: shiQnet_cs32.bin
(PID.TID 0000.0001)  MDS_READ_FIELD: opening global file: shiEmPR_cs32.bin
(PID.TID 0000.0001)  MDS_READ_FIELD: opening global file: shiEmPR_cs32.bin
(PID.TID 0000.0001)  MDS_READ_FIELD: opening global file: lev_surfT_cs_12m.bin
(PID.TID 0000.0001)  MDS_READ_FIELD: opening global file: lev_surfT_cs_12m.bin
(PID.TID 0000.0001)  MDS_READ_FIELD: opening global file: lev_surfS_cs_12m.bin
(PID.TID 0000.0001)  MDS_READ_FIELD: opening global file: lev_surfS_cs_12m.bin
 cg2d: Sum(rhs),rhsMax =  -1.70530256582424E-13  3.92829747902486E+00
 Compute Stats, Diag. #    23 "ETAN    " (list#  1) Parms "SM      M1      ", vol(  0 )= 3.639E+14
 Compute Stats, Diag. #    30 "UVEL    " (list#  1) Parms "UUR     MR      ", vol(  0 )= 1.231E+18
 Compute Stats, Diag. #    31 "VVEL    " (list#  1) Parms "VVR     MR      ", vol(  0 )= 1.243E+18
 Compute Stats, Diag. #    32 "WVEL    " (list#  1) Parms "WM      LR      ", vol(  0 )= 1.315E+18
 Compute Stats, Diag. #    26 "THETA   " (list#  1) Parms "SMR     MR      ", vol(  0 )= 1.340E+18
 EXTERNAL_FIELDS_LOAD,       196 : iP,iLd,i0,i1=    7    8    7    8 ; Wght=  0.9666666667  0.0333333333
 cg2d: Sum(rhs),rhsMax =  -2.55795384873636E-13  3.93257232560173E+00
 EXTERNAL_FIELDS_LOAD,       197 : iP,iLd,i0,i1=    7    8    7    8 ; Wght=  0.9333333333  0.0666666667
 cg2d: Sum(rhs),rhsMax =  -8.52651282912120E-14  3.93730103444388E+00
 EXTERNAL_FIELDS_LOAD,       198 : iP,iLd,i0,i1=    7    8    7    8 ; Wght=  0.9000000000  0.1000000000
 cg2d: Sum(rhs),rhsMax =  -8.52651282912120E-14  3.94214739942907E+00
 EXTERNAL_FIELDS_LOAD,       199 : iP,iLd,i0,i1=    7    8    7    8 ; Wght=  0.8666666667  0.1333333333
 cg2d: Sum(rhs),rhsMax =  -8.52651282912120E-14  3.94681394133605E+00
 Computing Diagnostic #    79 "DRHODR  " (list#  1) Parms "SM      LR      ", Count=      10
 Computing Diagnostic #    64 "RHOAnoma" (list#  1) Parms "SMR     MR      ", Count=      10
 Computing Diagnostic #    80 "CONVADJ " (list#  1) Parms "SMR     LR      ", Count=      10
 Computing Diagnostic #   210 "GM_Kwx  " (list#  1) Parms "UM      LR      ", Count=      10
             Vector  Mate for "GM_Kwx  " :  Diagnostic #    211 "GM_Kwy  " exists
 Computing Diagnostic #   211 "GM_Kwy  " (list#  1) Parms "VM      LR      ", Count=      10
             Vector  Mate for "GM_Kwy  " :  Diagnostic #    210 "GM_Kwx  " exists
 Computing Diagnostic #   212 "GM_Kwz  " (list#  1) Parms "WM P    LR      ", Count=      10
 Computing Diagnostic #   213 "GM_PsiX " (list#  1) Parms "UU      LR      ", Count=      10
             Vector  Mate for "GM_PsiX " :  Diagnostic #    214 "GM_PsiY " exists
 Computing Diagnostic #   214 "GM_PsiY " (list#  1) Parms "VV      LR      ", Count=      10
             Vector  Mate for "GM_PsiY " :  Diagnostic #    213 "GM_PsiX " exists
 EXTERNAL_FIELDS_LOAD,       200 : iP,iLd,i0,i1=    7    8    7    8 ; Wght=  0.8333333333  0.1666666667
 cg2d: Sum(rhs),rhsMax =   2.27373675443232E-13  3.95102305186490E+00
 EXTERNAL_FIELDS_LOAD,       201 : iP,iLd,i0,i1=    7    8    7    8 ; Wght=  0.8000000000  0.2000000000
 cg2d: Sum(rhs),rhsMax =   1.42108547152020E-13  3.95451938858360E+00
 EXTERNAL_FIELDS_LOAD,       202 : iP,iLd,i0,i1=    7    8    7    8 ; Wght=  0.7666666667  0.2333333333
 cg2d: Sum(rhs),rhsMax =  -2.27373675443232E-13  3.95707729298719E+00
 EXTERNAL_FIELDS_LOAD,       203 : iP,iLd,i0,i1=    7    8    7    8 ; Wght=  0.7333333333  0.2666666667
 cg2d: Sum(rhs),rhsMax =   2.27373675443232E-13  3.95850338647634E+00
 EXTERNAL_FIELDS_LOAD,       204 : iP,iLd,i0,i1=    7    8    7    8 ; Wght=  0.7000000000  0.3000000000
 cg2d: Sum(rhs),rhsMax =   1.42108547152020E-13  3.95863810030142E+00
 EXTERNAL_FIELDS_LOAD,       205 : iP,iLd,i0,i1=    7    8    7    8 ; Wght=  0.6666666667  0.3333333333
 cg2d: Sum(rhs),rhsMax =  -2.84217094304040E-14  3.95735547551714E+00
 Compute Stats, Diag. #    23 "ETAN    " (list#  1) Parms "SM      M1      ", vol(  0 )= 3.639E+14
 Compute Stats, Diag. #    30 "UVEL    " (list#  1) Parms "UUR     MR      ", vol(  0 )= 1.231E+18
 Compute Stats, Diag. #    31 "VVEL    " (list#  1) Parms "VVR     MR      ", vol(  0 )= 1.243E+18
 Compute Stats, Diag. #    32 "WVEL    " (list#  1) Parms "WM      LR      ", vol(  0 )= 1.315E+18
 Compute Stats, Diag. #    26 "THETA   " (list#  1) Parms "SMR     MR      ", vol(  0 )= 1.340E+18
 EXTERNAL_FIELDS_LOAD,       206 : iP,iLd,i0,i1=    7    8    7    8 ; Wght=  0.6333333333  0.3666666667
 cg2d: Sum(rhs),rhsMax =   5.68434188608080E-14  3.95456507421059E+00
 EXTERNAL_FIELDS_LOAD,       207 : iP,iLd,i0,i1=    7    8    7    8 ; Wght=  0.6000000000  0.4000000000
 cg2d: Sum(rhs),rhsMax =  -2.84217094304040E-13  3.95020728924441E+00
 EXTERNAL_FIELDS_LOAD,       208 : iP,iLd,i0,i1=    7    8    7    8 ; Wght=  0.5666666667  0.4333333333
 cg2d: Sum(rhs),rhsMax =  -1.98951966012828E-13  3.94517001751690E+00
 EXTERNAL_FIELDS_LOAD,       209 : iP,iLd,i0,i1=    7    8    7    8 ; Wght=  0.5333333333  0.4666666667
 cg2d: Sum(rhs),rhsMax =   5.68434188608080E-14  3.95104680087420E+00
(PID.TID 0000.0001)      cg2d_init_res =   5.56947493558151E-01
(PID.TID 0000.0001)      cg2d_iters(min,last) =      -1      64
(PID.TID 0000.0001)      cg2d_last_res =   4.73036744395529E-07
(PID.TID 0000.0001) // =======================================================
(PID.TID 0000.0001) // Begin MONITOR dynamic field statistics
(PID.TID 0000.0001) // =======================================================
(PID.TID 0000.0001) %MON time_tsnumber                =                   210
(PID.TID 0000.0001) %MON time_secondsf                =   1.8144000000000E+07
(PID.TID 0000.0001) %MON dynstat_eta_max              =   9.4087097960272E-01
(PID.TID 0000.0001) %MON dynstat_eta_min              =  -1.8795507829994E+00
(PID.TID 0000.0001) %MON dynstat_eta_mean             =   2.1984862803142E-16
(PID.TID 0000.0001) %MON dynstat_eta_sd               =   6.3566408660887E-01
(PID.TID 0000.0001) %MON dynstat_eta_del2             =   7.1723606148629E-04
(PID.TID 0000.0001) %MON dynstat_uvel_max             =   4.3093739551757E-01
(PID.TID 0000.0001) %MON dynstat_uvel_min             =  -1.8260032573549E-01
(PID.TID 0000.0001) %MON dynstat_uvel_mean            =  -6.1121811678406E-04
(PID.TID 0000.0001) %MON dynstat_uvel_sd              =   1.3164554507324E-02
(PID.TID 0000.0001) %MON dynstat_uvel_del2            =   5.2536478441685E-05
(PID.TID 0000.0001) %MON dynstat_vvel_max             =   4.0675295125811E-01
(PID.TID 0000.0001) %MON dynstat_vvel_min             =  -2.1525214587447E-01
(PID.TID 0000.0001) %MON dynstat_vvel_mean            =  -4.6296961287050E-04
(PID.TID 0000.0001) %MON dynstat_vvel_sd              =   1.3327321229892E-02
(PID.TID 0000.0001) %MON dynstat_vvel_del2            =   5.3742734226685E-05
(PID.TID 0000.0001) %MON dynstat_wvel_max             =   1.4924055930393E-04
(PID.TID 0000.0001) %MON dynstat_wvel_min             =  -2.7224918792719E-04
(PID.TID 0000.0001) %MON dynstat_wvel_mean            =  -9.2832497753116E-23
(PID.TID 0000.0001) %MON dynstat_wvel_sd              =   1.1149246780949E-05
(PID.TID 0000.0001) %MON dynstat_wvel_del2            =   5.6411862320673E-08
(PID.TID 0000.0001) %MON dynstat_theta_max            =   3.1266855129342E+01
(PID.TID 0000.0001) %MON dynstat_theta_min            =  -6.5792565236981E+00
(PID.TID 0000.0001) %MON dynstat_theta_mean           =   3.6021823584020E+00
(PID.TID 0000.0001) %MON dynstat_theta_sd             =   4.4348625807647E+00
(PID.TID 0000.0001) %MON dynstat_theta_del2           =   2.2424697107120E-03
(PID.TID 0000.0001) %MON dynstat_salt_max             =   4.1488454527911E+01
(PID.TID 0000.0001) %MON dynstat_salt_min             =   1.8025983689201E+01
(PID.TID 0000.0001) %MON dynstat_salt_mean            =   3.4721198374278E+01
(PID.TID 0000.0001) %MON dynstat_salt_sd              =   4.9110399175376E-01
(PID.TID 0000.0001) %MON dynstat_salt_del2            =   6.4001611941588E-04
(PID.TID 0000.0001) %MON forcing_qnet_max             =   2.6623444985897E+02
(PID.TID 0000.0001) %MON forcing_qnet_min             =  -2.1164738352902E+02
(PID.TID 0000.0001) %MON forcing_qnet_mean            =   1.3490614180387E+01
(PID.TID 0000.0001) %MON forcing_qnet_sd              =   7.9941125037902E+01
(PID.TID 0000.0001) %MON forcing_qnet_del2            =   3.9351193552263E-01
(PID.TID 0000.0001) %MON forcing_qsw_max              =   0.0000000000000E+00
(PID.TID 0000.0001) %MON forcing_qsw_min              =   0.0000000000000E+00
(PID.TID 0000.0001) %MON forcing_qsw_mean             =   0.0000000000000E+00
(PID.TID 0000.0001) %MON forcing_qsw_sd               =   0.0000000000000E+00
(PID.TID 0000.0001) %MON forcing_qsw_del2             =   0.0000000000000E+00
(PID.TID 0000.0001) %MON forcing_empmr_max            =   7.6494447208479E-05
(PID.TID 0000.0001) %MON forcing_empmr_min            =  -1.5362614137596E-04
(PID.TID 0000.0001) %MON forcing_empmr_mean           =  -2.7256318706594E-21
(PID.TID 0000.0001) %MON forcing_empmr_sd             =   2.4051723601802E-05
(PID.TID 0000.0001) %MON forcing_empmr_del2           =   1.2276157049243E-07
(PID.TID 0000.0001) %MON forcing_fu_max               =   3.7939488069330E-01
(PID.TID 0000.0001) %MON forcing_fu_min               =  -3.0387787452663E-01
(PID.TID 0000.0001) %MON forcing_fu_mean              =  -4.7816371445427E-03
(PID.TID 0000.0001) %MON forcing_fu_sd                =   8.4774595803944E-02
(PID.TID 0000.0001) %MON forcing_fu_del2              =   2.3419656372830E-04
(PID.TID 0000.0001) %MON forcing_fv_max               =   3.6307584767778E-01
(PID.TID 0000.0001) %MON forcing_fv_min               =  -3.9408330405910E-01
(PID.TID 0000.0001) %MON forcing_fv_mean              =  -7.2982255147446E-03
(PID.TID 0000.0001) %MON forcing_fv_sd                =   8.0365850907335E-02
(PID.TID 0000.0001) %MON forcing_fv_del2              =   2.4868806625824E-04
(PID.TID 0000.0001) %MON trAdv_CFL_u_max              =   1.3671566768131E-01
(PID.TID 0000.0001) %MON trAdv_CFL_v_max              =   1.1674086236674E-01
(PID.TID 0000.0001) %MON trAdv_CFL_w_max              =   1.5103625389145E-01
(PID.TID 0000.0001) %MON advcfl_uvel_max              =   1.2465147915291E-01
(PID.TID 0000.0001) %MON advcfl_vvel_max              =   1.1693491960714E-01
(PID.TID 0000.0001) %MON advcfl_wvel_max              =   8.8763508818525E-02
(PID.TID 0000.0001) %MON advcfl_W_hf_max              =   9.8009707653787E-02
(PID.TID 0000.0001) %MON pe_b_mean                    =   5.3829435323809E-04
(PID.TID 0000.0001) %MON ke_max                       =   9.4308557738453E-02
(PID.TID 0000.0001) %MON ke_mean                      =   1.6229456048020E-04
(PID.TID 0000.0001) %MON ke_vol                       =   1.3398024453628E+18
(PID.TID 0000.0001) %MON vort_r_min                   =  -9.3075629760136E-07
(PID.TID 0000.0001) %MON vort_r_max                   =   2.2173459901297E-06
(PID.TID 0000.0001) %MON vort_a_mean                  =  -2.0549865324846E-05
(PID.TID 0000.0001) %MON vort_a_sd                    =   7.5259618649673E-05
(PID.TID 0000.0001) %MON vort_p_mean                  =  -2.4783522345032E-05
(PID.TID 0000.0001) %MON vort_p_sd                    =   1.2810554911906E-04
(PID.TID 0000.0001) %MON surfExpan_theta_mean         =   5.3266156088476E-08
(PID.TID 0000.0001) %MON surfExpan_salt_mean          =   1.5280094757840E-08
(PID.TID 0000.0001) // =======================================================
(PID.TID 0000.0001) // End MONITOR dynamic field statistics
(PID.TID 0000.0001) // =======================================================
(PID.TID 0000.0001) // =======================================================
(PID.TID 0000.0001) // Begin MONITOR ptracer field statistics
(PID.TID 0000.0001) // =======================================================
(PID.TID 0000.0001) %MON trcstat_ptracer01_max        =   1.8678562734368E+07
(PID.TID 0000.0001) %MON trcstat_ptracer01_min        =  -4.5071614362380E+05
(PID.TID 0000.0001) %MON trcstat_ptracer01_mean       =   1.7806300117388E+07
(PID.TID 0000.0001) %MON trcstat_ptracer01_sd         =   2.0309203936684E+06
(PID.TID 0000.0001) %MON trcstat_ptracer01_del2       =   5.7718222392886E+03
(PID.TID 0000.0001) // =======================================================
(PID.TID 0000.0001) // End MONITOR ptracer field statistics
(PID.TID 0000.0001) // =======================================================
 Computing Diagnostic #    79 "DRHODR  " (list#  1) Parms "SM      LR      ", Count=      10
 Computing Diagnostic #    64 "RHOAnoma" (list#  1) Parms "SMR     MR      ", Count=      10
 Computing Diagnostic #    80 "CONVADJ " (list#  1) Parms "SMR     LR      ", Count=      10
 Computing Diagnostic #   210 "GM_Kwx  " (list#  1) Parms "UM      LR      ", Count=      10
             Vector  Mate for "GM_Kwx  " :  Diagnostic #    211 "GM_Kwy  " exists
 Computing Diagnostic #   211 "GM_Kwy  " (list#  1) Parms "VM      LR      ", Count=      10
             Vector  Mate for "GM_Kwy  " :  Diagnostic #    210 "GM_Kwx  " exists
 Computing Diagnostic #   212 "GM_Kwz  " (list#  1) Parms "WM P    LR      ", Count=      10
 Computing Diagnostic #   213 "GM_PsiX " (list#  1) Parms "UU      LR      ", Count=      10
             Vector  Mate for "GM_PsiX " :  Diagnostic #    214 "GM_PsiY " exists
 Computing Diagnostic #   214 "GM_PsiY " (list#  1) Parms "VV      LR      ", Count=      10
             Vector  Mate for "GM_PsiY " :  Diagnostic #    213 "GM_PsiX " exists
 EXTERNAL_FIELDS_LOAD,       210 : iP,iLd,i0,i1=    7    8    7    8 ; Wght=  0.5000000000  0.5000000000
 cg2d: Sum(rhs),rhsMax =  -5.68434188608080E-14  3.95267782939702E+00
 EXTERNAL_FIELDS_LOAD,       211 : iP,iLd,i0,i1=    7    8    7    8 ; Wght=  0.4666666667  0.5333333333
 cg2d: Sum(rhs),rhsMax =   1.42108547152020E-13  3.95013675170757E+00
 EXTERNAL_FIELDS_LOAD,       212 : iP,iLd,i0,i1=    7    8    7    8 ; Wght=  0.4333333333  0.5666666667
 cg2d: Sum(rhs),rhsMax =   2.84217094304040E-14  3.94359507042181E+00
 EXTERNAL_FIELDS_LOAD,       213 : iP,iLd,i0,i1=    7    8    7    8 ; Wght=  0.4000000000  0.6000000000
 cg2d: Sum(rhs),rhsMax =   5.68434188608080E-14  3.93331582211197E+00
 EXTERNAL_FIELDS_LOAD,       214 : iP,iLd,i0,i1=    7    8    7    8 ; Wght=  0.3666666667  0.6333333333
 cg2d: Sum(rhs),rhsMax =  -2.55795384873636E-13  3.91964544212144E+00
 EXTERNAL_FIELDS_LOAD,       215 : iP,iLd,i0,i1=    7    8    7    8 ; Wght=  0.3333333333  0.6666666667
 cg2d: Sum(rhs),rhsMax =  -8.52651282912120E-14  3.90300289831193E+00
 Compute Stats, Diag. #    23 "ETAN    " (list#  1) Parms "SM      M1      ", vol(  0 )= 3.639E+14
 Compute Stats, Diag. #    30 "UVEL    " (list#  1) Parms "UUR     MR      ", vol(  0 )= 1.231E+18
 Compute Stats, Diag. #    31 "VVEL    " (list#  1) Parms "VVR     MR      ", vol(  0 )= 1.243E+18
 Compute Stats, Diag. #    32 "WVEL    " (list#  1) Parms "WM      LR      ", vol(  0 )= 1.315E+18
 Compute Stats, Diag. #    26 "THETA   " (list#  1) Parms "SMR     MR      ", vol(  0 )= 1.340E+18
 EXTERNAL_FIELDS_LOAD,       216 : iP,iLd,i0,i1=    7    8    7    8 ; Wght=  0.3000000000  0.7000000000
 cg2d: Sum(rhs),rhsMax =   1.42108547152020E-13  3.88386774250964E+00
 EXTERNAL_FIELDS_LOAD,       217 : iP,iLd,i0,i1=    7    8    7    8 ; Wght=  0.2666666667  0.7333333333
 cg2d: Sum(rhs),rhsMax =  -8.52651282912120E-14  3.86276658174220E+00
 EXTERNAL_FIELDS_LOAD,       218 : iP,iLd,i0,i1=    7    8    7    8 ; Wght=  0.2333333333  0.7666666667
 cg2d: Sum(rhs),rhsMax =  -2.55795384873636E-13  3.84025981906396E+00
 EXTERNAL_FIELDS_LOAD,       219 : iP,iLd,i0,i1=    7    8    7    8 ; Wght=  0.2000000000  0.8000000000
 cg2d: Sum(rhs),rhsMax =   2.84217094304040E-14  3.81692771767235E+00
 Computing Diagnostic #    79 "DRHODR  " (list#  1) Parms "SM      LR      ", Count=      10
 Computing Diagnostic #    64 "RHOAnoma" (list#  1) Parms "SMR     MR      ", Count=      10
 Computing Diagnostic #    80 "CONVADJ " (list#  1) Parms "SMR     LR      ", Count=      10
 Computing Diagnostic #   210 "GM_Kwx  " (list#  1) Parms "UM      LR      ", Count=      10
             Vector  Mate for "GM_Kwx  " :  Diagnostic #    211 "GM_Kwy  " exists
 Computing Diagnostic #   211 "GM_Kwy  " (list#  1) Parms "VM      LR      ", Count=      10
             Vector  Mate for "GM_Kwy  " :  Diagnostic #    210 "GM_Kwx  " exists
 Computing Diagnostic #   212 "GM_Kwz  " (list#  1) Parms "WM P    LR      ", Count=      10
 Computing Diagnostic #   213 "GM_PsiX " (list#  1) Parms "UU      LR      ", Count=      10
             Vector  Mate for "GM_PsiX " :  Diagnostic #    214 "GM_PsiY " exists
 Computing Diagnostic #   214 "GM_PsiY " (list#  1) Parms "VV      LR      ", Count=      10
             Vector  Mate for "GM_PsiY " :  Diagnostic #    213 "GM_PsiX " exists
 EXTERNAL_FIELDS_LOAD,       220 : iP,iLd,i0,i1=    7    8    7    8 ; Wght=  0.1666666667  0.8333333333
 cg2d: Sum(rhs),rhsMax =   2.55795384873636E-13  3.79335662277117E+00
 EXTERNAL_FIELDS_LOAD,       221 : iP,iLd,i0,i1=    7    8    7    8 ; Wght=  0.1333333333  0.8666666667
 cg2d: Sum(rhs),rhsMax =  -5.68434188608080E-14  3.77702985754648E+00
 EXTERNAL_FIELDS_LOAD,       222 : iP,iLd,i0,i1=    7    8    7    8 ; Wght=  0.1000000000  0.9000000000
 cg2d: Sum(rhs),rhsMax =   2.84217094304040E-14  3.76813814118608E+00
 EXTERNAL_FIELDS_LOAD,       223 : iP,iLd,i0,i1=    7    8    7    8 ; Wght=  0.0666666667  0.9333333333
 cg2d: Sum(rhs),rhsMax =   8.52651282912120E-14  3.75604220692226E+00
 EXTERNAL_FIELDS_LOAD,       224 : iP,iLd,i0,i1=    7    8    7    8 ; Wght=  0.0333333333  0.9666666667
 cg2d: Sum(rhs),rhsMax =  -1.42108547152020E-13  3.74090098878050E+00
 EXTERNAL_FIELDS_LOAD,       225 : iP,iLd,i0,i1=    7    8    8    9 ; Wght=  1.0000000000  0.0000000000
 EXTERNAL_FIELDS_LOAD, it=       225 : Reading new data, i0,i1=    8    9 (prev=    7    8 )
(PID.TID 0000.0001)  MDS_READ_FIELD: opening global file: trenberth_taux.bin
(PID.TID 0000.0001)  MDS_READ_FIELD: opening global file: trenberth_taux.bin
(PID.TID 0000.0001)  MDS_READ_FIELD: opening global file: trenberth_tauy.bin
(PID.TID 0000.0001)  MDS_READ_FIELD: opening global file: trenberth_tauy.bin
(PID.TID 0000.0001)  MDS_READ_FIELD: opening global file: shiQnet_cs32.bin
(PID.TID 0000.0001)  MDS_READ_FIELD: opening global file: shiQnet_cs32.bin
(PID.TID 0000.0001)  MDS_READ_FIELD: opening global file: shiEmPR_cs32.bin
(PID.TID 0000.0001)  MDS_READ_FIELD: opening global file: shiEmPR_cs32.bin
(PID.TID 0000.0001)  MDS_READ_FIELD: opening global file: lev_surfT_cs_12m.bin
(PID.TID 0000.0001)  MDS_READ_FIELD: opening global file: lev_surfT_cs_12m.bin
(PID.TID 0000.0001)  MDS_READ_FIELD: opening global file: lev_surfS_cs_12m.bin
(PID.TID 0000.0001)  MDS_READ_FIELD: opening global file: lev_surfS_cs_12m.bin
 cg2d: Sum(rhs),rhsMax =  -1.42108547152020E-13  3.72293052886478E+00
 Compute Stats, Diag. #    23 "ETAN    " (list#  1) Parms "SM      M1      ", vol(  0 )= 3.639E+14
 Compute Stats, Diag. #    30 "UVEL    " (list#  1) Parms "UUR     MR      ", vol(  0 )= 1.231E+18
 Compute Stats, Diag. #    31 "VVEL    " (list#  1) Parms "VVR     MR      ", vol(  0 )= 1.243E+18
 Compute Stats, Diag. #    32 "WVEL    " (list#  1) Parms "WM      LR      ", vol(  0 )= 1.315E+18
 Compute Stats, Diag. #    26 "THETA   " (list#  1) Parms "SMR     MR      ", vol(  0 )= 1.340E+18
 EXTERNAL_FIELDS_LOAD,       226 : iP,iLd,i0,i1=    8    9    8    9 ; Wght=  0.9666666667  0.0333333333
 cg2d: Sum(rhs),rhsMax =  -2.27373675443232E-13  3.70537540788473E+00
 EXTERNAL_FIELDS_LOAD,       227 : iP,iLd,i0,i1=    8    9    8    9 ; Wght=  0.9333333333  0.0666666667
 cg2d: Sum(rhs),rhsMax =  -1.13686837721616E-13  3.69648618003119E+00
 EXTERNAL_FIELDS_LOAD,       228 : iP,iLd,i0,i1=    8    9    8    9 ; Wght=  0.9000000000  0.1000000000
 cg2d: Sum(rhs),rhsMax =  -1.42108547152020E-13  3.68905373767897E+00
 EXTERNAL_FIELDS_LOAD,       229 : iP,iLd,i0,i1=    8    9    8    9 ; Wght=  0.8666666667  0.1333333333
 cg2d: Sum(rhs),rhsMax =  -3.12638803734444E-13  3.68312862223425E+00
 Computing Diagnostic #    79 "DRHODR  " (list#  1) Parms "SM      LR      ", Count=      10
 Computing Diagnostic #    64 "RHOAnoma" (list#  1) Parms "SMR     MR      ", Count=      10
 Computing Diagnostic #    80 "CONVADJ " (list#  1) Parms "SMR     LR      ", Count=      10
 Computing Diagnostic #   210 "GM_Kwx  " (list#  1) Parms "UM      LR      ", Count=      10
             Vector  Mate for "GM_Kwx  " :  Diagnostic #    211 "GM_Kwy  " exists
 Computing Diagnostic #   211 "GM_Kwy  " (list#  1) Parms "VM      LR      ", Count=      10
             Vector  Mate for "GM_Kwy  " :  Diagnostic #    210 "GM_Kwx  " exists
 Computing Diagnostic #   212 "GM_Kwz  " (list#  1) Parms "WM P    LR      ", Count=      10
 Computing Diagnostic #   213 "GM_PsiX " (list#  1) Parms "UU      LR      ", Count=      10
             Vector  Mate for "GM_PsiX " :  Diagnostic #    214 "GM_PsiY " exists
 Computing Diagnostic #   214 "GM_PsiY " (list#  1) Parms "VV      LR      ", Count=      10
             Vector  Mate for "GM_PsiY " :  Diagnostic #    213 "GM_PsiX " exists
 EXTERNAL_FIELDS_LOAD,       230 : iP,iLd,i0,i1=    8    9    8    9 ; Wght=  0.8333333333  0.1666666667
 cg2d: Sum(rhs),rhsMax =   2.84217094304040E-14  3.67872382548799E+00
 EXTERNAL_FIELDS_LOAD,       231 : iP,iLd,i0,i1=    8    9    8    9 ; Wght=  0.8000000000  0.2000000000
 cg2d: Sum(rhs),rhsMax =  -8.52651282912120E-14  3.67582343012069E+00
 EXTERNAL_FIELDS_LOAD,       232 : iP,iLd,i0,i1=    8    9    8    9 ; Wght=  0.7666666667  0.2333333333
 cg2d: Sum(rhs),rhsMax =   2.84217094304040E-14  3.67438535318976E+00
 EXTERNAL_FIELDS_LOAD,       233 : iP,iLd,i0,i1=    8    9    8    9 ; Wght=  0.7333333333  0.2666666667
 cg2d: Sum(rhs),rhsMax =  -8.52651282912120E-14  3.67434315529779E+00
 EXTERNAL_FIELDS_LOAD,       234 : iP,iLd,i0,i1=    8    9    8    9 ; Wght=  0.7000000000  0.3000000000
 cg2d: Sum(rhs),rhsMax =  -1.98951966012828E-13  3.68388761565127E+00
 EXTERNAL_FIELDS_LOAD,       235 : iP,iLd,i0,i1=    8    9    8    9 ; Wght=  0.6666666667  0.3333333333
 cg2d: Sum(rhs),rhsMax =   5.68434188608080E-14  3.69909291304410E+00
 Compute Stats, Diag. #    23 "ETAN    " (list#  1) Parms "SM      M1      ", vol(  0 )= 3.639E+14
 Compute Stats, Diag. #    30 "UVEL    " (list#  1) Parms "UUR     MR      ", vol(  0 )= 1.231E+18
 Compute Stats, Diag. #    31 "VVEL    " (list#  1) Parms "VVR     MR      ", vol(  0 )= 1.243E+18
 Compute Stats, Diag. #    32 "WVEL    " (list#  1) Parms "WM      LR      ", vol(  0 )= 1.315E+18
 Compute Stats, Diag. #    26 "THETA   " (list#  1) Parms "SMR     MR      ", vol(  0 )= 1.340E+18
 EXTERNAL_FIELDS_LOAD,       236 : iP,iLd,i0,i1=    8    9    8    9 ; Wght=  0.6333333333  0.3666666667
 cg2d: Sum(rhs),rhsMax =  -2.27373675443232E-13  3.71678145392923E+00
 EXTERNAL_FIELDS_LOAD,       237 : iP,iLd,i0,i1=    8    9    8    9 ; Wght=  0.6000000000  0.4000000000
 cg2d: Sum(rhs),rhsMax =   2.84217094304040E-14  3.73658684838489E+00
 EXTERNAL_FIELDS_LOAD,       238 : iP,iLd,i0,i1=    8    9    8    9 ; Wght=  0.5666666667  0.4333333333
 cg2d: Sum(rhs),rhsMax =  -8.52651282912120E-14  3.75810442087027E+00
 EXTERNAL_FIELDS_LOAD,       239 : iP,iLd,i0,i1=    8    9    8    9 ; Wght=  0.5333333333  0.4666666667
 cg2d: Sum(rhs),rhsMax =  -5.68434188608080E-14  3.78089819486555E+00
(PID.TID 0000.0001)      cg2d_init_res =   5.57865061339590E-01
(PID.TID 0000.0001)      cg2d_iters(min,last) =      -1      62
(PID.TID 0000.0001)      cg2d_last_res =   5.07119507616485E-07
(PID.TID 0000.0001) // =======================================================
(PID.TID 0000.0001) // Begin MONITOR dynamic field statistics
(PID.TID 0000.0001) // =======================================================
(PID.TID 0000.0001) %MON time_tsnumber                =                   240
(PID.TID 0000.0001) %MON time_secondsf                =   2.0736000000000E+07
(PID.TID 0000.0001) %MON dynstat_eta_max              =   9.5422154373232E-01
(PID.TID 0000.0001) %MON dynstat_eta_min              =  -1.8699243131456E+00
(PID.TID 0000.0001) %MON dynstat_eta_mean             =   1.3740539251964E-17
(PID.TID 0000.0001) %MON dynstat_eta_sd               =   6.3986355493812E-01
(PID.TID 0000.0001) %MON dynstat_eta_del2             =   7.2732397949035E-04
(PID.TID 0000.0001) %MON dynstat_uvel_max             =   4.5717185930800E-01
(PID.TID 0000.0001) %MON dynstat_uvel_min             =  -2.3891148695871E-01
(PID.TID 0000.0001) %MON dynstat_uvel_mean            =  -6.1110980929518E-04
(PID.TID 0000.0001) %MON dynstat_uvel_sd              =   1.3339010189300E-02
(PID.TID 0000.0001) %MON dynstat_uvel_del2            =   5.2920199053392E-05
(PID.TID 0000.0001) %MON dynstat_vvel_max             =   4.5071815887704E-01
(PID.TID 0000.0001) %MON dynstat_vvel_min             =  -2.6242765169797E-01
(PID.TID 0000.0001) %MON dynstat_vvel_mean            =  -4.7655544114820E-04
(PID.TID 0000.0001) %MON dynstat_vvel_sd              =   1.3311536696657E-02
(PID.TID 0000.0001) %MON dynstat_vvel_del2            =   5.5018777202113E-05
(PID.TID 0000.0001) %MON dynstat_wvel_max             =   1.3865388693361E-04
(PID.TID 0000.0001) %MON dynstat_wvel_min             =  -2.7239075876259E-04
(PID.TID 0000.0001) %MON dynstat_wvel_mean            =  -1.9030662039389E-21
(PID.TID 0000.0001) %MON dynstat_wvel_sd              =   1.0531441329080E-05
(PID.TID 0000.0001) %MON dynstat_wvel_del2            =   5.4726673016205E-08
(PID.TID 0000.0001) %MON dynstat_theta_max            =   3.2294554656637E+01
(PID.TID 0000.0001) %MON dynstat_theta_min            =  -6.4361223264338E+00
(PID.TID 0000.0001) %MON dynstat_theta_mean           =   3.6018890009657E+00
(PID.TID 0000.0001) %MON dynstat_theta_sd             =   4.4348631995389E+00
(PID.TID 0000.0001) %MON dynstat_theta_del2           =   2.3207872928404E-03
(PID.TID 0000.0001) %MON dynstat_salt_max             =   4.1419316340749E+01
(PID.TID 0000.0001) %MON dynstat_salt_min             =   1.8191969431080E+01
(PID.TID 0000.0001) %MON dynstat_salt_mean            =   3.4721159049331E+01
(PID.TID 0000.0001) %MON dynstat_salt_sd              =   4.9148094130588E-01
(PID.TID 0000.0001) %MON dynstat_salt_del2            =   6.5540502272746E-04
(PID.TID 0000.0001) %MON forcing_qnet_max             =   2.3762888233198E+02
(PID.TID 0000.0001) %MON forcing_qnet_min             =  -1.4205239650770E+02
(PID.TID 0000.0001) %MON forcing_qnet_mean            =   3.5901723567551E+00
(PID.TID 0000.0001) %MON forcing_qnet_sd              =   5.3668616368277E+01
(PID.TID 0000.0001) %MON forcing_qnet_del2            =   3.8165863800027E-01
(PID.TID 0000.0001) %MON forcing_qsw_max              =   0.0000000000000E+00
(PID.TID 0000.0001) %MON forcing_qsw_min              =   0.0000000000000E+00
(PID.TID 0000.0001) %MON forcing_qsw_mean             =   0.0000000000000E+00
(PID.TID 0000.0001) %MON forcing_qsw_sd               =   0.0000000000000E+00
(PID.TID 0000.0001) %MON forcing_qsw_del2             =   0.0000000000000E+00
(PID.TID 0000.0001) %MON forcing_empmr_max            =   7.6494447208479E-05
(PID.TID 0000.0001) %MON forcing_empmr_min            =  -1.5362614137596E-04
(PID.TID 0000.0001) %MON forcing_empmr_mean           =  -2.7256318706594E-21
(PID.TID 0000.0001) %MON forcing_empmr_sd             =   2.4051723601802E-05
(PID.TID 0000.0001) %MON forcing_empmr_del2           =   1.2276157049243E-07
(PID.TID 0000.0001) %MON forcing_fu_max               =   3.7705416461979E-01
(PID.TID 0000.0001) %MON forcing_fu_min               =  -2.9191218893916E-01
(PID.TID 0000.0001) %MON forcing_fu_mean              =  -4.5636136682750E-03
(PID.TID 0000.0001) %MON forcing_fu_sd                =   8.2258737971817E-02
(PID.TID 0000.0001) %MON forcing_fu_del2              =   2.2845714929796E-04
(PID.TID 0000.0001) %MON forcing_fv_max               =   3.0904070945947E-01
(PID.TID 0000.0001) %MON forcing_fv_min               =  -3.7009336865929E-01
(PID.TID 0000.0001) %MON forcing_fv_mean              =  -6.1537312399580E-03
(PID.TID 0000.0001) %MON forcing_fv_sd                =   7.8247752992835E-02
(PID.TID 0000.0001) %MON forcing_fv_del2              =   2.2910904370404E-04
(PID.TID 0000.0001) %MON trAdv_CFL_u_max              =   1.6225013225380E-01
(PID.TID 0000.0001) %MON trAdv_CFL_v_max              =   1.2925144988687E-01
(PID.TID 0000.0001) %MON trAdv_CFL_w_max              =   1.2795497119649E-01
(PID.TID 0000.0001) %MON advcfl_uvel_max              =   1.3223997054464E-01
(PID.TID 0000.0001) %MON advcfl_vvel_max              =   1.2957420840032E-01
(PID.TID 0000.0001) %MON advcfl_wvel_max              =   8.8809666253161E-02
(PID.TID 0000.0001) %MON advcfl_W_hf_max              =   9.8060673154532E-02
(PID.TID 0000.0001) %MON pe_b_mean                    =   5.4543025163312E-04
(PID.TID 0000.0001) %MON ke_max                       =   1.2028582450407E-01
(PID.TID 0000.0001) %MON ke_mean                      =   1.6422899962627E-04
(PID.TID 0000.0001) %MON ke_vol                       =   1.3398024453628E+18
(PID.TID 0000.0001) %MON vort_r_min                   =  -1.1268726576917E-06
(PID.TID 0000.0001) %MON vort_r_max                   =   2.5327471940383E-06
(PID.TID 0000.0001) %MON vort_a_mean                  =  -2.0549865324846E-05
(PID.TID 0000.0001) %MON vort_a_sd                    =   7.5259615240282E-05
(PID.TID 0000.0001) %MON vort_p_mean                  =  -2.4783522345032E-05
(PID.TID 0000.0001) %MON vort_p_sd                    =   1.2810613451055E-04
(PID.TID 0000.0001) %MON surfExpan_theta_mean         =   3.8953455373169E-08
(PID.TID 0000.0001) %MON surfExpan_salt_mean          =   1.5337163572506E-08
(PID.TID 0000.0001) // =======================================================
(PID.TID 0000.0001) // End MONITOR dynamic field statistics
(PID.TID 0000.0001) // =======================================================
(PID.TID 0000.0001) // =======================================================
(PID.TID 0000.0001) // Begin MONITOR ptracer field statistics
(PID.TID 0000.0001) // =======================================================
(PID.TID 0000.0001) %MON trcstat_ptracer01_max        =   2.1763914364622E+07
(PID.TID 0000.0001) %MON trcstat_ptracer01_min        =  -5.1208167315725E+05
(PID.TID 0000.0001) %MON trcstat_ptracer01_mean       =   2.0322297628471E+07
(PID.TID 0000.0001) %MON trcstat_ptracer01_sd         =   2.3921305580173E+06
(PID.TID 0000.0001) %MON trcstat_ptracer01_del2       =   6.8279265794915E+03
(PID.TID 0000.0001) // =======================================================
(PID.TID 0000.0001) // End MONITOR ptracer field statistics
(PID.TID 0000.0001) // =======================================================
 Computing Diagnostic #    79 "DRHODR  " (list#  1) Parms "SM      LR      ", Count=      10
 Computing Diagnostic #    64 "RHOAnoma" (list#  1) Parms "SMR     MR      ", Count=      10
 Computing Diagnostic #    80 "CONVADJ " (list#  1) Parms "SMR     LR      ", Count=      10
 Computing Diagnostic #   210 "GM_Kwx  " (list#  1) Parms "UM      LR      ", Count=      10
             Vector  Mate for "GM_Kwx  " :  Diagnostic #    211 "GM_Kwy  " exists
 Computing Diagnostic #   211 "GM_Kwy  " (list#  1) Parms "VM      LR      ", Count=      10
             Vector  Mate for "GM_Kwy  " :  Diagnostic #    210 "GM_Kwx  " exists
 Computing Diagnostic #   212 "GM_Kwz  " (list#  1) Parms "WM P    LR      ", Count=      10
 Computing Diagnostic #   213 "GM_PsiX " (list#  1) Parms "UU      LR      ", Count=      10
             Vector  Mate for "GM_PsiX " :  Diagnostic #    214 "GM_PsiY " exists
 Computing Diagnostic #   214 "GM_PsiY " (list#  1) Parms "VV      LR      ", Count=      10
             Vector  Mate for "GM_PsiY " :  Diagnostic #    213 "GM_PsiX " exists
 EXTERNAL_FIELDS_LOAD,       240 : iP,iLd,i0,i1=    8    9    8    9 ; Wght=  0.5000000000  0.5000000000
 cg2d: Sum(rhs),rhsMax =  -1.13686837721616E-13  3.80451105828881E+00
 EXTERNAL_FIELDS_LOAD,       241 : iP,iLd,i0,i1=    8    9    8    9 ; Wght=  0.4666666667  0.5333333333
 cg2d: Sum(rhs),rhsMax =   8.52651282912120E-14  3.82847414364964E+00
 EXTERNAL_FIELDS_LOAD,       242 : iP,iLd,i0,i1=    8    9    8    9 ; Wght=  0.4333333333  0.5666666667
 cg2d: Sum(rhs),rhsMax =   1.13686837721616E-13  3.85231835479526E+00
 EXTERNAL_FIELDS_LOAD,       243 : iP,iLd,i0,i1=    8    9    8    9 ; Wght=  0.4000000000  0.6000000000
 cg2d: Sum(rhs),rhsMax =  -2.27373675443232E-13  3.87558532073015E+00
 EXTERNAL_FIELDS_LOAD,       244 : iP,iLd,i0,i1=    8    9    8    9 ; Wght=  0.3666666667  0.6333333333
 cg2d: Sum(rhs),rhsMax =  -8.52651282912120E-14  3.89783801385412E+00
 EXTERNAL_FIELDS_LOAD,       245 : iP,iLd,i0,i1=    8    9    8    9 ; Wght=  0.3333333333  0.6666666667
 cg2d: Sum(rhs),rhsMax =  -8.52651282912120E-14  3.91867058088329E+00
 Compute Stats, Diag. #    23 "ETAN    " (list#  1) Parms "SM      M1      ", vol(  0 )= 3.639E+14
 Compute Stats, Diag. #    30 "UVEL    " (list#  1) Parms "UUR     MR      ", vol(  0 )= 1.231E+18
 Compute Stats, Diag. #    31 "VVEL    " (list#  1) Parms "VVR     MR      ", vol(  0 )= 1.243E+18
 Compute Stats, Diag. #    32 "WVEL    " (list#  1) Parms "WM      LR      ", vol(  0 )= 1.315E+18
 Compute Stats, Diag. #    26 "THETA   " (list#  1) Parms "SMR     MR      ", vol(  0 )= 1.340E+18
 EXTERNAL_FIELDS_LOAD,       246 : iP,iLd,i0,i1=    8    9    8    9 ; Wght=  0.3000000000  0.7000000000
 cg2d: Sum(rhs),rhsMax =   1.42108547152020E-13  3.93771768375342E+00
 EXTERNAL_FIELDS_LOAD,       247 : iP,iLd,i0,i1=    8    9    8    9 ; Wght=  0.2666666667  0.7333333333
 cg2d: Sum(rhs),rhsMax =  -5.68434188608080E-14  3.95466238458489E+00
 EXTERNAL_FIELDS_LOAD,       248 : iP,iLd,i0,i1=    8    9    8    9 ; Wght=  0.2333333333  0.7666666667
 cg2d: Sum(rhs),rhsMax =  -1.13686837721616E-13  3.96924123022025E+00
 EXTERNAL_FIELDS_LOAD,       249 : iP,iLd,i0,i1=    8    9    8    9 ; Wght=  0.2000000000  0.8000000000
 cg2d: Sum(rhs),rhsMax =  -3.41060513164848E-13  3.98125025025941E+00
 Computing Diagnostic #    79 "DRHODR  " (list#  1) Parms "SM      LR      ", Count=      10
 Computing Diagnostic #    64 "RHOAnoma" (list#  1) Parms "SMR     MR      ", Count=      10
 Computing Diagnostic #    80 "CONVADJ " (list#  1) Parms "SMR     LR      ", Count=      10
 Computing Diagnostic #   210 "GM_Kwx  " (list#  1) Parms "UM      LR      ", Count=      10
             Vector  Mate for "GM_Kwx  " :  Diagnostic #    211 "GM_Kwy  " exists
 Computing Diagnostic #   211 "GM_Kwy  " (list#  1) Parms "VM      LR      ", Count=      10
             Vector  Mate for "GM_Kwy  " :  Diagnostic #    210 "GM_Kwx  " exists
 Computing Diagnostic #   212 "GM_Kwz  " (list#  1) Parms "WM P    LR      ", Count=      10
 Computing Diagnostic #   213 "GM_PsiX " (list#  1) Parms "UU      LR      ", Count=      10
             Vector  Mate for "GM_PsiX " :  Diagnostic #    214 "GM_PsiY " exists
 Computing Diagnostic #   214 "GM_PsiY " (list#  1) Parms "VV      LR      ", Count=      10
             Vector  Mate for "GM_PsiY " :  Diagnostic #    213 "GM_PsiX " exists
 EXTERNAL_FIELDS_LOAD,       250 : iP,iLd,i0,i1=    8    9    8    9 ; Wght=  0.1666666667  0.8333333333
 cg2d: Sum(rhs),rhsMax =  -1.98951966012828E-13  3.99054818420679E+00
 EXTERNAL_FIELDS_LOAD,       251 : iP,iLd,i0,i1=    8    9    8    9 ; Wght=  0.1333333333  0.8666666667
 cg2d: Sum(rhs),rhsMax =  -1.13686837721616E-13  3.99705855443035E+00
 EXTERNAL_FIELDS_LOAD,       252 : iP,iLd,i0,i1=    8    9    8    9 ; Wght=  0.1000000000  0.9000000000
 cg2d: Sum(rhs),rhsMax =   2.84217094304040E-14  4.00077211413938E+00
 EXTERNAL_FIELDS_LOAD,       253 : iP,iLd,i0,i1=    8    9    8    9 ; Wght=  0.0666666667  0.9333333333
 cg2d: Sum(rhs),rhsMax =   1.42108547152020E-13  4.00174599708380E+00
 EXTERNAL_FIELDS_LOAD,       254 : iP,iLd,i0,i1=    8    9    8    9 ; Wght=  0.0333333333  0.9666666667
 cg2d: Sum(rhs),rhsMax =   5.68434188608080E-14  4.00010115509936E+00
 EXTERNAL_FIELDS_LOAD,       255 : iP,iLd,i0,i1=    8    9    9   10 ; Wght=  1.0000000000  0.0000000000
 EXTERNAL_FIELDS_LOAD, it=       255 : Reading new data, i0,i1=    9   10 (prev=    8    9 )
(PID.TID 0000.0001)  MDS_READ_FIELD: opening global file: trenberth_taux.bin
(PID.TID 0000.0001)  MDS_READ_FIELD: opening global file: trenberth_taux.bin
(PID.TID 0000.0001)  MDS_READ_FIELD: opening global file: trenberth_tauy.bin
(PID.TID 0000.0001)  MDS_READ_FIELD: opening global file: trenberth_tauy.bin
(PID.TID 0000.0001)  MDS_READ_FIELD: opening global file: shiQnet_cs32.bin
(PID.TID 0000.0001)  MDS_READ_FIELD: opening global file: shiQnet_cs32.bin
(PID.TID 0000.0001)  MDS_READ_FIELD: opening global file: shiEmPR_cs32.bin
(PID.TID 0000.0001)  MDS_READ_FIELD: opening global file: shiEmPR_cs32.bin
(PID.TID 0000.0001)  MDS_READ_FIELD: opening global file: lev_surfT_cs_12m.bin
(PID.TID 0000.0001)  MDS_READ_FIELD: opening global file: lev_surfT_cs_12m.bin
(PID.TID 0000.0001)  MDS_READ_FIELD: opening global file: lev_surfS_cs_12m.bin
(PID.TID 0000.0001)  MDS_READ_FIELD: opening global file: lev_surfS_cs_12m.bin
 cg2d: Sum(rhs),rhsMax =   5.68434188608080E-14  3.99601917187243E+00
 Compute Stats, Diag. #    23 "ETAN    " (list#  1) Parms "SM      M1      ", vol(  0 )= 3.639E+14
 Compute Stats, Diag. #    30 "UVEL    " (list#  1) Parms "UUR     MR      ", vol(  0 )= 1.231E+18
 Compute Stats, Diag. #    31 "VVEL    " (list#  1) Parms "VVR     MR      ", vol(  0 )= 1.243E+18
 Compute Stats, Diag. #    32 "WVEL    " (list#  1) Parms "WM      LR      ", vol(  0 )= 1.315E+18
 Compute Stats, Diag. #    26 "THETA   " (list#  1) Parms "SMR     MR      ", vol(  0 )= 1.340E+18
 EXTERNAL_FIELDS_LOAD,       256 : iP,iLd,i0,i1=    9   10    9   10 ; Wght=  0.9666666667  0.0333333333
 cg2d: Sum(rhs),rhsMax =  -3.12638803734444E-13  3.98974200577576E+00
 EXTERNAL_FIELDS_LOAD,       257 : iP,iLd,i0,i1=    9   10    9   10 ; Wght=  0.9333333333  0.0666666667
 cg2d: Sum(rhs),rhsMax =  -1.13686837721616E-13  3.98152647112326E+00
 EXTERNAL_FIELDS_LOAD,       258 : iP,iLd,i0,i1=    9   10    9   10 ; Wght=  0.9000000000  0.1000000000
 cg2d: Sum(rhs),rhsMax =  -1.98951966012828E-13  3.97172039205443E+00
 EXTERNAL_FIELDS_LOAD,       259 : iP,iLd,i0,i1=    9   10    9   10 ; Wght=  0.8666666667  0.1333333333
 cg2d: Sum(rhs),rhsMax =  -1.42108547152020E-13  3.96068568198401E+00
 Computing Diagnostic #    79 "DRHODR  " (list#  1) Parms "SM      LR      ", Count=      10
 Computing Diagnostic #    64 "RHOAnoma" (list#  1) Parms "SMR     MR      ", Count=      10
 Computing Diagnostic #    80 "CONVADJ " (list#  1) Parms "SMR     LR      ", Count=      10
 Computing Diagnostic #   210 "GM_Kwx  " (list#  1) Parms "UM      LR      ", Count=      10
             Vector  Mate for "GM_Kwx  " :  Diagnostic #    211 "GM_Kwy  " exists
 Computing Diagnostic #   211 "GM_Kwy  " (list#  1) Parms "VM      LR      ", Count=      10
             Vector  Mate for "GM_Kwy  " :  Diagnostic #    210 "GM_Kwx  " exists
 Computing Diagnostic #   212 "GM_Kwz  " (list#  1) Parms "WM P    LR      ", Count=      10
 Computing Diagnostic #   213 "GM_PsiX " (list#  1) Parms "UU      LR      ", Count=      10
             Vector  Mate for "GM_PsiX " :  Diagnostic #    214 "GM_PsiY " exists
 Computing Diagnostic #   214 "GM_PsiY " (list#  1) Parms "VV      LR      ", Count=      10
             Vector  Mate for "GM_PsiY " :  Diagnostic #    213 "GM_PsiX " exists
 EXTERNAL_FIELDS_LOAD,       260 : iP,iLd,i0,i1=    9   10    9   10 ; Wght=  0.8333333333  0.1666666667
 cg2d: Sum(rhs),rhsMax =  -8.52651282912120E-14  3.94880350837551E+00
 EXTERNAL_FIELDS_LOAD,       261 : iP,iLd,i0,i1=    9   10    9   10 ; Wght=  0.8000000000  0.2000000000
 cg2d: Sum(rhs),rhsMax =   0.00000000000000E+00  3.93648040930883E+00
 EXTERNAL_FIELDS_LOAD,       262 : iP,iLd,i0,i1=    9   10    9   10 ; Wght=  0.7666666667  0.2333333333
 cg2d: Sum(rhs),rhsMax =   0.00000000000000E+00  3.92411157716277E+00
 EXTERNAL_FIELDS_LOAD,       263 : iP,iLd,i0,i1=    9   10    9   10 ; Wght=  0.7333333333  0.2666666667
 cg2d: Sum(rhs),rhsMax =   0.00000000000000E+00  3.91208384571829E+00
 EXTERNAL_FIELDS_LOAD,       264 : iP,iLd,i0,i1=    9   10    9   10 ; Wght=  0.7000000000  0.3000000000
 cg2d: Sum(rhs),rhsMax =  -1.98951966012828E-13  3.90078324951204E+00
 EXTERNAL_FIELDS_LOAD,       265 : iP,iLd,i0,i1=    9   10    9   10 ; Wght=  0.6666666667  0.3333333333
 cg2d: Sum(rhs),rhsMax =  -1.70530256582424E-13  3.89060025068997E+00
 Compute Stats, Diag. #    23 "ETAN    " (list#  1) Parms "SM      M1      ", vol(  0 )= 3.639E+14
 Compute Stats, Diag. #    30 "UVEL    " (list#  1) Parms "UUR     MR      ", vol(  0 )= 1.231E+18
 Compute Stats, Diag. #    31 "VVEL    " (list#  1) Parms "VVR     MR      ", vol(  0 )= 1.243E+18
 Compute Stats, Diag. #    32 "WVEL    " (list#  1) Parms "WM      LR      ", vol(  0 )= 1.315E+18
 Compute Stats, Diag. #    26 "THETA   " (list#  1) Parms "SMR     MR      ", vol(  0 )= 1.340E+18
 EXTERNAL_FIELDS_LOAD,       266 : iP,iLd,i0,i1=    9   10    9   10 ; Wght=  0.6333333333  0.3666666667
 cg2d: Sum(rhs),rhsMax =  -2.55795384873636E-13  3.88187107883644E+00
 EXTERNAL_FIELDS_LOAD,       267 : iP,iLd,i0,i1=    9   10    9   10 ; Wght=  0.6000000000  0.4000000000
 cg2d: Sum(rhs),rhsMax =  -3.41060513164848E-13  3.87486680616090E+00
 EXTERNAL_FIELDS_LOAD,       268 : iP,iLd,i0,i1=    9   10    9   10 ; Wght=  0.5666666667  0.4333333333
 cg2d: Sum(rhs),rhsMax =  -5.68434188608080E-14  3.86984014327380E+00
 EXTERNAL_FIELDS_LOAD,       269 : iP,iLd,i0,i1=    9   10    9   10 ; Wght=  0.5333333333  0.4666666667
 cg2d: Sum(rhs),rhsMax =   1.13686837721616E-13  3.86698938836162E+00
(PID.TID 0000.0001)      cg2d_init_res =   5.64563973994650E-01
(PID.TID 0000.0001)      cg2d_iters(min,last) =      -1      61
(PID.TID 0000.0001)      cg2d_last_res =   5.59229961098926E-07
(PID.TID 0000.0001) // =======================================================
(PID.TID 0000.0001) // Begin MONITOR dynamic field statistics
(PID.TID 0000.0001) // =======================================================
(PID.TID 0000.0001) %MON time_tsnumber                =                   270
(PID.TID 0000.0001) %MON time_secondsf                =   2.3328000000000E+07
(PID.TID 0000.0001) %MON dynstat_eta_max              =   9.6776921492089E-01
(PID.TID 0000.0001) %MON dynstat_eta_min              =  -1.8578172154104E+00
(PID.TID 0000.0001) %MON dynstat_eta_mean             =   1.2366485326768E-16
(PID.TID 0000.0001) %MON dynstat_eta_sd               =   6.3866740735972E-01
(PID.TID 0000.0001) %MON dynstat_eta_del2             =   7.2674639663449E-04
(PID.TID 0000.0001) %MON dynstat_uvel_max             =   3.0335341994457E-01
(PID.TID 0000.0001) %MON dynstat_uvel_min             =  -2.3119178743589E-01
(PID.TID 0000.0001) %MON dynstat_uvel_mean            =  -5.9347001927655E-04
(PID.TID 0000.0001) %MON dynstat_uvel_sd              =   1.2719773520195E-02
(PID.TID 0000.0001) %MON dynstat_uvel_del2            =   5.4256865848002E-05
(PID.TID 0000.0001) %MON dynstat_vvel_max             =   3.7887422227287E-01
(PID.TID 0000.0001) %MON dynstat_vvel_min             =  -2.6069438364099E-01
(PID.TID 0000.0001) %MON dynstat_vvel_mean            =  -4.8278161054895E-04
(PID.TID 0000.0001) %MON dynstat_vvel_sd              =   1.3246797082727E-02
(PID.TID 0000.0001) %MON dynstat_vvel_del2            =   5.5555303320696E-05
(PID.TID 0000.0001) %MON dynstat_wvel_max             =   1.2454890485895E-04
(PID.TID 0000.0001) %MON dynstat_wvel_min             =  -2.6231592468291E-04
(PID.TID 0000.0001) %MON dynstat_wvel_mean            =   0.0000000000000E+00
(PID.TID 0000.0001) %MON dynstat_wvel_sd              =   9.1015227351451E-06
(PID.TID 0000.0001) %MON dynstat_wvel_del2            =   5.1169758964841E-08
(PID.TID 0000.0001) %MON dynstat_theta_max            =   3.2468251074296E+01
(PID.TID 0000.0001) %MON dynstat_theta_min            =  -6.1601759550186E+00
(PID.TID 0000.0001) %MON dynstat_theta_mean           =   3.6023751316975E+00
(PID.TID 0000.0001) %MON dynstat_theta_sd             =   4.4375349346711E+00
(PID.TID 0000.0001) %MON dynstat_theta_del2           =   2.4021862009084E-03
(PID.TID 0000.0001) %MON dynstat_salt_max             =   4.1355040311865E+01
(PID.TID 0000.0001) %MON dynstat_salt_min             =   1.8296134238482E+01
(PID.TID 0000.0001) %MON dynstat_salt_mean            =   3.4721115411014E+01
(PID.TID 0000.0001) %MON dynstat_salt_sd              =   4.9190761305006E-01
(PID.TID 0000.0001) %MON dynstat_salt_del2            =   6.7205281161482E-04
(PID.TID 0000.0001) %MON forcing_qnet_max             =   1.7226335228087E+02
(PID.TID 0000.0001) %MON forcing_qnet_min             =  -1.2167347573012E+02
(PID.TID 0000.0001) %MON forcing_qnet_mean            =  -5.4581290897012E+00
(PID.TID 0000.0001) %MON forcing_qnet_sd              =   4.6003165005274E+01
(PID.TID 0000.0001) %MON forcing_qnet_del2            =   3.6665444476665E-01
(PID.TID 0000.0001) %MON forcing_qsw_max              =   0.0000000000000E+00
(PID.TID 0000.0001) %MON forcing_qsw_min              =   0.0000000000000E+00
(PID.TID 0000.0001) %MON forcing_qsw_mean             =   0.0000000000000E+00
(PID.TID 0000.0001) %MON forcing_qsw_sd               =   0.0000000000000E+00
(PID.TID 0000.0001) %MON forcing_qsw_del2             =   0.0000000000000E+00
(PID.TID 0000.0001) %MON forcing_empmr_max            =   7.6494447208479E-05
(PID.TID 0000.0001) %MON forcing_empmr_min            =  -1.5362614137596E-04
(PID.TID 0000.0001) %MON forcing_empmr_mean           =  -2.7256318706594E-21
(PID.TID 0000.0001) %MON forcing_empmr_sd             =   2.4051723601802E-05
(PID.TID 0000.0001) %MON forcing_empmr_del2           =   1.2276157049243E-07
(PID.TID 0000.0001) %MON forcing_fu_max               =   3.2743992123322E-01
(PID.TID 0000.0001) %MON forcing_fu_min               =  -2.8385275945570E-01
(PID.TID 0000.0001) %MON forcing_fu_mean              =  -4.6229742049373E-03
(PID.TID 0000.0001) %MON forcing_fu_sd                =   7.7186806088874E-02
(PID.TID 0000.0001) %MON forcing_fu_del2              =   2.0806739202098E-04
(PID.TID 0000.0001) %MON forcing_fv_max               =   2.4905121089957E-01
(PID.TID 0000.0001) %MON forcing_fv_min               =  -3.3699518760212E-01
(PID.TID 0000.0001) %MON forcing_fv_mean              =  -8.2032430591580E-03
(PID.TID 0000.0001) %MON forcing_fv_sd                =   7.5566589024491E-02
(PID.TID 0000.0001) %MON forcing_fv_del2              =   2.1186363648930E-04
(PID.TID 0000.0001) %MON trAdv_CFL_u_max              =   1.0325037083723E-01
(PID.TID 0000.0001) %MON trAdv_CFL_v_max              =   1.0852486751673E-01
(PID.TID 0000.0001) %MON trAdv_CFL_w_max              =   9.8493450227691E-02
(PID.TID 0000.0001) %MON advcfl_uvel_max              =   8.7746974144051E-02
(PID.TID 0000.0001) %MON advcfl_vvel_max              =   1.0892023422488E-01
(PID.TID 0000.0001) %MON advcfl_wvel_max              =   8.5524890160766E-02
(PID.TID 0000.0001) %MON advcfl_W_hf_max              =   9.4433732885846E-02
(PID.TID 0000.0001) %MON pe_b_mean                    =   5.4339292581865E-04
(PID.TID 0000.0001) %MON ke_max                       =   9.6310704840204E-02
(PID.TID 0000.0001) %MON ke_mean                      =   1.5601179355854E-04
(PID.TID 0000.0001) %MON ke_vol                       =   1.3398024453628E+18
(PID.TID 0000.0001) %MON vort_r_min                   =  -1.1118705996207E-06
(PID.TID 0000.0001) %MON vort_r_max                   =   2.2367162245772E-06
(PID.TID 0000.0001) %MON vort_a_mean                  =  -2.0549865324846E-05
(PID.TID 0000.0001) %MON vort_a_sd                    =   7.5259619197615E-05
(PID.TID 0000.0001) %MON vort_p_mean                  =  -2.4783522345032E-05
(PID.TID 0000.0001) %MON vort_p_sd                    =   1.2810600492736E-04
(PID.TID 0000.0001) %MON surfExpan_theta_mean         =   5.2225065891661E-08
(PID.TID 0000.0001) %MON surfExpan_salt_mean          =   1.3796742646422E-08
(PID.TID 0000.0001) // =======================================================
(PID.TID 0000.0001) // End MONITOR dynamic field statistics
(PID.TID 0000.0001) // =======================================================
(PID.TID 0000.0001) // =======================================================
(PID.TID 0000.0001) // Begin MONITOR ptracer field statistics
(PID.TID 0000.0001) // =======================================================
(PID.TID 0000.0001) %MON trcstat_ptracer01_max        =   2.4535242223381E+07
(PID.TID 0000.0001) %MON trcstat_ptracer01_min        =  -7.2378239804948E+05
(PID.TID 0000.0001) %MON trcstat_ptracer01_mean       =   2.2836911301409E+07
(PID.TID 0000.0001) %MON trcstat_ptracer01_sd         =   2.7663229550342E+06
(PID.TID 0000.0001) %MON trcstat_ptracer01_del2       =   7.3481406395579E+03
(PID.TID 0000.0001) // =======================================================
(PID.TID 0000.0001) // End MONITOR ptracer field statistics
(PID.TID 0000.0001) // =======================================================
 Computing Diagnostic #    79 "DRHODR  " (list#  1) Parms "SM      LR      ", Count=      10
 Computing Diagnostic #    64 "RHOAnoma" (list#  1) Parms "SMR     MR      ", Count=      10
 Computing Diagnostic #    80 "CONVADJ " (list#  1) Parms "SMR     LR      ", Count=      10
 Computing Diagnostic #   210 "GM_Kwx  " (list#  1) Parms "UM      LR      ", Count=      10
             Vector  Mate for "GM_Kwx  " :  Diagnostic #    211 "GM_Kwy  " exists
 Computing Diagnostic #   211 "GM_Kwy  " (list#  1) Parms "VM      LR      ", Count=      10
             Vector  Mate for "GM_Kwy  " :  Diagnostic #    210 "GM_Kwx  " exists
 Computing Diagnostic #   212 "GM_Kwz  " (list#  1) Parms "WM P    LR      ", Count=      10
 Computing Diagnostic #   213 "GM_PsiX " (list#  1) Parms "UU      LR      ", Count=      10
             Vector  Mate for "GM_PsiX " :  Diagnostic #    214 "GM_PsiY " exists
 Computing Diagnostic #   214 "GM_PsiY " (list#  1) Parms "VV      LR      ", Count=      10
             Vector  Mate for "GM_PsiY " :  Diagnostic #    213 "GM_PsiX " exists
 EXTERNAL_FIELDS_LOAD,       270 : iP,iLd,i0,i1=    9   10    9   10 ; Wght=  0.5000000000  0.5000000000
 cg2d: Sum(rhs),rhsMax =   1.13686837721616E-13  3.86646339424685E+00
 EXTERNAL_FIELDS_LOAD,       271 : iP,iLd,i0,i1=    9   10    9   10 ; Wght=  0.4666666667  0.5333333333
 cg2d: Sum(rhs),rhsMax =   1.98951966012828E-13  3.86835436664939E+00
 EXTERNAL_FIELDS_LOAD,       272 : iP,iLd,i0,i1=    9   10    9   10 ; Wght=  0.4333333333  0.5666666667
 cg2d: Sum(rhs),rhsMax =  -5.68434188608080E-14  3.87269848039239E+00
 EXTERNAL_FIELDS_LOAD,       273 : iP,iLd,i0,i1=    9   10    9   10 ; Wght=  0.4000000000  0.6000000000
 cg2d: Sum(rhs),rhsMax =  -1.13686837721616E-13  3.87947527851683E+00
 EXTERNAL_FIELDS_LOAD,       274 : iP,iLd,i0,i1=    9   10    9   10 ; Wght=  0.3666666667  0.6333333333
 cg2d: Sum(rhs),rhsMax =  -5.68434188608080E-14  3.88860903889888E+00
 EXTERNAL_FIELDS_LOAD,       275 : iP,iLd,i0,i1=    9   10    9   10 ; Wght=  0.3333333333  0.6666666667
 cg2d: Sum(rhs),rhsMax =  -1.13686837721616E-13  3.89997124622100E+00
 Compute Stats, Diag. #    23 "ETAN    " (list#  1) Parms "SM      M1      ", vol(  0 )= 3.639E+14
 Compute Stats, Diag. #    30 "UVEL    " (list#  1) Parms "UUR     MR      ", vol(  0 )= 1.231E+18
 Compute Stats, Diag. #    31 "VVEL    " (list#  1) Parms "VVR     MR      ", vol(  0 )= 1.243E+18
 Compute Stats, Diag. #    32 "WVEL    " (list#  1) Parms "WM      LR      ", vol(  0 )= 1.315E+18
 Compute Stats, Diag. #    26 "THETA   " (list#  1) Parms "SMR     MR      ", vol(  0 )= 1.340E+18
 EXTERNAL_FIELDS_LOAD,       276 : iP,iLd,i0,i1=    9   10    9   10 ; Wght=  0.3000000000  0.7000000000
 cg2d: Sum(rhs),rhsMax =  -1.42108547152020E-13  3.91338434586030E+00
 EXTERNAL_FIELDS_LOAD,       277 : iP,iLd,i0,i1=    9   10    9   10 ; Wght=  0.2666666667  0.7333333333
 cg2d: Sum(rhs),rhsMax =   3.12638803734444E-13  3.92862645278616E+00
 EXTERNAL_FIELDS_LOAD,       278 : iP,iLd,i0,i1=    9   10    9   10 ; Wght=  0.2333333333  0.7666666667
 cg2d: Sum(rhs),rhsMax =  -1.13686837721616E-13  3.94543729116753E+00
 EXTERNAL_FIELDS_LOAD,       279 : iP,iLd,i0,i1=    9   10    9   10 ; Wght=  0.2000000000  0.8000000000
 cg2d: Sum(rhs),rhsMax =  -1.13686837721616E-13  3.96352452115191E+00
 Computing Diagnostic #    79 "DRHODR  " (list#  1) Parms "SM      LR      ", Count=      10
 Computing Diagnostic #    64 "RHOAnoma" (list#  1) Parms "SMR     MR      ", Count=      10
 Computing Diagnostic #    80 "CONVADJ " (list#  1) Parms "SMR     LR      ", Count=      10
 Computing Diagnostic #   210 "GM_Kwx  " (list#  1) Parms "UM      LR      ", Count=      10
             Vector  Mate for "GM_Kwx  " :  Diagnostic #    211 "GM_Kwy  " exists
 Computing Diagnostic #   211 "GM_Kwy  " (list#  1) Parms "VM      LR      ", Count=      10
             Vector  Mate for "GM_Kwy  " :  Diagnostic #    210 "GM_Kwx  " exists
 Computing Diagnostic #   212 "GM_Kwz  " (list#  1) Parms "WM P    LR      ", Count=      10
 Computing Diagnostic #   213 "GM_PsiX " (list#  1) Parms "UU      LR      ", Count=      10
             Vector  Mate for "GM_PsiX " :  Diagnostic #    214 "GM_PsiY " exists
 Computing Diagnostic #   214 "GM_PsiY " (list#  1) Parms "VV      LR      ", Count=      10
             Vector  Mate for "GM_PsiY " :  Diagnostic #    213 "GM_PsiX " exists
 EXTERNAL_FIELDS_LOAD,       280 : iP,iLd,i0,i1=    9   10    9   10 ; Wght=  0.1666666667  0.8333333333
 cg2d: Sum(rhs),rhsMax =   2.84217094304040E-14  3.98257087397685E+00
 EXTERNAL_FIELDS_LOAD,       281 : iP,iLd,i0,i1=    9   10    9   10 ; Wght=  0.1333333333  0.8666666667
 cg2d: Sum(rhs),rhsMax =   2.84217094304040E-14  4.00224183668193E+00
 EXTERNAL_FIELDS_LOAD,       282 : iP,iLd,i0,i1=    9   10    9   10 ; Wght=  0.1000000000  0.9000000000
 cg2d: Sum(rhs),rhsMax =  -2.84217094304040E-14  4.02219337166444E+00
 EXTERNAL_FIELDS_LOAD,       283 : iP,iLd,i0,i1=    9   10    9   10 ; Wght=  0.0666666667  0.9333333333
 cg2d: Sum(rhs),rhsMax =  -3.97903932025656E-13  4.04208010224528E+00
 EXTERNAL_FIELDS_LOAD,       284 : iP,iLd,i0,i1=    9   10    9   10 ; Wght=  0.0333333333  0.9666666667
 cg2d: Sum(rhs),rhsMax =  -3.12638803734444E-13  4.06156308773482E+00
 EXTERNAL_FIELDS_LOAD,       285 : iP,iLd,i0,i1=    9   10   10   11 ; Wght=  1.0000000000  0.0000000000
 EXTERNAL_FIELDS_LOAD, it=       285 : Reading new data, i0,i1=   10   11 (prev=    9   10 )
(PID.TID 0000.0001)  MDS_READ_FIELD: opening global file: trenberth_taux.bin
(PID.TID 0000.0001)  MDS_READ_FIELD: opening global file: trenberth_taux.bin
(PID.TID 0000.0001)  MDS_READ_FIELD: opening global file: trenberth_tauy.bin
(PID.TID 0000.0001)  MDS_READ_FIELD: opening global file: trenberth_tauy.bin
(PID.TID 0000.0001)  MDS_READ_FIELD: opening global file: shiQnet_cs32.bin
(PID.TID 0000.0001)  MDS_READ_FIELD: opening global file: shiQnet_cs32.bin
(PID.TID 0000.0001)  MDS_READ_FIELD: opening global file: shiEmPR_cs32.bin
(PID.TID 0000.0001)  MDS_READ_FIELD: opening global file: shiEmPR_cs32.bin
(PID.TID 0000.0001)  MDS_READ_FIELD: opening global file: lev_surfT_cs_12m.bin
(PID.TID 0000.0001)  MDS_READ_FIELD: opening global file: lev_surfT_cs_12m.bin
(PID.TID 0000.0001)  MDS_READ_FIELD: opening global file: lev_surfS_cs_12m.bin
(PID.TID 0000.0001)  MDS_READ_FIELD: opening global file: lev_surfS_cs_12m.bin
 cg2d: Sum(rhs),rhsMax =  -2.84217094304040E-14  4.08031770447255E+00
 Compute Stats, Diag. #    23 "ETAN    " (list#  1) Parms "SM      M1      ", vol(  0 )= 3.639E+14
 Compute Stats, Diag. #    30 "UVEL    " (list#  1) Parms "UUR     MR      ", vol(  0 )= 1.231E+18
 Compute Stats, Diag. #    31 "VVEL    " (list#  1) Parms "VVR     MR      ", vol(  0 )= 1.243E+18
 Compute Stats, Diag. #    32 "WVEL    " (list#  1) Parms "WM      LR      ", vol(  0 )= 1.315E+18
 Compute Stats, Diag. #    26 "THETA   " (list#  1) Parms "SMR     MR      ", vol(  0 )= 1.340E+18
 EXTERNAL_FIELDS_LOAD,       286 : iP,iLd,i0,i1=   10   11   10   11 ; Wght=  0.9666666667  0.0333333333
 cg2d: Sum(rhs),rhsMax =   5.68434188608080E-14  4.09801379257063E+00
 EXTERNAL_FIELDS_LOAD,       287 : iP,iLd,i0,i1=   10   11   10   11 ; Wght=  0.9333333333  0.0666666667
 cg2d: Sum(rhs),rhsMax =  -1.13686837721616E-13  4.11433777178873E+00
 EXTERNAL_FIELDS_LOAD,       288 : iP,iLd,i0,i1=   10   11   10   11 ; Wght=  0.9000000000  0.1000000000
 cg2d: Sum(rhs),rhsMax =   0.00000000000000E+00  4.12906081259817E+00
 EXTERNAL_FIELDS_LOAD,       289 : iP,iLd,i0,i1=   10   11   10   11 ; Wght=  0.8666666667  0.1333333333
 cg2d: Sum(rhs),rhsMax =  -5.68434188608080E-14  4.14198952707568E+00
 Computing Diagnostic #    79 "DRHODR  " (list#  1) Parms "SM      LR      ", Count=      10
 Computing Diagnostic #    64 "RHOAnoma" (list#  1) Parms "SMR     MR      ", Count=      10
 Computing Diagnostic #    80 "CONVADJ " (list#  1) Parms "SMR     LR      ", Count=      10
 Computing Diagnostic #   210 "GM_Kwx  " (list#  1) Parms "UM      LR      ", Count=      10
             Vector  Mate for "GM_Kwx  " :  Diagnostic #    211 "GM_Kwy  " exists
 Computing Diagnostic #   211 "GM_Kwy  " (list#  1) Parms "VM      LR      ", Count=      10
             Vector  Mate for "GM_Kwy  " :  Diagnostic #    210 "GM_Kwx  " exists
 Computing Diagnostic #   212 "GM_Kwz  " (list#  1) Parms "WM P    LR      ", Count=      10
 Computing Diagnostic #   213 "GM_PsiX " (list#  1) Parms "UU      LR      ", Count=      10
             Vector  Mate for "GM_PsiX " :  Diagnostic #    214 "GM_PsiY " exists
 Computing Diagnostic #   214 "GM_PsiY " (list#  1) Parms "VV      LR      ", Count=      10
             Vector  Mate for "GM_PsiY " :  Diagnostic #    213 "GM_PsiX " exists
 EXTERNAL_FIELDS_LOAD,       290 : iP,iLd,i0,i1=   10   11   10   11 ; Wght=  0.8333333333  0.1666666667
 cg2d: Sum(rhs),rhsMax =   1.13686837721616E-13  4.15297128005545E+00
 EXTERNAL_FIELDS_LOAD,       291 : iP,iLd,i0,i1=   10   11   10   11 ; Wght=  0.8000000000  0.2000000000
 cg2d: Sum(rhs),rhsMax =   5.68434188608080E-14  4.16190049415950E+00
 EXTERNAL_FIELDS_LOAD,       292 : iP,iLd,i0,i1=   10   11   10   11 ; Wght=  0.7666666667  0.2333333333
 cg2d: Sum(rhs),rhsMax =   8.52651282912120E-14  4.16872066397277E+00
 EXTERNAL_FIELDS_LOAD,       293 : iP,iLd,i0,i1=   10   11   10   11 ; Wght=  0.7333333333  0.2666666667
 cg2d: Sum(rhs),rhsMax =  -5.68434188608080E-14  4.17342532853674E+00
 EXTERNAL_FIELDS_LOAD,       294 : iP,iLd,i0,i1=   10   11   10   11 ; Wght=  0.7000000000  0.3000000000
 cg2d: Sum(rhs),rhsMax =   8.52651282912120E-14  4.17605846329593E+00
 EXTERNAL_FIELDS_LOAD,       295 : iP,iLd,i0,i1=   10   11   10   11 ; Wght=  0.6666666667  0.3333333333
 cg2d: Sum(rhs),rhsMax =  -1.13686837721616E-13  4.17671330650286E+00
 Compute Stats, Diag. #    23 "ETAN    " (list#  1) Parms "SM      M1      ", vol(  0 )= 3.639E+14
 Compute Stats, Diag. #    30 "UVEL    " (list#  1) Parms "UUR     MR      ", vol(  0 )= 1.231E+18
 Compute Stats, Diag. #    31 "VVEL    " (list#  1) Parms "VVR     MR      ", vol(  0 )= 1.243E+18
 Compute Stats, Diag. #    32 "WVEL    " (list#  1) Parms "WM      LR      ", vol(  0 )= 1.315E+18
 Compute Stats, Diag. #    26 "THETA   " (list#  1) Parms "SMR     MR      ", vol(  0 )= 1.340E+18
 EXTERNAL_FIELDS_LOAD,       296 : iP,iLd,i0,i1=   10   11   10   11 ; Wght=  0.6333333333  0.3666666667
 cg2d: Sum(rhs),rhsMax =  -2.55795384873636E-13  4.17552998299037E+00
 EXTERNAL_FIELDS_LOAD,       297 : iP,iLd,i0,i1=   10   11   10   11 ; Wght=  0.6000000000  0.4000000000
 cg2d: Sum(rhs),rhsMax =  -8.52651282912120E-14  4.17269201040752E+00
 EXTERNAL_FIELDS_LOAD,       298 : iP,iLd,i0,i1=   10   11   10   11 ; Wght=  0.5666666667  0.4333333333
 cg2d: Sum(rhs),rhsMax =  -2.27373675443232E-13  4.16842174702660E+00
 EXTERNAL_FIELDS_LOAD,       299 : iP,iLd,i0,i1=   10   11   10   11 ; Wght=  0.5333333333  0.4666666667
 cg2d: Sum(rhs),rhsMax =  -2.84217094304040E-14  4.16297489271490E+00
(PID.TID 0000.0001)      cg2d_init_res =   5.75232892164162E-01
(PID.TID 0000.0001)      cg2d_iters(min,last) =      -1      64
(PID.TID 0000.0001)      cg2d_last_res =   5.60076022311631E-07
(PID.TID 0000.0001) // =======================================================
(PID.TID 0000.0001) // Begin MONITOR dynamic field statistics
(PID.TID 0000.0001) // =======================================================
(PID.TID 0000.0001) %MON time_tsnumber                =                   300
(PID.TID 0000.0001) %MON time_secondsf                =   2.5920000000000E+07
(PID.TID 0000.0001) %MON dynstat_eta_max              =   9.4457874956950E-01
(PID.TID 0000.0001) %MON dynstat_eta_min              =  -1.8417829679667E+00
(PID.TID 0000.0001) %MON dynstat_eta_mean             =   2.0610808877946E-16
(PID.TID 0000.0001) %MON dynstat_eta_sd               =   6.3604302284355E-01
(PID.TID 0000.0001) %MON dynstat_eta_del2             =   7.3651630550769E-04
(PID.TID 0000.0001) %MON dynstat_uvel_max             =   2.0948842436648E-01
(PID.TID 0000.0001) %MON dynstat_uvel_min             =  -2.2902663250117E-01
(PID.TID 0000.0001) %MON dynstat_uvel_mean            =  -5.6423119414502E-04
(PID.TID 0000.0001) %MON dynstat_uvel_sd              =   1.2555524283959E-02
(PID.TID 0000.0001) %MON dynstat_uvel_del2            =   5.3190362627851E-05
(PID.TID 0000.0001) %MON dynstat_vvel_max             =   2.4606049658094E-01
(PID.TID 0000.0001) %MON dynstat_vvel_min             =  -2.2981311647748E-01
(PID.TID 0000.0001) %MON dynstat_vvel_mean            =  -4.5878726771353E-04
(PID.TID 0000.0001) %MON dynstat_vvel_sd              =   1.2896289943243E-02
(PID.TID 0000.0001) %MON dynstat_vvel_del2            =   5.4504341731029E-05
(PID.TID 0000.0001) %MON dynstat_wvel_max             =   1.2477410100623E-04
(PID.TID 0000.0001) %MON dynstat_wvel_min             =  -2.4742726343351E-04
(PID.TID 0000.0001) %MON dynstat_wvel_mean            =   9.2832497753116E-23
(PID.TID 0000.0001) %MON dynstat_wvel_sd              =   8.1169599245969E-06
(PID.TID 0000.0001) %MON dynstat_wvel_del2            =   4.6972981305372E-08
(PID.TID 0000.0001) %MON dynstat_theta_max            =   3.1381697743808E+01
(PID.TID 0000.0001) %MON dynstat_theta_min            =  -6.4213900753456E+00
(PID.TID 0000.0001) %MON dynstat_theta_mean           =   3.6031455877982E+00
(PID.TID 0000.0001) %MON dynstat_theta_sd             =   4.4368816644256E+00
(PID.TID 0000.0001) %MON dynstat_theta_del2           =   2.3985388617198E-03
(PID.TID 0000.0001) %MON dynstat_salt_max             =   4.1127620787172E+01
(PID.TID 0000.0001) %MON dynstat_salt_min             =   1.8360264991582E+01
(PID.TID 0000.0001) %MON dynstat_salt_mean            =   3.4721082145026E+01
(PID.TID 0000.0001) %MON dynstat_salt_sd              =   4.9235525220629E-01
(PID.TID 0000.0001) %MON dynstat_salt_del2            =   6.8580903580251E-04
(PID.TID 0000.0001) %MON forcing_qnet_max             =   2.9793704503360E+02
(PID.TID 0000.0001) %MON forcing_qnet_min             =  -1.5960049763274E+02
(PID.TID 0000.0001) %MON forcing_qnet_mean            =  -9.1500673756630E+00
(PID.TID 0000.0001) %MON forcing_qnet_sd              =   7.6297913186258E+01
(PID.TID 0000.0001) %MON forcing_qnet_del2            =   3.7237364511610E-01
(PID.TID 0000.0001) %MON forcing_qsw_max              =   0.0000000000000E+00
(PID.TID 0000.0001) %MON forcing_qsw_min              =   0.0000000000000E+00
(PID.TID 0000.0001) %MON forcing_qsw_mean             =   0.0000000000000E+00
(PID.TID 0000.0001) %MON forcing_qsw_sd               =   0.0000000000000E+00
(PID.TID 0000.0001) %MON forcing_qsw_del2             =   0.0000000000000E+00
(PID.TID 0000.0001) %MON forcing_empmr_max            =   7.6494447208479E-05
(PID.TID 0000.0001) %MON forcing_empmr_min            =  -1.5362614137596E-04
(PID.TID 0000.0001) %MON forcing_empmr_mean           =  -2.7256318706594E-21
(PID.TID 0000.0001) %MON forcing_empmr_sd             =   2.4051723601802E-05
(PID.TID 0000.0001) %MON forcing_empmr_del2           =   1.2276157049243E-07
(PID.TID 0000.0001) %MON forcing_fu_max               =   2.6915244895338E-01
(PID.TID 0000.0001) %MON forcing_fu_min               =  -2.7782947882907E-01
(PID.TID 0000.0001) %MON forcing_fu_mean              =  -6.4828803941406E-03
(PID.TID 0000.0001) %MON forcing_fu_sd                =   7.2811021444024E-02
(PID.TID 0000.0001) %MON forcing_fu_del2              =   1.9167538037379E-04
(PID.TID 0000.0001) %MON forcing_fv_max               =   2.2045225648718E-01
(PID.TID 0000.0001) %MON forcing_fv_min               =  -3.0184930756779E-01
(PID.TID 0000.0001) %MON forcing_fv_mean              =  -9.4338065170268E-03
(PID.TID 0000.0001) %MON forcing_fv_sd                =   7.6063126012394E-02
(PID.TID 0000.0001) %MON forcing_fv_del2              =   2.0735338434629E-04
(PID.TID 0000.0001) %MON trAdv_CFL_u_max              =   6.4538336869421E-02
(PID.TID 0000.0001) %MON trAdv_CFL_v_max              =   7.3498964507123E-02
(PID.TID 0000.0001) %MON trAdv_CFL_w_max              =   9.0465065965292E-02
(PID.TID 0000.0001) %MON advcfl_uvel_max              =   6.4956297311727E-02
(PID.TID 0000.0001) %MON advcfl_vvel_max              =   7.0738428073329E-02
(PID.TID 0000.0001) %MON advcfl_wvel_max              =   8.0670624757191E-02
(PID.TID 0000.0001) %MON advcfl_W_hf_max              =   8.9073814836065E-02
(PID.TID 0000.0001) %MON pe_b_mean                    =   5.3893632763426E-04
(PID.TID 0000.0001) %MON ke_max                       =   4.7621194629373E-02
(PID.TID 0000.0001) %MON ke_mean                      =   1.4982693625924E-04
(PID.TID 0000.0001) %MON ke_vol                       =   1.3398024453628E+18
(PID.TID 0000.0001) %MON vort_r_min                   =  -1.0460124208401E-06
(PID.TID 0000.0001) %MON vort_r_max                   =   1.5219769165701E-06
(PID.TID 0000.0001) %MON vort_a_mean                  =  -2.0549865324846E-05
(PID.TID 0000.0001) %MON vort_a_sd                    =   7.5259630413823E-05
(PID.TID 0000.0001) %MON vort_p_mean                  =  -2.4783522345032E-05
(PID.TID 0000.0001) %MON vort_p_sd                    =   1.2810619617113E-04
(PID.TID 0000.0001) %MON surfExpan_theta_mean         =   3.1743731718283E-08
(PID.TID 0000.0001) %MON surfExpan_salt_mean          =   1.5287359642056E-08
(PID.TID 0000.0001) // =======================================================
(PID.TID 0000.0001) // End MONITOR dynamic field statistics
(PID.TID 0000.0001) // =======================================================
(PID.TID 0000.0001) // =======================================================
(PID.TID 0000.0001) // Begin MONITOR ptracer field statistics
(PID.TID 0000.0001) // =======================================================
(PID.TID 0000.0001) %MON trcstat_ptracer01_max        =   2.7141561981959E+07
(PID.TID 0000.0001) %MON trcstat_ptracer01_min        =  -8.3260456294146E+05
(PID.TID 0000.0001) %MON trcstat_ptracer01_mean       =   2.5357196727144E+07
(PID.TID 0000.0001) %MON trcstat_ptracer01_sd         =   3.1309484185937E+06
(PID.TID 0000.0001) %MON trcstat_ptracer01_del2       =   7.2521103465645E+03
(PID.TID 0000.0001) // =======================================================
(PID.TID 0000.0001) // End MONITOR ptracer field statistics
(PID.TID 0000.0001) // =======================================================
 Computing Diagnostic #    79 "DRHODR  " (list#  1) Parms "SM      LR      ", Count=      10
 Computing Diagnostic #    64 "RHOAnoma" (list#  1) Parms "SMR     MR      ", Count=      10
 Computing Diagnostic #    80 "CONVADJ " (list#  1) Parms "SMR     LR      ", Count=      10
 Computing Diagnostic #   210 "GM_Kwx  " (list#  1) Parms "UM      LR      ", Count=      10
             Vector  Mate for "GM_Kwx  " :  Diagnostic #    211 "GM_Kwy  " exists
 Computing Diagnostic #   211 "GM_Kwy  " (list#  1) Parms "VM      LR      ", Count=      10
             Vector  Mate for "GM_Kwy  " :  Diagnostic #    210 "GM_Kwx  " exists
 Computing Diagnostic #   212 "GM_Kwz  " (list#  1) Parms "WM P    LR      ", Count=      10
 Computing Diagnostic #   213 "GM_PsiX " (list#  1) Parms "UU      LR      ", Count=      10
             Vector  Mate for "GM_PsiX " :  Diagnostic #    214 "GM_PsiY " exists
 Computing Diagnostic #   214 "GM_PsiY " (list#  1) Parms "VV      LR      ", Count=      10
             Vector  Mate for "GM_PsiY " :  Diagnostic #    213 "GM_PsiX " exists
 EXTERNAL_FIELDS_LOAD,       300 : iP,iLd,i0,i1=   10   11   10   11 ; Wght=  0.5000000000  0.5000000000
 cg2d: Sum(rhs),rhsMax =  -2.84217094304040E-14  4.15663424452579E+00
 EXTERNAL_FIELDS_LOAD,       301 : iP,iLd,i0,i1=   10   11   10   11 ; Wght=  0.4666666667  0.5333333333
 cg2d: Sum(rhs),rhsMax =  -5.68434188608080E-14  4.14970282679046E+00
 EXTERNAL_FIELDS_LOAD,       302 : iP,iLd,i0,i1=   10   11   10   11 ; Wght=  0.4333333333  0.5666666667
 cg2d: Sum(rhs),rhsMax =  -1.13686837721616E-13  4.14249658170956E+00
 EXTERNAL_FIELDS_LOAD,       303 : iP,iLd,i0,i1=   10   11   10   11 ; Wght=  0.4000000000  0.6000000000
 cg2d: Sum(rhs),rhsMax =  -2.27373675443232E-13  4.13533681221788E+00
 EXTERNAL_FIELDS_LOAD,       304 : iP,iLd,i0,i1=   10   11   10   11 ; Wght=  0.3666666667  0.6333333333
 cg2d: Sum(rhs),rhsMax =   0.00000000000000E+00  4.12854256628599E+00
 EXTERNAL_FIELDS_LOAD,       305 : iP,iLd,i0,i1=   10   11   10   11 ; Wght=  0.3333333333  0.6666666667
 cg2d: Sum(rhs),rhsMax =   2.84217094304040E-14  4.12242306923489E+00
 Compute Stats, Diag. #    23 "ETAN    " (list#  1) Parms "SM      M1      ", vol(  0 )= 3.639E+14
 Compute Stats, Diag. #    30 "UVEL    " (list#  1) Parms "UUR     MR      ", vol(  0 )= 1.231E+18
 Compute Stats, Diag. #    31 "VVEL    " (list#  1) Parms "VVR     MR      ", vol(  0 )= 1.243E+18
 Compute Stats, Diag. #    32 "WVEL    " (list#  1) Parms "WM      LR      ", vol(  0 )= 1.315E+18
 Compute Stats, Diag. #    26 "THETA   " (list#  1) Parms "SMR     MR      ", vol(  0 )= 1.340E+18
 EXTERNAL_FIELDS_LOAD,       306 : iP,iLd,i0,i1=   10   11   10   11 ; Wght=  0.3000000000  0.7000000000
 cg2d: Sum(rhs),rhsMax =  -8.52651282912120E-14  4.11727048320289E+00
 EXTERNAL_FIELDS_LOAD,       307 : iP,iLd,i0,i1=   10   11   10   11 ; Wght=  0.2666666667  0.7333333333
 cg2d: Sum(rhs),rhsMax =  -5.68434188608080E-14  4.11335298973110E+00
 EXTERNAL_FIELDS_LOAD,       308 : iP,iLd,i0,i1=   10   11   10   11 ; Wght=  0.2333333333  0.7666666667
 cg2d: Sum(rhs),rhsMax =  -1.42108547152020E-13  4.11090955770961E+00
 EXTERNAL_FIELDS_LOAD,       309 : iP,iLd,i0,i1=   10   11   10   11 ; Wght=  0.2000000000  0.8000000000
 cg2d: Sum(rhs),rhsMax =  -1.42108547152020E-13  4.11014345140487E+00
 Computing Diagnostic #    79 "DRHODR  " (list#  1) Parms "SM      LR      ", Count=      10
 Computing Diagnostic #    64 "RHOAnoma" (list#  1) Parms "SMR     MR      ", Count=      10
 Computing Diagnostic #    80 "CONVADJ " (list#  1) Parms "SMR     LR      ", Count=      10
 Computing Diagnostic #   210 "GM_Kwx  " (list#  1) Parms "UM      LR      ", Count=      10
             Vector  Mate for "GM_Kwx  " :  Diagnostic #    211 "GM_Kwy  " exists
 Computing Diagnostic #   211 "GM_Kwy  " (list#  1) Parms "VM      LR      ", Count=      10
             Vector  Mate for "GM_Kwy  " :  Diagnostic #    210 "GM_Kwx  " exists
 Computing Diagnostic #   212 "GM_Kwz  " (list#  1) Parms "WM P    LR      ", Count=      10
 Computing Diagnostic #   213 "GM_PsiX " (list#  1) Parms "UU      LR      ", Count=      10
             Vector  Mate for "GM_PsiX " :  Diagnostic #    214 "GM_PsiY " exists
 Computing Diagnostic #   214 "GM_PsiY " (list#  1) Parms "VV      LR      ", Count=      10
             Vector  Mate for "GM_PsiY " :  Diagnostic #    213 "GM_PsiX " exists
 EXTERNAL_FIELDS_LOAD,       310 : iP,iLd,i0,i1=   10   11   10   11 ; Wght=  0.1666666667  0.8333333333
 cg2d: Sum(rhs),rhsMax =   0.00000000000000E+00  4.11121731645272E+00
 EXTERNAL_FIELDS_LOAD,       311 : iP,iLd,i0,i1=   10   11   10   11 ; Wght=  0.1333333333  0.8666666667
 cg2d: Sum(rhs),rhsMax =  -1.13686837721616E-13  4.11425067648462E+00
 EXTERNAL_FIELDS_LOAD,       312 : iP,iLd,i0,i1=   10   11   10   11 ; Wght=  0.1000000000  0.9000000000
 cg2d: Sum(rhs),rhsMax =  -8.52651282912120E-14  4.11931712465095E+00
 EXTERNAL_FIELDS_LOAD,       313 : iP,iLd,i0,i1=   10   11   10   11 ; Wght=  0.0666666667  0.9333333333
 cg2d: Sum(rhs),rhsMax =   1.42108547152020E-13  4.12644301307566E+00
 EXTERNAL_FIELDS_LOAD,       314 : iP,iLd,i0,i1=   10   11   10   11 ; Wght=  0.0333333333  0.9666666667
 cg2d: Sum(rhs),rhsMax =   2.55795384873636E-13  4.13560718361402E+00
 EXTERNAL_FIELDS_LOAD,       315 : iP,iLd,i0,i1=   10   11   11   12 ; Wght=  1.0000000000  0.0000000000
 EXTERNAL_FIELDS_LOAD, it=       315 : Reading new data, i0,i1=   11   12 (prev=   10   11 )
(PID.TID 0000.0001)  MDS_READ_FIELD: opening global file: trenberth_taux.bin
(PID.TID 0000.0001)  MDS_READ_FIELD: opening global file: trenberth_taux.bin
(PID.TID 0000.0001)  MDS_READ_FIELD: opening global file: trenberth_tauy.bin
(PID.TID 0000.0001)  MDS_READ_FIELD: opening global file: trenberth_tauy.bin
(PID.TID 0000.0001)  MDS_READ_FIELD: opening global file: shiQnet_cs32.bin
(PID.TID 0000.0001)  MDS_READ_FIELD: opening global file: shiQnet_cs32.bin
(PID.TID 0000.0001)  MDS_READ_FIELD: opening global file: shiEmPR_cs32.bin
(PID.TID 0000.0001)  MDS_READ_FIELD: opening global file: shiEmPR_cs32.bin
(PID.TID 0000.0001)  MDS_READ_FIELD: opening global file: lev_surfT_cs_12m.bin
(PID.TID 0000.0001)  MDS_READ_FIELD: opening global file: lev_surfT_cs_12m.bin
(PID.TID 0000.0001)  MDS_READ_FIELD: opening global file: lev_surfS_cs_12m.bin
(PID.TID 0000.0001)  MDS_READ_FIELD: opening global file: lev_surfS_cs_12m.bin
 cg2d: Sum(rhs),rhsMax =  -2.84217094304040E-14  4.14674220983830E+00
 Compute Stats, Diag. #    23 "ETAN    " (list#  1) Parms "SM      M1      ", vol(  0 )= 3.639E+14
 Compute Stats, Diag. #    30 "UVEL    " (list#  1) Parms "UUR     MR      ", vol(  0 )= 1.231E+18
 Compute Stats, Diag. #    31 "VVEL    " (list#  1) Parms "VVR     MR      ", vol(  0 )= 1.243E+18
 Compute Stats, Diag. #    32 "WVEL    " (list#  1) Parms "WM      LR      ", vol(  0 )= 1.315E+18
 Compute Stats, Diag. #    26 "THETA   " (list#  1) Parms "SMR     MR      ", vol(  0 )= 1.340E+18
 EXTERNAL_FIELDS_LOAD,       316 : iP,iLd,i0,i1=   11   12   11   12 ; Wght=  0.9666666667  0.0333333333
 cg2d: Sum(rhs),rhsMax =  -1.98951966012828E-13  4.15973436613059E+00
 EXTERNAL_FIELDS_LOAD,       317 : iP,iLd,i0,i1=   11   12   11   12 ; Wght=  0.9333333333  0.0666666667
 cg2d: Sum(rhs),rhsMax =   8.52651282912120E-14  4.17462901006763E+00
 EXTERNAL_FIELDS_LOAD,       318 : iP,iLd,i0,i1=   11   12   11   12 ; Wght=  0.9000000000  0.1000000000
 cg2d: Sum(rhs),rhsMax =   2.84217094304040E-14  4.19120363440083E+00
 EXTERNAL_FIELDS_LOAD,       319 : iP,iLd,i0,i1=   11   12   11   12 ; Wght=  0.8666666667  0.1333333333
 cg2d: Sum(rhs),rhsMax =  -1.98951966012828E-13  4.20922248753302E+00
 Computing Diagnostic #    79 "DRHODR  " (list#  1) Parms "SM      LR      ", Count=      10
 Computing Diagnostic #    64 "RHOAnoma" (list#  1) Parms "SMR     MR      ", Count=      10
 Computing Diagnostic #    80 "CONVADJ " (list#  1) Parms "SMR     LR      ", Count=      10
 Computing Diagnostic #   210 "GM_Kwx  " (list#  1) Parms "UM      LR      ", Count=      10
             Vector  Mate for "GM_Kwx  " :  Diagnostic #    211 "GM_Kwy  " exists
 Computing Diagnostic #   211 "GM_Kwy  " (list#  1) Parms "VM      LR      ", Count=      10
             Vector  Mate for "GM_Kwy  " :  Diagnostic #    210 "GM_Kwx  " exists
 Computing Diagnostic #   212 "GM_Kwz  " (list#  1) Parms "WM P    LR      ", Count=      10
 Computing Diagnostic #   213 "GM_PsiX " (list#  1) Parms "UU      LR      ", Count=      10
             Vector  Mate for "GM_PsiX " :  Diagnostic #    214 "GM_PsiY " exists
 Computing Diagnostic #   214 "GM_PsiY " (list#  1) Parms "VV      LR      ", Count=      10
             Vector  Mate for "GM_PsiY " :  Diagnostic #    213 "GM_PsiX " exists
 EXTERNAL_FIELDS_LOAD,       320 : iP,iLd,i0,i1=   11   12   11   12 ; Wght=  0.8333333333  0.1666666667
 cg2d: Sum(rhs),rhsMax =   2.84217094304040E-14  4.22842818940312E+00
 EXTERNAL_FIELDS_LOAD,       321 : iP,iLd,i0,i1=   11   12   11   12 ; Wght=  0.8000000000  0.2000000000
 cg2d: Sum(rhs),rhsMax =  -2.55795384873636E-13  4.24854254481103E+00
 EXTERNAL_FIELDS_LOAD,       322 : iP,iLd,i0,i1=   11   12   11   12 ; Wght=  0.7666666667  0.2333333333
 cg2d: Sum(rhs),rhsMax =   2.55795384873636E-13  4.26927501934835E+00
 EXTERNAL_FIELDS_LOAD,       323 : iP,iLd,i0,i1=   11   12   11   12 ; Wght=  0.7333333333  0.2666666667
 cg2d: Sum(rhs),rhsMax =  -3.12638803734444E-13  4.29033017432554E+00
 EXTERNAL_FIELDS_LOAD,       324 : iP,iLd,i0,i1=   11   12   11   12 ; Wght=  0.7000000000  0.3000000000
 cg2d: Sum(rhs),rhsMax =   8.52651282912120E-14  4.31141396166301E+00
 EXTERNAL_FIELDS_LOAD,       325 : iP,iLd,i0,i1=   11   12   11   12 ; Wght=  0.6666666667  0.3333333333
 cg2d: Sum(rhs),rhsMax =  -1.13686837721616E-13  4.33223972206845E+00
 Compute Stats, Diag. #    23 "ETAN    " (list#  1) Parms "SM      M1      ", vol(  0 )= 3.639E+14
 Compute Stats, Diag. #    30 "UVEL    " (list#  1) Parms "UUR     MR      ", vol(  0 )= 1.231E+18
 Compute Stats, Diag. #    31 "VVEL    " (list#  1) Parms "VVR     MR      ", vol(  0 )= 1.243E+18
 Compute Stats, Diag. #    32 "WVEL    " (list#  1) Parms "WM      LR      ", vol(  0 )= 1.315E+18
 Compute Stats, Diag. #    26 "THETA   " (list#  1) Parms "SMR     MR      ", vol(  0 )= 1.340E+18
 EXTERNAL_FIELDS_LOAD,       326 : iP,iLd,i0,i1=   11   12   11   12 ; Wght=  0.6333333333  0.3666666667
 cg2d: Sum(rhs),rhsMax =   0.00000000000000E+00  4.35253424283285E+00
 EXTERNAL_FIELDS_LOAD,       327 : iP,iLd,i0,i1=   11   12   11   12 ; Wght=  0.6000000000  0.4000000000
 cg2d: Sum(rhs),rhsMax =   1.70530256582424E-13  4.37204365970350E+00
 EXTERNAL_FIELDS_LOAD,       328 : iP,iLd,i0,i1=   11   12   11   12 ; Wght=  0.5666666667  0.4333333333
 cg2d: Sum(rhs),rhsMax =   1.13686837721616E-13  4.39053882846733E+00
 EXTERNAL_FIELDS_LOAD,       329 : iP,iLd,i0,i1=   11   12   11   12 ; Wght=  0.5333333333  0.4666666667
 cg2d: Sum(rhs),rhsMax =  -2.84217094304040E-14  4.40782049297434E+00
(PID.TID 0000.0001)      cg2d_init_res =   4.51074901526738E-01
(PID.TID 0000.0001)      cg2d_iters(min,last) =      -1      63
(PID.TID 0000.0001)      cg2d_last_res =   5.72432018081987E-07
(PID.TID 0000.0001) // =======================================================
(PID.TID 0000.0001) // Begin MONITOR dynamic field statistics
(PID.TID 0000.0001) // =======================================================
(PID.TID 0000.0001) %MON time_tsnumber                =                   330
(PID.TID 0000.0001) %MON time_secondsf                =   2.8512000000000E+07
(PID.TID 0000.0001) %MON dynstat_eta_max              =   9.1442202878945E-01
(PID.TID 0000.0001) %MON dynstat_eta_min              =  -1.8312814332850E+00
(PID.TID 0000.0001) %MON dynstat_eta_mean             =  -9.6183774763748E-17
(PID.TID 0000.0001) %MON dynstat_eta_sd               =   6.3014139867870E-01
(PID.TID 0000.0001) %MON dynstat_eta_del2             =   7.3392047663713E-04
(PID.TID 0000.0001) %MON dynstat_uvel_max             =   1.5637974606034E-01
(PID.TID 0000.0001) %MON dynstat_uvel_min             =  -2.4087736135889E-01
(PID.TID 0000.0001) %MON dynstat_uvel_mean            =  -5.3488762217435E-04
(PID.TID 0000.0001) %MON dynstat_uvel_sd              =   1.2366249442985E-02
(PID.TID 0000.0001) %MON dynstat_uvel_del2            =   5.2016518301541E-05
(PID.TID 0000.0001) %MON dynstat_vvel_max             =   1.8011018003861E-01
(PID.TID 0000.0001) %MON dynstat_vvel_min             =  -2.4405519209716E-01
(PID.TID 0000.0001) %MON dynstat_vvel_mean            =  -4.3557385305792E-04
(PID.TID 0000.0001) %MON dynstat_vvel_sd              =   1.2895006233668E-02
(PID.TID 0000.0001) %MON dynstat_vvel_del2            =   5.2799708196328E-05
(PID.TID 0000.0001) %MON dynstat_wvel_max             =   1.0540486554683E-04
(PID.TID 0000.0001) %MON dynstat_wvel_min             =  -2.4025536265645E-04
(PID.TID 0000.0001) %MON dynstat_wvel_mean            =   1.1604062219139E-23
(PID.TID 0000.0001) %MON dynstat_wvel_sd              =   7.4168858156492E-06
(PID.TID 0000.0001) %MON dynstat_wvel_del2            =   4.4471485113562E-08
(PID.TID 0000.0001) %MON dynstat_theta_max            =   3.0825756206040E+01
(PID.TID 0000.0001) %MON dynstat_theta_min            =  -6.6902438901925E+00
(PID.TID 0000.0001) %MON dynstat_theta_mean           =   3.6038643485433E+00
(PID.TID 0000.0001) %MON dynstat_theta_sd             =   4.4315427257570E+00
(PID.TID 0000.0001) %MON dynstat_theta_del2           =   2.4013799024754E-03
(PID.TID 0000.0001) %MON dynstat_salt_max             =   4.0789893267752E+01
(PID.TID 0000.0001) %MON dynstat_salt_min             =   1.8435405303139E+01
(PID.TID 0000.0001) %MON dynstat_salt_mean            =   3.4721057572831E+01
(PID.TID 0000.0001) %MON dynstat_salt_sd              =   4.9277112777554E-01
(PID.TID 0000.0001) %MON dynstat_salt_del2            =   7.0494004396737E-04
(PID.TID 0000.0001) %MON forcing_qnet_max             =   4.1021578966536E+02
(PID.TID 0000.0001) %MON forcing_qnet_min             =  -2.0313383788713E+02
(PID.TID 0000.0001) %MON forcing_qnet_mean            =  -1.0624545108288E+01
(PID.TID 0000.0001) %MON forcing_qnet_sd              =   1.0684693269585E+02
(PID.TID 0000.0001) %MON forcing_qnet_del2            =   3.8956089286157E-01
(PID.TID 0000.0001) %MON forcing_qsw_max              =   0.0000000000000E+00
(PID.TID 0000.0001) %MON forcing_qsw_min              =   0.0000000000000E+00
(PID.TID 0000.0001) %MON forcing_qsw_mean             =   0.0000000000000E+00
(PID.TID 0000.0001) %MON forcing_qsw_sd               =   0.0000000000000E+00
(PID.TID 0000.0001) %MON forcing_qsw_del2             =   0.0000000000000E+00
(PID.TID 0000.0001) %MON forcing_empmr_max            =   7.6494447208479E-05
(PID.TID 0000.0001) %MON forcing_empmr_min            =  -1.5362614137596E-04
(PID.TID 0000.0001) %MON forcing_empmr_mean           =  -2.7256318706594E-21
(PID.TID 0000.0001) %MON forcing_empmr_sd             =   2.4051723601802E-05
(PID.TID 0000.0001) %MON forcing_empmr_del2           =   1.2276157049243E-07
(PID.TID 0000.0001) %MON forcing_fu_max               =   2.4675984841684E-01
(PID.TID 0000.0001) %MON forcing_fu_min               =  -2.2485491038058E-01
(PID.TID 0000.0001) %MON forcing_fu_mean              =  -6.1037608420371E-03
(PID.TID 0000.0001) %MON forcing_fu_sd                =   6.6859781268308E-02
(PID.TID 0000.0001) %MON forcing_fu_del2              =   1.9769316319051E-04
(PID.TID 0000.0001) %MON forcing_fv_max               =   2.2502206352242E-01
(PID.TID 0000.0001) %MON forcing_fv_min               =  -2.7065648191206E-01
(PID.TID 0000.0001) %MON forcing_fv_mean              =  -1.1140659213460E-02
(PID.TID 0000.0001) %MON forcing_fv_sd                =   7.4511506960852E-02
(PID.TID 0000.0001) %MON forcing_fv_del2              =   2.1923078472871E-04
(PID.TID 0000.0001) %MON trAdv_CFL_u_max              =   7.7432195258403E-02
(PID.TID 0000.0001) %MON trAdv_CFL_v_max              =   8.3504493543617E-02
(PID.TID 0000.0001) %MON trAdv_CFL_w_max              =   8.7056610834567E-02
(PID.TID 0000.0001) %MON advcfl_uvel_max              =   6.8317388808537E-02
(PID.TID 0000.0001) %MON advcfl_vvel_max              =   7.8192502085588E-02
(PID.TID 0000.0001) %MON advcfl_wvel_max              =   7.8332314466103E-02
(PID.TID 0000.0001) %MON advcfl_W_hf_max              =   8.6491930556322E-02
(PID.TID 0000.0001) %MON pe_b_mean                    =   5.2898151735773E-04
(PID.TID 0000.0001) %MON ke_max                       =   3.1901420556666E-02
(PID.TID 0000.0001) %MON ke_mean                      =   1.4761995838508E-04
(PID.TID 0000.0001) %MON ke_vol                       =   1.3398024453628E+18
(PID.TID 0000.0001) %MON vort_r_min                   =  -8.7592778527194E-07
(PID.TID 0000.0001) %MON vort_r_max                   =   1.2298434864854E-06
(PID.TID 0000.0001) %MON vort_a_mean                  =  -2.0549865324846E-05
(PID.TID 0000.0001) %MON vort_a_sd                    =   7.5259630637510E-05
(PID.TID 0000.0001) %MON vort_p_mean                  =  -2.4783522345032E-05
(PID.TID 0000.0001) %MON vort_p_sd                    =   1.2810629091398E-04
(PID.TID 0000.0001) %MON surfExpan_theta_mean         =   3.3431739758885E-08
(PID.TID 0000.0001) %MON surfExpan_salt_mean          =   1.5373046920047E-08
(PID.TID 0000.0001) // =======================================================
(PID.TID 0000.0001) // End MONITOR dynamic field statistics
(PID.TID 0000.0001) // =======================================================
(PID.TID 0000.0001) // =======================================================
(PID.TID 0000.0001) // Begin MONITOR ptracer field statistics
(PID.TID 0000.0001) // =======================================================
(PID.TID 0000.0001) %MON trcstat_ptracer01_max        =   2.9637835966700E+07
(PID.TID 0000.0001) %MON trcstat_ptracer01_min        =  -1.5039206701861E+06
(PID.TID 0000.0001) %MON trcstat_ptracer01_mean       =   2.7885392428095E+07
(PID.TID 0000.0001) %MON trcstat_ptracer01_sd         =   3.4679844664516E+06
(PID.TID 0000.0001) %MON trcstat_ptracer01_del2       =   7.5203583012611E+03
(PID.TID 0000.0001) // =======================================================
(PID.TID 0000.0001) // End MONITOR ptracer field statistics
(PID.TID 0000.0001) // =======================================================
 Computing Diagnostic #    79 "DRHODR  " (list#  1) Parms "SM      LR      ", Count=      10
 Computing Diagnostic #    64 "RHOAnoma" (list#  1) Parms "SMR     MR      ", Count=      10
 Computing Diagnostic #    80 "CONVADJ " (list#  1) Parms "SMR     LR      ", Count=      10
 Computing Diagnostic #   210 "GM_Kwx  " (list#  1) Parms "UM      LR      ", Count=      10
             Vector  Mate for "GM_Kwx  " :  Diagnostic #    211 "GM_Kwy  " exists
 Computing Diagnostic #   211 "GM_Kwy  " (list#  1) Parms "VM      LR      ", Count=      10
             Vector  Mate for "GM_Kwy  " :  Diagnostic #    210 "GM_Kwx  " exists
 Computing Diagnostic #   212 "GM_Kwz  " (list#  1) Parms "WM P    LR      ", Count=      10
 Computing Diagnostic #   213 "GM_PsiX " (list#  1) Parms "UU      LR      ", Count=      10
             Vector  Mate for "GM_PsiX " :  Diagnostic #    214 "GM_PsiY " exists
 Computing Diagnostic #   214 "GM_PsiY " (list#  1) Parms "VV      LR      ", Count=      10
             Vector  Mate for "GM_PsiY " :  Diagnostic #    213 "GM_PsiX " exists
 EXTERNAL_FIELDS_LOAD,       330 : iP,iLd,i0,i1=   11   12   11   12 ; Wght=  0.5000000000  0.5000000000
 cg2d: Sum(rhs),rhsMax =   2.27373675443232E-13  4.42372366051062E+00
 EXTERNAL_FIELDS_LOAD,       331 : iP,iLd,i0,i1=   11   12   11   12 ; Wght=  0.4666666667  0.5333333333
 cg2d: Sum(rhs),rhsMax =  -1.13686837721616E-13  4.43812089293992E+00
 EXTERNAL_FIELDS_LOAD,       332 : iP,iLd,i0,i1=   11   12   11   12 ; Wght=  0.4333333333  0.5666666667
 cg2d: Sum(rhs),rhsMax =  -1.13686837721616E-13  4.45092456276995E+00
 EXTERNAL_FIELDS_LOAD,       333 : iP,iLd,i0,i1=   11   12   11   12 ; Wght=  0.4000000000  0.6000000000
 cg2d: Sum(rhs),rhsMax =  -8.52651282912120E-14  4.46208884323360E+00
 EXTERNAL_FIELDS_LOAD,       334 : iP,iLd,i0,i1=   11   12   11   12 ; Wght=  0.3666666667  0.6333333333
 cg2d: Sum(rhs),rhsMax =  -2.27373675443232E-13  4.47161011024309E+00
 EXTERNAL_FIELDS_LOAD,       335 : iP,iLd,i0,i1=   11   12   11   12 ; Wght=  0.3333333333  0.6666666667
 cg2d: Sum(rhs),rhsMax =  -2.55795384873636E-13  4.47952656773993E+00
 Compute Stats, Diag. #    23 "ETAN    " (list#  1) Parms "SM      M1      ", vol(  0 )= 3.639E+14
 Compute Stats, Diag. #    30 "UVEL    " (list#  1) Parms "UUR     MR      ", vol(  0 )= 1.231E+18
 Compute Stats, Diag. #    31 "VVEL    " (list#  1) Parms "VVR     MR      ", vol(  0 )= 1.243E+18
 Compute Stats, Diag. #    32 "WVEL    " (list#  1) Parms "WM      LR      ", vol(  0 )= 1.315E+18
 Compute Stats, Diag. #    26 "THETA   " (list#  1) Parms "SMR     MR      ", vol(  0 )= 1.340E+18
 EXTERNAL_FIELDS_LOAD,       336 : iP,iLd,i0,i1=   11   12   11   12 ; Wght=  0.3000000000  0.7000000000
 cg2d: Sum(rhs),rhsMax =  -2.55795384873636E-13  4.48591664002355E+00
 EXTERNAL_FIELDS_LOAD,       337 : iP,iLd,i0,i1=   11   12   11   12 ; Wght=  0.2666666667  0.7333333333
 cg2d: Sum(rhs),rhsMax =  -2.27373675443232E-13  4.49089660739159E+00
 EXTERNAL_FIELDS_LOAD,       338 : iP,iLd,i0,i1=   11   12   11   12 ; Wght=  0.2333333333  0.7666666667
 cg2d: Sum(rhs),rhsMax =   2.84217094304040E-14  4.49461735993321E+00
 EXTERNAL_FIELDS_LOAD,       339 : iP,iLd,i0,i1=   11   12   11   12 ; Wght=  0.2000000000  0.8000000000
 cg2d: Sum(rhs),rhsMax =  -1.13686837721616E-13  4.49726026596327E+00
 Computing Diagnostic #    79 "DRHODR  " (list#  1) Parms "SM      LR      ", Count=      10
 Computing Diagnostic #    64 "RHOAnoma" (list#  1) Parms "SMR     MR      ", Count=      10
 Computing Diagnostic #    80 "CONVADJ " (list#  1) Parms "SMR     LR      ", Count=      10
 Computing Diagnostic #   210 "GM_Kwx  " (list#  1) Parms "UM      LR      ", Count=      10
             Vector  Mate for "GM_Kwx  " :  Diagnostic #    211 "GM_Kwy  " exists
 Computing Diagnostic #   211 "GM_Kwy  " (list#  1) Parms "VM      LR      ", Count=      10
             Vector  Mate for "GM_Kwy  " :  Diagnostic #    210 "GM_Kwx  " exists
 Computing Diagnostic #   212 "GM_Kwz  " (list#  1) Parms "WM P    LR      ", Count=      10
 Computing Diagnostic #   213 "GM_PsiX " (list#  1) Parms "UU      LR      ", Count=      10
             Vector  Mate for "GM_PsiX " :  Diagnostic #    214 "GM_PsiY " exists
 Computing Diagnostic #   214 "GM_PsiY " (list#  1) Parms "VV      LR      ", Count=      10
             Vector  Mate for "GM_PsiY " :  Diagnostic #    213 "GM_PsiX " exists
 EXTERNAL_FIELDS_LOAD,       340 : iP,iLd,i0,i1=   11   12   11   12 ; Wght=  0.1666666667  0.8333333333
 cg2d: Sum(rhs),rhsMax =  -1.13686837721616E-13  4.49903270115910E+00
 EXTERNAL_FIELDS_LOAD,       341 : iP,iLd,i0,i1=   11   12   11   12 ; Wght=  0.1333333333  0.8666666667
 cg2d: Sum(rhs),rhsMax =  -2.55795384873636E-13  4.50016249451042E+00
 EXTERNAL_FIELDS_LOAD,       342 : iP,iLd,i0,i1=   11   12   11   12 ; Wght=  0.1000000000  0.9000000000
 cg2d: Sum(rhs),rhsMax =  -1.70530256582424E-13  4.50089219350470E+00
 EXTERNAL_FIELDS_LOAD,       343 : iP,iLd,i0,i1=   11   12   11   12 ; Wght=  0.0666666667  0.9333333333
 cg2d: Sum(rhs),rhsMax =  -1.42108547152020E-13  4.50147318256516E+00
 EXTERNAL_FIELDS_LOAD,       344 : iP,iLd,i0,i1=   11   12   11   12 ; Wght=  0.0333333333  0.9666666667
 cg2d: Sum(rhs),rhsMax =  -2.55795384873636E-13  4.50215919426515E+00
 EXTERNAL_FIELDS_LOAD,       345 : iP,iLd,i0,i1=   11   12   12    1 ; Wght=  1.0000000000  0.0000000000
 EXTERNAL_FIELDS_LOAD, it=       345 : Reading new data, i0,i1=   12    1 (prev=   11   12 )
(PID.TID 0000.0001)  MDS_READ_FIELD: opening global file: trenberth_taux.bin
(PID.TID 0000.0001)  MDS_READ_FIELD: opening global file: trenberth_taux.bin
(PID.TID 0000.0001)  MDS_READ_FIELD: opening global file: trenberth_tauy.bin
(PID.TID 0000.0001)  MDS_READ_FIELD: opening global file: trenberth_tauy.bin
(PID.TID 0000.0001)  MDS_READ_FIELD: opening global file: shiQnet_cs32.bin
(PID.TID 0000.0001)  MDS_READ_FIELD: opening global file: shiQnet_cs32.bin
(PID.TID 0000.0001)  MDS_READ_FIELD: opening global file: shiEmPR_cs32.bin
(PID.TID 0000.0001)  MDS_READ_FIELD: opening global file: shiEmPR_cs32.bin
(PID.TID 0000.0001)  MDS_READ_FIELD: opening global file: lev_surfT_cs_12m.bin
(PID.TID 0000.0001)  MDS_READ_FIELD: opening global file: lev_surfT_cs_12m.bin
(PID.TID 0000.0001)  MDS_READ_FIELD: opening global file: lev_surfS_cs_12m.bin
(PID.TID 0000.0001)  MDS_READ_FIELD: opening global file: lev_surfS_cs_12m.bin
 cg2d: Sum(rhs),rhsMax =  -2.55795384873636E-13  4.50320016566884E+00
 Compute Stats, Diag. #    23 "ETAN    " (list#  1) Parms "SM      M1      ", vol(  0 )= 3.639E+14
 Compute Stats, Diag. #    30 "UVEL    " (list#  1) Parms "UUR     MR      ", vol(  0 )= 1.231E+18
 Compute Stats, Diag. #    31 "VVEL    " (list#  1) Parms "VVR     MR      ", vol(  0 )= 1.243E+18
 Compute Stats, Diag. #    32 "WVEL    " (list#  1) Parms "WM      LR      ", vol(  0 )= 1.315E+18
 Compute Stats, Diag. #    26 "THETA   " (list#  1) Parms "SMR     MR      ", vol(  0 )= 1.340E+18
 EXTERNAL_FIELDS_LOAD,       346 : iP,iLd,i0,i1=   12    1   12    1 ; Wght=  0.9666666667  0.0333333333
 cg2d: Sum(rhs),rhsMax =  -5.68434188608080E-14  4.50485531408317E+00
 EXTERNAL_FIELDS_LOAD,       347 : iP,iLd,i0,i1=   12    1   12    1 ; Wght=  0.9333333333  0.0666666667
 cg2d: Sum(rhs),rhsMax =  -8.52651282912120E-14  4.50717992536905E+00
 EXTERNAL_FIELDS_LOAD,       348 : iP,iLd,i0,i1=   12    1   12    1 ; Wght=  0.9000000000  0.1000000000
 cg2d: Sum(rhs),rhsMax =  -8.52651282912120E-14  4.51039955967584E+00
 EXTERNAL_FIELDS_LOAD,       349 : iP,iLd,i0,i1=   12    1   12    1 ; Wght=  0.8666666667  0.1333333333
 cg2d: Sum(rhs),rhsMax =  -2.55795384873636E-13  4.51469707423268E+00
 Computing Diagnostic #    79 "DRHODR  " (list#  1) Parms "SM      LR      ", Count=      10
 Computing Diagnostic #    64 "RHOAnoma" (list#  1) Parms "SMR     MR      ", Count=      10
 Computing Diagnostic #    80 "CONVADJ " (list#  1) Parms "SMR     LR      ", Count=      10
 Computing Diagnostic #   210 "GM_Kwx  " (list#  1) Parms "UM      LR      ", Count=      10
             Vector  Mate for "GM_Kwx  " :  Diagnostic #    211 "GM_Kwy  " exists
 Computing Diagnostic #   211 "GM_Kwy  " (list#  1) Parms "VM      LR      ", Count=      10
             Vector  Mate for "GM_Kwy  " :  Diagnostic #    210 "GM_Kwx  " exists
 Computing Diagnostic #   212 "GM_Kwz  " (list#  1) Parms "WM P    LR      ", Count=      10
 Computing Diagnostic #   213 "GM_PsiX " (list#  1) Parms "UU      LR      ", Count=      10
             Vector  Mate for "GM_PsiX " :  Diagnostic #    214 "GM_PsiY " exists
 Computing Diagnostic #   214 "GM_PsiY " (list#  1) Parms "VV      LR      ", Count=      10
             Vector  Mate for "GM_PsiY " :  Diagnostic #    213 "GM_PsiX " exists
 EXTERNAL_FIELDS_LOAD,       350 : iP,iLd,i0,i1=   12    1   12    1 ; Wght=  0.8333333333  0.1666666667
 cg2d: Sum(rhs),rhsMax =  -1.70530256582424E-13  4.52022340176167E+00
 EXTERNAL_FIELDS_LOAD,       351 : iP,iLd,i0,i1=   12    1   12    1 ; Wght=  0.8000000000  0.2000000000
 cg2d: Sum(rhs),rhsMax =  -8.52651282912120E-14  4.52709600708743E+00
 EXTERNAL_FIELDS_LOAD,       352 : iP,iLd,i0,i1=   12    1   12    1 ; Wght=  0.7666666667  0.2333333333
 cg2d: Sum(rhs),rhsMax =  -1.70530256582424E-13  4.53539447562370E+00
 EXTERNAL_FIELDS_LOAD,       353 : iP,iLd,i0,i1=   12    1   12    1 ; Wght=  0.7333333333  0.2666666667
 cg2d: Sum(rhs),rhsMax =   2.84217094304040E-14  4.54515782044136E+00
 EXTERNAL_FIELDS_LOAD,       354 : iP,iLd,i0,i1=   12    1   12    1 ; Wght=  0.7000000000  0.3000000000
 cg2d: Sum(rhs),rhsMax =   2.27373675443232E-13  4.55638383218747E+00
 EXTERNAL_FIELDS_LOAD,       355 : iP,iLd,i0,i1=   12    1   12    1 ; Wght=  0.6666666667  0.3333333333
 cg2d: Sum(rhs),rhsMax =   5.68434188608080E-14  4.56902997982829E+00
 Compute Stats, Diag. #    23 "ETAN    " (list#  1) Parms "SM      M1      ", vol(  0 )= 3.639E+14
 Compute Stats, Diag. #    30 "UVEL    " (list#  1) Parms "UUR     MR      ", vol(  0 )= 1.231E+18
 Compute Stats, Diag. #    31 "VVEL    " (list#  1) Parms "VVR     MR      ", vol(  0 )= 1.243E+18
 Compute Stats, Diag. #    32 "WVEL    " (list#  1) Parms "WM      LR      ", vol(  0 )= 1.315E+18
 Compute Stats, Diag. #    26 "THETA   " (list#  1) Parms "SMR     MR      ", vol(  0 )= 1.340E+18
 EXTERNAL_FIELDS_LOAD,       356 : iP,iLd,i0,i1=   12    1   12    1 ; Wght=  0.6333333333  0.3666666667
 cg2d: Sum(rhs),rhsMax =  -5.68434188608080E-14  4.58301537560553E+00
 EXTERNAL_FIELDS_LOAD,       357 : iP,iLd,i0,i1=   12    1   12    1 ; Wght=  0.6000000000  0.4000000000
 cg2d: Sum(rhs),rhsMax =  -2.27373675443232E-13  4.59822353419992E+00
 EXTERNAL_FIELDS_LOAD,       358 : iP,iLd,i0,i1=   12    1   12    1 ; Wght=  0.5666666667  0.4333333333
 cg2d: Sum(rhs),rhsMax =  -8.52651282912120E-14  4.61450576793141E+00
 EXTERNAL_FIELDS_LOAD,       359 : iP,iLd,i0,i1=   12    1   12    1 ; Wght=  0.5333333333  0.4666666667
 cg2d: Sum(rhs),rhsMax =  -2.84217094304040E-14  4.63168530813287E+00
(PID.TID 0000.0001)      cg2d_init_res =   3.87047927848826E-01
(PID.TID 0000.0001)      cg2d_iters(min,last) =      -1      63
(PID.TID 0000.0001)      cg2d_last_res =   5.65538497144028E-07
(PID.TID 0000.0001) // =======================================================
(PID.TID 0000.0001) // Begin MONITOR dynamic field statistics
(PID.TID 0000.0001) // =======================================================
(PID.TID 0000.0001) %MON time_tsnumber                =                   360
(PID.TID 0000.0001) %MON time_secondsf                =   3.1104000000000E+07
(PID.TID 0000.0001) %MON dynstat_eta_max              =   8.8599579644123E-01
(PID.TID 0000.0001) %MON dynstat_eta_min              =  -1.8232067460198E+00
(PID.TID 0000.0001) %MON dynstat_eta_mean             =   2.7481078503928E-17
(PID.TID 0000.0001) %MON dynstat_eta_sd               =   6.2583917204842E-01
(PID.TID 0000.0001) %MON dynstat_eta_del2             =   7.3851114341012E-04
(PID.TID 0000.0001) %MON dynstat_uvel_max             =   1.3557893072667E-01
(PID.TID 0000.0001) %MON dynstat_uvel_min             =  -2.4104600235630E-01
(PID.TID 0000.0001) %MON dynstat_uvel_mean            =  -5.0024395008086E-04
(PID.TID 0000.0001) %MON dynstat_uvel_sd              =   1.2295963232583E-02
(PID.TID 0000.0001) %MON dynstat_uvel_del2            =   5.1186256144429E-05
(PID.TID 0000.0001) %MON dynstat_vvel_max             =   1.6612986471886E-01
(PID.TID 0000.0001) %MON dynstat_vvel_min             =  -2.5067586019086E-01
(PID.TID 0000.0001) %MON dynstat_vvel_mean            =  -3.9191244826356E-04
(PID.TID 0000.0001) %MON dynstat_vvel_sd              =   1.2592866251111E-02
(PID.TID 0000.0001) %MON dynstat_vvel_del2            =   5.1287660680183E-05
(PID.TID 0000.0001) %MON dynstat_wvel_max             =   8.0741624665376E-05
(PID.TID 0000.0001) %MON dynstat_wvel_min             =  -2.3887079967062E-04
(PID.TID 0000.0001) %MON dynstat_wvel_mean            =   2.7559647770456E-23
(PID.TID 0000.0001) %MON dynstat_wvel_sd              =   7.0918130823750E-06
(PID.TID 0000.0001) %MON dynstat_wvel_del2            =   4.0799750260033E-08
(PID.TID 0000.0001) %MON dynstat_theta_max            =   3.1176990518576E+01
(PID.TID 0000.0001) %MON dynstat_theta_min            =  -6.6654613705848E+00
(PID.TID 0000.0001) %MON dynstat_theta_mean           =   3.6054850228720E+00
(PID.TID 0000.0001) %MON dynstat_theta_sd             =   4.4282492468883E+00
(PID.TID 0000.0001) %MON dynstat_theta_del2           =   2.3994684238067E-03
(PID.TID 0000.0001) %MON dynstat_salt_max             =   4.0704019417072E+01
(PID.TID 0000.0001) %MON dynstat_salt_min             =   1.8488583697651E+01
(PID.TID 0000.0001) %MON dynstat_salt_mean            =   3.4721038916344E+01
(PID.TID 0000.0001) %MON dynstat_salt_sd              =   4.9313064888619E-01
(PID.TID 0000.0001) %MON dynstat_salt_del2            =   7.3157220337074E-04
(PID.TID 0000.0001) %MON forcing_qnet_max             =   4.5354272910296E+02
(PID.TID 0000.0001) %MON forcing_qnet_min             =  -2.1599809650417E+02
(PID.TID 0000.0001) %MON forcing_qnet_mean            =  -1.2133594023001E+01
(PID.TID 0000.0001) %MON forcing_qnet_sd              =   1.1586527760186E+02
(PID.TID 0000.0001) %MON forcing_qnet_del2            =   4.1554897025173E-01
(PID.TID 0000.0001) %MON forcing_qsw_max              =   0.0000000000000E+00
(PID.TID 0000.0001) %MON forcing_qsw_min              =   0.0000000000000E+00
(PID.TID 0000.0001) %MON forcing_qsw_mean             =   0.0000000000000E+00
(PID.TID 0000.0001) %MON forcing_qsw_sd               =   0.0000000000000E+00
(PID.TID 0000.0001) %MON forcing_qsw_del2             =   0.0000000000000E+00
(PID.TID 0000.0001) %MON forcing_empmr_max            =   7.6494447208479E-05
(PID.TID 0000.0001) %MON forcing_empmr_min            =  -1.5362614137596E-04
(PID.TID 0000.0001) %MON forcing_empmr_mean           =  -2.7256318706594E-21
(PID.TID 0000.0001) %MON forcing_empmr_sd             =   2.4051723601802E-05
(PID.TID 0000.0001) %MON forcing_empmr_del2           =   1.2276157049243E-07
(PID.TID 0000.0001) %MON forcing_fu_max               =   2.4765418498413E-01
(PID.TID 0000.0001) %MON forcing_fu_min               =  -1.9978611308685E-01
(PID.TID 0000.0001) %MON forcing_fu_mean              =  -4.5913596005962E-03
(PID.TID 0000.0001) %MON forcing_fu_sd                =   6.3941102540855E-02
(PID.TID 0000.0001) %MON forcing_fu_del2              =   2.0518848671462E-04
(PID.TID 0000.0001) %MON forcing_fv_max               =   2.5012773886324E-01
(PID.TID 0000.0001) %MON forcing_fv_min               =  -3.2613202008605E-01
(PID.TID 0000.0001) %MON forcing_fv_mean              =  -1.3680575972930E-02
(PID.TID 0000.0001) %MON forcing_fv_sd                =   7.5124443773282E-02
(PID.TID 0000.0001) %MON forcing_fv_del2              =   2.3375900006026E-04
(PID.TID 0000.0001) %MON trAdv_CFL_u_max              =   8.7688488200228E-02
(PID.TID 0000.0001) %MON trAdv_CFL_v_max              =   9.9803310860080E-02
(PID.TID 0000.0001) %MON trAdv_CFL_w_max              =   1.2080166649132E-01
(PID.TID 0000.0001) %MON advcfl_uvel_max              =   6.8365218594300E-02
(PID.TID 0000.0001) %MON advcfl_vvel_max              =   7.2885961963985E-02
(PID.TID 0000.0001) %MON advcfl_wvel_max              =   7.7880894685063E-02
(PID.TID 0000.0001) %MON advcfl_W_hf_max              =   8.5993487881424E-02
(PID.TID 0000.0001) %MON pe_b_mean                    =   5.2178303941572E-04
(PID.TID 0000.0001) %MON ke_max                       =   2.7637904839860E-02
(PID.TID 0000.0001) %MON ke_mean                      =   1.4321700729159E-04
(PID.TID 0000.0001) %MON ke_vol                       =   1.3398024453628E+18
(PID.TID 0000.0001) %MON vort_r_min                   =  -8.3761926852635E-07
(PID.TID 0000.0001) %MON vort_r_max                   =   1.1085380747494E-06
(PID.TID 0000.0001) %MON vort_a_mean                  =  -2.0549865324846E-05
(PID.TID 0000.0001) %MON vort_a_sd                    =   7.5259625119613E-05
(PID.TID 0000.0001) %MON vort_p_mean                  =  -2.4783522345032E-05
(PID.TID 0000.0001) %MON vort_p_sd                    =   1.2810624280726E-04
(PID.TID 0000.0001) %MON surfExpan_theta_mean         =   3.0163642561114E-08
(PID.TID 0000.0001) %MON surfExpan_salt_mean          =   1.3721507315496E-08
(PID.TID 0000.0001) // =======================================================
(PID.TID 0000.0001) // End MONITOR dynamic field statistics
(PID.TID 0000.0001) // =======================================================
(PID.TID 0000.0001) // =======================================================
(PID.TID 0000.0001) // Begin MONITOR ptracer field statistics
(PID.TID 0000.0001) // =======================================================
(PID.TID 0000.0001) %MON trcstat_ptracer01_max        =   3.2122622368005E+07
(PID.TID 0000.0001) %MON trcstat_ptracer01_min        =  -1.6588518223409E+06
(PID.TID 0000.0001) %MON trcstat_ptracer01_mean       =   3.0415063829268E+07
(PID.TID 0000.0001) %MON trcstat_ptracer01_sd         =   3.7792299034905E+06
(PID.TID 0000.0001) %MON trcstat_ptracer01_del2       =   8.4177706754037E+03
(PID.TID 0000.0001) // =======================================================
(PID.TID 0000.0001) // End MONITOR ptracer field statistics
(PID.TID 0000.0001) // =======================================================
 Computing Diagnostic #    79 "DRHODR  " (list#  1) Parms "SM      LR      ", Count=      10
 Computing Diagnostic #    64 "RHOAnoma" (list#  1) Parms "SMR     MR      ", Count=      10
 Computing Diagnostic #    80 "CONVADJ " (list#  1) Parms "SMR     LR      ", Count=      10
 Computing Diagnostic #   210 "GM_Kwx  " (list#  1) Parms "UM      LR      ", Count=      10
             Vector  Mate for "GM_Kwx  " :  Diagnostic #    211 "GM_Kwy  " exists
 Computing Diagnostic #   211 "GM_Kwy  " (list#  1) Parms "VM      LR      ", Count=      10
             Vector  Mate for "GM_Kwy  " :  Diagnostic #    210 "GM_Kwx  " exists
 Computing Diagnostic #   212 "GM_Kwz  " (list#  1) Parms "WM P    LR      ", Count=      10
 Computing Diagnostic #   213 "GM_PsiX " (list#  1) Parms "UU      LR      ", Count=      10
             Vector  Mate for "GM_PsiX " :  Diagnostic #    214 "GM_PsiY " exists
 Computing Diagnostic #   214 "GM_PsiY " (list#  1) Parms "VV      LR      ", Count=      10
             Vector  Mate for "GM_PsiY " :  Diagnostic #    213 "GM_PsiX " exists
(PID.TID 0000.0001) %CHECKPOINT       360 0000000360
 EXTERNAL_FIELDS_LOAD,       360 : iP,iLd,i0,i1=   12    1   12    1 ; Wght=  0.5000000000  0.5000000000
 cg2d: Sum(rhs),rhsMax =   1.13686837721616E-13  4.64956175855046E+00
 EXTERNAL_FIELDS_LOAD,       361 : iP,iLd,i0,i1=   12    1   12    1 ; Wght=  0.4666666667  0.5333333333
 cg2d: Sum(rhs),rhsMax =   0.00000000000000E+00  4.66791633822536E+00
 EXTERNAL_FIELDS_LOAD,       362 : iP,iLd,i0,i1=   12    1   12    1 ; Wght=  0.4333333333  0.5666666667
 cg2d: Sum(rhs),rhsMax =  -8.52651282912120E-14  4.68651738481179E+00
 EXTERNAL_FIELDS_LOAD,       363 : iP,iLd,i0,i1=   12    1   12    1 ; Wght=  0.4000000000  0.6000000000
 cg2d: Sum(rhs),rhsMax =  -1.13686837721616E-13  4.70512621274843E+00
 EXTERNAL_FIELDS_LOAD,       364 : iP,iLd,i0,i1=   12    1   12    1 ; Wght=  0.3666666667  0.6333333333
 cg2d: Sum(rhs),rhsMax =   8.52651282912120E-14  4.72350312684679E+00
 EXTERNAL_FIELDS_LOAD,       365 : iP,iLd,i0,i1=   12    1   12    1 ; Wght=  0.3333333333  0.6666666667
 cg2d: Sum(rhs),rhsMax =  -5.68434188608080E-14  4.74141339832084E+00
 Compute Stats, Diag. #    23 "ETAN    " (list#  1) Parms "SM      M1      ", vol(  0 )= 3.639E+14
 Compute Stats, Diag. #    30 "UVEL    " (list#  1) Parms "UUR     MR      ", vol(  0 )= 1.231E+18
 Compute Stats, Diag. #    31 "VVEL    " (list#  1) Parms "VVR     MR      ", vol(  0 )= 1.243E+18
 Compute Stats, Diag. #    32 "WVEL    " (list#  1) Parms "WM      LR      ", vol(  0 )= 1.315E+18
 Compute Stats, Diag. #    26 "THETA   " (list#  1) Parms "SMR     MR      ", vol(  0 )= 1.340E+18
 EXTERNAL_FIELDS_LOAD,       366 : iP,iLd,i0,i1=   12    1   12    1 ; Wght=  0.3000000000  0.7000000000
 cg2d: Sum(rhs),rhsMax =  -1.70530256582424E-13  4.75863307328829E+00
 EXTERNAL_FIELDS_LOAD,       367 : iP,iLd,i0,i1=   12    1   12    1 ; Wght=  0.2666666667  0.7333333333
 cg2d: Sum(rhs),rhsMax =  -1.70530256582424E-13  4.77495439710906E+00
 EXTERNAL_FIELDS_LOAD,       368 : iP,iLd,i0,i1=   12    1   12    1 ; Wght=  0.2333333333  0.7666666667
 cg2d: Sum(rhs),rhsMax =   0.00000000000000E+00  4.79019083871805E+00
 EXTERNAL_FIELDS_LOAD,       369 : iP,iLd,i0,i1=   12    1   12    1 ; Wght=  0.2000000000  0.8000000000
 cg2d: Sum(rhs),rhsMax =   8.52651282912120E-14  4.80418154083618E+00
 Computing Diagnostic #    79 "DRHODR  " (list#  1) Parms "SM      LR      ", Count=      10
 Computing Diagnostic #    64 "RHOAnoma" (list#  1) Parms "SMR     MR      ", Count=      10
 Computing Diagnostic #    80 "CONVADJ " (list#  1) Parms "SMR     LR      ", Count=      10
 Computing Diagnostic #   210 "GM_Kwx  " (list#  1) Parms "UM      LR      ", Count=      10
             Vector  Mate for "GM_Kwx  " :  Diagnostic #    211 "GM_Kwy  " exists
 Computing Diagnostic #   211 "GM_Kwy  " (list#  1) Parms "VM      LR      ", Count=      10
             Vector  Mate for "GM_Kwy  " :  Diagnostic #    210 "GM_Kwx  " exists
 Computing Diagnostic #   212 "GM_Kwz  " (list#  1) Parms "WM P    LR      ", Count=      10
 Computing Diagnostic #   213 "GM_PsiX " (list#  1) Parms "UU      LR      ", Count=      10
             Vector  Mate for "GM_PsiX " :  Diagnostic #    214 "GM_PsiY " exists
 Computing Diagnostic #   214 "GM_PsiY " (list#  1) Parms "VV      LR      ", Count=      10
             Vector  Mate for "GM_PsiY " :  Diagnostic #    213 "GM_PsiX " exists
 EXTERNAL_FIELDS_LOAD,       370 : iP,iLd,i0,i1=   12    1   12    1 ; Wght=  0.1666666667  0.8333333333
 cg2d: Sum(rhs),rhsMax =  -5.68434188608080E-14  4.81679503586298E+00
 EXTERNAL_FIELDS_LOAD,       371 : iP,iLd,i0,i1=   12    1   12    1 ; Wght=  0.1333333333  0.8666666667
 cg2d: Sum(rhs),rhsMax =  -5.68434188608080E-14  4.82793224718347E+00
 EXTERNAL_FIELDS_LOAD,       372 : iP,iLd,i0,i1=   12    1   12    1 ; Wght=  0.1000000000  0.9000000000
 cg2d: Sum(rhs),rhsMax =  -1.70530256582424E-13  4.83752866931377E+00
 EXTERNAL_FIELDS_LOAD,       373 : iP,iLd,i0,i1=   12    1   12    1 ; Wght=  0.0666666667  0.9333333333
 cg2d: Sum(rhs),rhsMax =  -1.98951966012828E-13  4.84555565308381E+00
 EXTERNAL_FIELDS_LOAD,       374 : iP,iLd,i0,i1=   12    1   12    1 ; Wght=  0.0333333333  0.9666666667
 cg2d: Sum(rhs),rhsMax =  -3.12638803734444E-13  4.85202057816482E+00
 EXTERNAL_FIELDS_LOAD,       375 : iP,iLd,i0,i1=   12    1    1    2 ; Wght=  1.0000000000  0.0000000000
 EXTERNAL_FIELDS_LOAD, it=       375 : Reading new data, i0,i1=    1    2 (prev=   12    1 )
(PID.TID 0000.0001)  MDS_READ_FIELD: opening global file: trenberth_taux.bin
(PID.TID 0000.0001)  MDS_READ_FIELD: opening global file: trenberth_taux.bin
(PID.TID 0000.0001)  MDS_READ_FIELD: opening global file: trenberth_tauy.bin
(PID.TID 0000.0001)  MDS_READ_FIELD: opening global file: trenberth_tauy.bin
(PID.TID 0000.0001)  MDS_READ_FIELD: opening global file: shiQnet_cs32.bin
(PID.TID 0000.0001)  MDS_READ_FIELD: opening global file: shiQnet_cs32.bin
(PID.TID 0000.0001)  MDS_READ_FIELD: opening global file: shiEmPR_cs32.bin
(PID.TID 0000.0001)  MDS_READ_FIELD: opening global file: shiEmPR_cs32.bin
(PID.TID 0000.0001)  MDS_READ_FIELD: opening global file: lev_surfT_cs_12m.bin
(PID.TID 0000.0001)  MDS_READ_FIELD: opening global file: lev_surfT_cs_12m.bin
(PID.TID 0000.0001)  MDS_READ_FIELD: opening global file: lev_surfS_cs_12m.bin
(PID.TID 0000.0001)  MDS_READ_FIELD: opening global file: lev_surfS_cs_12m.bin
 cg2d: Sum(rhs),rhsMax =  -2.55795384873636E-13  4.85696683963864E+00
 Compute Stats, Diag. #    23 "ETAN    " (list#  1) Parms "SM      M1      ", vol(  0 )= 3.639E+14
 Compute Stats, Diag. #    30 "UVEL    " (list#  1) Parms "UUR     MR      ", vol(  0 )= 1.231E+18
 Compute Stats, Diag. #    31 "VVEL    " (list#  1) Parms "VVR     MR      ", vol(  0 )= 1.243E+18
 Compute Stats, Diag. #    32 "WVEL    " (list#  1) Parms "WM      LR      ", vol(  0 )= 1.315E+18
 Compute Stats, Diag. #    26 "THETA   " (list#  1) Parms "SMR     MR      ", vol(  0 )= 1.340E+18
 EXTERNAL_FIELDS_LOAD,       376 : iP,iLd,i0,i1=    1    2    1    2 ; Wght=  0.9666666667  0.0333333333
 cg2d: Sum(rhs),rhsMax =  -1.98951966012828E-13  4.86046155757031E+00
 EXTERNAL_FIELDS_LOAD,       377 : iP,iLd,i0,i1=    1    2    1    2 ; Wght=  0.9333333333  0.0666666667
 cg2d: Sum(rhs),rhsMax =  -2.84217094304040E-14  4.86265300457138E+00
 EXTERNAL_FIELDS_LOAD,       378 : iP,iLd,i0,i1=    1    2    1    2 ; Wght=  0.9000000000  0.1000000000
 cg2d: Sum(rhs),rhsMax =   5.68434188608080E-14  4.86365447402378E+00
 EXTERNAL_FIELDS_LOAD,       379 : iP,iLd,i0,i1=    1    2    1    2 ; Wght=  0.8666666667  0.1333333333
 cg2d: Sum(rhs),rhsMax =  -5.68434188608080E-14  4.86363922856510E+00
 Computing Diagnostic #    79 "DRHODR  " (list#  1) Parms "SM      LR      ", Count=      10
 Computing Diagnostic #    64 "RHOAnoma" (list#  1) Parms "SMR     MR      ", Count=      10
 Computing Diagnostic #    80 "CONVADJ " (list#  1) Parms "SMR     LR      ", Count=      10
 Computing Diagnostic #   210 "GM_Kwx  " (list#  1) Parms "UM      LR      ", Count=      10
             Vector  Mate for "GM_Kwx  " :  Diagnostic #    211 "GM_Kwy  " exists
 Computing Diagnostic #   211 "GM_Kwy  " (list#  1) Parms "VM      LR      ", Count=      10
             Vector  Mate for "GM_Kwy  " :  Diagnostic #    210 "GM_Kwx  " exists
 Computing Diagnostic #   212 "GM_Kwz  " (list#  1) Parms "WM P    LR      ", Count=      10
 Computing Diagnostic #   213 "GM_PsiX " (list#  1) Parms "UU      LR      ", Count=      10
             Vector  Mate for "GM_PsiX " :  Diagnostic #    214 "GM_PsiY " exists
 Computing Diagnostic #   214 "GM_PsiY " (list#  1) Parms "VV      LR      ", Count=      10
             Vector  Mate for "GM_PsiY " :  Diagnostic #    213 "GM_PsiX " exists
 EXTERNAL_FIELDS_LOAD,       380 : iP,iLd,i0,i1=    1    2    1    2 ; Wght=  0.8333333333  0.1666666667
 cg2d: Sum(rhs),rhsMax =   2.84217094304040E-14  4.86280373580256E+00
 EXTERNAL_FIELDS_LOAD,       381 : iP,iLd,i0,i1=    1    2    1    2 ; Wght=  0.8000000000  0.2000000000
 cg2d: Sum(rhs),rhsMax =   8.52651282912120E-14  4.86136117431204E+00
 EXTERNAL_FIELDS_LOAD,       382 : iP,iLd,i0,i1=    1    2    1    2 ; Wght=  0.7666666667  0.2333333333
 cg2d: Sum(rhs),rhsMax =  -3.69482222595252E-13  4.85953867256355E+00
 EXTERNAL_FIELDS_LOAD,       383 : iP,iLd,i0,i1=    1    2    1    2 ; Wght=  0.7333333333  0.2666666667
 cg2d: Sum(rhs),rhsMax =   0.00000000000000E+00  4.85757237702405E+00
 EXTERNAL_FIELDS_LOAD,       384 : iP,iLd,i0,i1=    1    2    1    2 ; Wght=  0.7000000000  0.3000000000
 cg2d: Sum(rhs),rhsMax =   0.00000000000000E+00  4.85570138717069E+00
 EXTERNAL_FIELDS_LOAD,       385 : iP,iLd,i0,i1=    1    2    1    2 ; Wght=  0.6666666667  0.3333333333
 cg2d: Sum(rhs),rhsMax =   1.13686837721616E-13  4.85416107363403E+00
 Compute Stats, Diag. #    23 "ETAN    " (list#  1) Parms "SM      M1      ", vol(  0 )= 3.639E+14
 Compute Stats, Diag. #    30 "UVEL    " (list#  1) Parms "UUR     MR      ", vol(  0 )= 1.231E+18
 Compute Stats, Diag. #    31 "VVEL    " (list#  1) Parms "VVR     MR      ", vol(  0 )= 1.243E+18
 Compute Stats, Diag. #    32 "WVEL    " (list#  1) Parms "WM      LR      ", vol(  0 )= 1.315E+18
 Compute Stats, Diag. #    26 "THETA   " (list#  1) Parms "SMR     MR      ", vol(  0 )= 1.340E+18
 EXTERNAL_FIELDS_LOAD,       386 : iP,iLd,i0,i1=    1    2    1    2 ; Wght=  0.6333333333  0.3666666667
 cg2d: Sum(rhs),rhsMax =  -1.70530256582424E-13  4.85317658775623E+00
 EXTERNAL_FIELDS_LOAD,       387 : iP,iLd,i0,i1=    1    2    1    2 ; Wght=  0.6000000000  0.4000000000
 cg2d: Sum(rhs),rhsMax =  -2.27373675443232E-13  4.85295692031495E+00
 EXTERNAL_FIELDS_LOAD,       388 : iP,iLd,i0,i1=    1    2    1    2 ; Wght=  0.5666666667  0.4333333333
 cg2d: Sum(rhs),rhsMax =  -1.42108547152020E-13  4.85368965999889E+00
 EXTERNAL_FIELDS_LOAD,       389 : iP,iLd,i0,i1=    1    2    1    2 ; Wght=  0.5333333333  0.4666666667
 cg2d: Sum(rhs),rhsMax =  -1.13686837721616E-13  4.85553642915540E+00
(PID.TID 0000.0001)      cg2d_init_res =   3.66369959806106E-01
(PID.TID 0000.0001)      cg2d_iters(min,last) =      -1      62
(PID.TID 0000.0001)      cg2d_last_res =   4.68732984040047E-07
(PID.TID 0000.0001) // =======================================================
(PID.TID 0000.0001) // Begin MONITOR dynamic field statistics
(PID.TID 0000.0001) // =======================================================
(PID.TID 0000.0001) %MON time_tsnumber                =                   390
(PID.TID 0000.0001) %MON time_secondsf                =   3.3696000000000E+07
(PID.TID 0000.0001) %MON dynstat_eta_max              =   8.6481139013641E-01
(PID.TID 0000.0001) %MON dynstat_eta_min              =  -1.8204230138688E+00
(PID.TID 0000.0001) %MON dynstat_eta_mean             =   1.0992431401571E-16
(PID.TID 0000.0001) %MON dynstat_eta_sd               =   6.2488305641226E-01
(PID.TID 0000.0001) %MON dynstat_eta_del2             =   7.4917653441609E-04
(PID.TID 0000.0001) %MON dynstat_uvel_max             =   1.4853983890931E-01
(PID.TID 0000.0001) %MON dynstat_uvel_min             =  -2.3301592465443E-01
(PID.TID 0000.0001) %MON dynstat_uvel_mean            =  -4.4242455741831E-04
(PID.TID 0000.0001) %MON dynstat_uvel_sd              =   1.2277035086579E-02
(PID.TID 0000.0001) %MON dynstat_uvel_del2            =   5.0712487707954E-05
(PID.TID 0000.0001) %MON dynstat_vvel_max             =   1.7625842664407E-01
(PID.TID 0000.0001) %MON dynstat_vvel_min             =  -2.2584296952355E-01
(PID.TID 0000.0001) %MON dynstat_vvel_mean            =  -3.3963989892210E-04
(PID.TID 0000.0001) %MON dynstat_vvel_sd              =   1.2428564123416E-02
(PID.TID 0000.0001) %MON dynstat_vvel_del2            =   5.0622205515445E-05
(PID.TID 0000.0001) %MON dynstat_wvel_max             =   9.2905238813155E-05
(PID.TID 0000.0001) %MON dynstat_wvel_min             =  -2.2393550723077E-04
(PID.TID 0000.0001) %MON dynstat_wvel_mean            =  -3.5972592879332E-22
(PID.TID 0000.0001) %MON dynstat_wvel_sd              =   5.9431823374770E-06
(PID.TID 0000.0001) %MON dynstat_wvel_del2            =   3.7854547925453E-08
(PID.TID 0000.0001) %MON dynstat_theta_max            =   3.1158429910228E+01
(PID.TID 0000.0001) %MON dynstat_theta_min            =  -6.4000614253663E+00
(PID.TID 0000.0001) %MON dynstat_theta_mean           =   3.6073867939324E+00
(PID.TID 0000.0001) %MON dynstat_theta_sd             =   4.4312669319373E+00
(PID.TID 0000.0001) %MON dynstat_theta_del2           =   2.5087580082091E-03
(PID.TID 0000.0001) %MON dynstat_salt_max             =   4.0703532260697E+01
(PID.TID 0000.0001) %MON dynstat_salt_min             =   1.8499533688395E+01
(PID.TID 0000.0001) %MON dynstat_salt_mean            =   3.4721036529101E+01
(PID.TID 0000.0001) %MON dynstat_salt_sd              =   4.9332920908144E-01
(PID.TID 0000.0001) %MON dynstat_salt_del2            =   7.6934011388830E-04
(PID.TID 0000.0001) %MON forcing_qnet_max             =   4.2693997077631E+02
(PID.TID 0000.0001) %MON forcing_qnet_min             =  -1.9343616982889E+02
(PID.TID 0000.0001) %MON forcing_qnet_mean            =  -1.2968551416263E+01
(PID.TID 0000.0001) %MON forcing_qnet_sd              =   9.9492223300472E+01
(PID.TID 0000.0001) %MON forcing_qnet_del2            =   4.2364946540961E-01
(PID.TID 0000.0001) %MON forcing_qsw_max              =   0.0000000000000E+00
(PID.TID 0000.0001) %MON forcing_qsw_min              =   0.0000000000000E+00
(PID.TID 0000.0001) %MON forcing_qsw_mean             =   0.0000000000000E+00
(PID.TID 0000.0001) %MON forcing_qsw_sd               =   0.0000000000000E+00
(PID.TID 0000.0001) %MON forcing_qsw_del2             =   0.0000000000000E+00
(PID.TID 0000.0001) %MON forcing_empmr_max            =   7.6494447208479E-05
(PID.TID 0000.0001) %MON forcing_empmr_min            =  -1.5362614137596E-04
(PID.TID 0000.0001) %MON forcing_empmr_mean           =  -2.7256318706594E-21
(PID.TID 0000.0001) %MON forcing_empmr_sd             =   2.4051723601802E-05
(PID.TID 0000.0001) %MON forcing_empmr_del2           =   1.2276157049243E-07
(PID.TID 0000.0001) %MON forcing_fu_max               =   2.4203671674909E-01
(PID.TID 0000.0001) %MON forcing_fu_min               =  -1.9431438996982E-01
(PID.TID 0000.0001) %MON forcing_fu_mean              =  -4.3454983033901E-03
(PID.TID 0000.0001) %MON forcing_fu_sd                =   6.3991651081989E-02
(PID.TID 0000.0001) %MON forcing_fu_del2              =   2.0330644295017E-04
(PID.TID 0000.0001) %MON forcing_fv_max               =   2.8181226170264E-01
(PID.TID 0000.0001) %MON forcing_fv_min               =  -2.9135458178179E-01
(PID.TID 0000.0001) %MON forcing_fv_mean              =  -1.3718324798732E-02
(PID.TID 0000.0001) %MON forcing_fv_sd                =   7.4616601676114E-02
(PID.TID 0000.0001) %MON forcing_fv_del2              =   2.3832796041755E-04
(PID.TID 0000.0001) %MON trAdv_CFL_u_max              =   9.2259223536054E-02
(PID.TID 0000.0001) %MON trAdv_CFL_v_max              =   9.5083276333500E-02
(PID.TID 0000.0001) %MON trAdv_CFL_w_max              =   1.7118191418822E-01
(PID.TID 0000.0001) %MON advcfl_uvel_max              =   6.6087736238024E-02
(PID.TID 0000.0001) %MON advcfl_vvel_max              =   7.6828565007682E-02
(PID.TID 0000.0001) %MON advcfl_wvel_max              =   7.3011425753730E-02
(PID.TID 0000.0001) %MON advcfl_W_hf_max              =   8.0616782603077E-02
(PID.TID 0000.0001) %MON pe_b_mean                    =   5.2018996610468E-04
(PID.TID 0000.0001) %MON ke_max                       =   2.6778184878108E-02
(PID.TID 0000.0001) %MON ke_mean                      =   1.4105286726133E-04
(PID.TID 0000.0001) %MON ke_vol                       =   1.3398024453628E+18
(PID.TID 0000.0001) %MON vort_r_min                   =  -9.7904843474910E-07
(PID.TID 0000.0001) %MON vort_r_max                   =   1.1344922226760E-06
(PID.TID 0000.0001) %MON vort_a_mean                  =  -2.0549865324846E-05
(PID.TID 0000.0001) %MON vort_a_sd                    =   7.5259628102854E-05
(PID.TID 0000.0001) %MON vort_p_mean                  =  -2.4783522345032E-05
(PID.TID 0000.0001) %MON vort_p_sd                    =   1.2810618054431E-04
(PID.TID 0000.0001) %MON surfExpan_theta_mean         =   5.1992697139526E-08
(PID.TID 0000.0001) %MON surfExpan_salt_mean          =   1.5557080767775E-08
(PID.TID 0000.0001) // =======================================================
(PID.TID 0000.0001) // End MONITOR dynamic field statistics
(PID.TID 0000.0001) // =======================================================
(PID.TID 0000.0001) // =======================================================
(PID.TID 0000.0001) // Begin MONITOR ptracer field statistics
(PID.TID 0000.0001) // =======================================================
(PID.TID 0000.0001) %MON trcstat_ptracer01_max        =   3.4630915531612E+07
(PID.TID 0000.0001) %MON trcstat_ptracer01_min        =  -1.7681673164223E+06
(PID.TID 0000.0001) %MON trcstat_ptracer01_mean       =   3.2938000717678E+07
(PID.TID 0000.0001) %MON trcstat_ptracer01_sd         =   4.0965351350323E+06
(PID.TID 0000.0001) %MON trcstat_ptracer01_del2       =   9.1927082498261E+03
(PID.TID 0000.0001) // =======================================================
(PID.TID 0000.0001) // End MONITOR ptracer field statistics
(PID.TID 0000.0001) // =======================================================
 Computing Diagnostic #    79 "DRHODR  " (list#  1) Parms "SM      LR      ", Count=      10
 Computing Diagnostic #    64 "RHOAnoma" (list#  1) Parms "SMR     MR      ", Count=      10
 Computing Diagnostic #    80 "CONVADJ " (list#  1) Parms "SMR     LR      ", Count=      10
 Computing Diagnostic #   210 "GM_Kwx  " (list#  1) Parms "UM      LR      ", Count=      10
             Vector  Mate for "GM_Kwx  " :  Diagnostic #    211 "GM_Kwy  " exists
 Computing Diagnostic #   211 "GM_Kwy  " (list#  1) Parms "VM      LR      ", Count=      10
             Vector  Mate for "GM_Kwy  " :  Diagnostic #    210 "GM_Kwx  " exists
 Computing Diagnostic #   212 "GM_Kwz  " (list#  1) Parms "WM P    LR      ", Count=      10
 Computing Diagnostic #   213 "GM_PsiX " (list#  1) Parms "UU      LR      ", Count=      10
             Vector  Mate for "GM_PsiX " :  Diagnostic #    214 "GM_PsiY " exists
 Computing Diagnostic #   214 "GM_PsiY " (list#  1) Parms "VV      LR      ", Count=      10
             Vector  Mate for "GM_PsiY " :  Diagnostic #    213 "GM_PsiX " exists
 EXTERNAL_FIELDS_LOAD,       390 : iP,iLd,i0,i1=    1    2    1    2 ; Wght=  0.5000000000  0.5000000000
 cg2d: Sum(rhs),rhsMax =  -1.98951966012828E-13  4.85862900466081E+00
 EXTERNAL_FIELDS_LOAD,       391 : iP,iLd,i0,i1=    1    2    1    2 ; Wght=  0.4666666667  0.5333333333
 cg2d: Sum(rhs),rhsMax =  -2.84217094304040E-14  4.86306608661910E+00
 EXTERNAL_FIELDS_LOAD,       392 : iP,iLd,i0,i1=    1    2    1    2 ; Wght=  0.4333333333  0.5666666667
 cg2d: Sum(rhs),rhsMax =  -2.84217094304040E-13  4.86891080324729E+00
 EXTERNAL_FIELDS_LOAD,       393 : iP,iLd,i0,i1=    1    2    1    2 ; Wght=  0.4000000000  0.6000000000
 cg2d: Sum(rhs),rhsMax =  -3.41060513164848E-13  4.87618893311039E+00
 EXTERNAL_FIELDS_LOAD,       394 : iP,iLd,i0,i1=    1    2    1    2 ; Wght=  0.3666666667  0.6333333333
 cg2d: Sum(rhs),rhsMax =  -1.42108547152020E-13  4.88488815126990E+00
 EXTERNAL_FIELDS_LOAD,       395 : iP,iLd,i0,i1=    1    2    1    2 ; Wght=  0.3333333333  0.6666666667
 cg2d: Sum(rhs),rhsMax =  -1.70530256582424E-13  4.89495805205969E+00
 Compute Stats, Diag. #    23 "ETAN    " (list#  1) Parms "SM      M1      ", vol(  0 )= 3.639E+14
 Compute Stats, Diag. #    30 "UVEL    " (list#  1) Parms "UUR     MR      ", vol(  0 )= 1.231E+18
 Compute Stats, Diag. #    31 "VVEL    " (list#  1) Parms "VVR     MR      ", vol(  0 )= 1.243E+18
 Compute Stats, Diag. #    32 "WVEL    " (list#  1) Parms "WM      LR      ", vol(  0 )= 1.315E+18
 Compute Stats, Diag. #    26 "THETA   " (list#  1) Parms "SMR     MR      ", vol(  0 )= 1.340E+18
 EXTERNAL_FIELDS_LOAD,       396 : iP,iLd,i0,i1=    1    2    1    2 ; Wght=  0.3000000000  0.7000000000
 cg2d: Sum(rhs),rhsMax =  -2.84217094304040E-14  4.90631125171560E+00
 EXTERNAL_FIELDS_LOAD,       397 : iP,iLd,i0,i1=    1    2    1    2 ; Wght=  0.2666666667  0.7333333333
 cg2d: Sum(rhs),rhsMax =  -2.84217094304040E-13  4.91882556244510E+00
 EXTERNAL_FIELDS_LOAD,       398 : iP,iLd,i0,i1=    1    2    1    2 ; Wght=  0.2333333333  0.7666666667
 cg2d: Sum(rhs),rhsMax =  -1.98951966012828E-13  4.93234687139522E+00
 EXTERNAL_FIELDS_LOAD,       399 : iP,iLd,i0,i1=    1    2    1    2 ; Wght=  0.2000000000  0.8000000000
 cg2d: Sum(rhs),rhsMax =  -1.42108547152020E-13  4.94669302393757E+00
 Computing Diagnostic #    79 "DRHODR  " (list#  1) Parms "SM      LR      ", Count=      10
 Computing Diagnostic #    64 "RHOAnoma" (list#  1) Parms "SMR     MR      ", Count=      10
 Computing Diagnostic #    80 "CONVADJ " (list#  1) Parms "SMR     LR      ", Count=      10
 Computing Diagnostic #   210 "GM_Kwx  " (list#  1) Parms "UM      LR      ", Count=      10
             Vector  Mate for "GM_Kwx  " :  Diagnostic #    211 "GM_Kwy  " exists
 Computing Diagnostic #   211 "GM_Kwy  " (list#  1) Parms "VM      LR      ", Count=      10
             Vector  Mate for "GM_Kwy  " :  Diagnostic #    210 "GM_Kwx  " exists
 Computing Diagnostic #   212 "GM_Kwz  " (list#  1) Parms "WM P    LR      ", Count=      10
 Computing Diagnostic #   213 "GM_PsiX " (list#  1) Parms "UU      LR      ", Count=      10
             Vector  Mate for "GM_PsiX " :  Diagnostic #    214 "GM_PsiY " exists
 Computing Diagnostic #   214 "GM_PsiY " (list#  1) Parms "VV      LR      ", Count=      10
             Vector  Mate for "GM_PsiY " :  Diagnostic #    213 "GM_PsiX " exists
 EXTERNAL_FIELDS_LOAD,       400 : iP,iLd,i0,i1=    1    2    1    2 ; Wght=  0.1666666667  0.8333333333
 cg2d: Sum(rhs),rhsMax =  -5.68434188608080E-14  4.96165854485912E+00
 EXTERNAL_FIELDS_LOAD,       401 : iP,iLd,i0,i1=    1    2    1    2 ; Wght=  0.1333333333  0.8666666667
 cg2d: Sum(rhs),rhsMax =   1.70530256582424E-13  4.97701956059285E+00
 EXTERNAL_FIELDS_LOAD,       402 : iP,iLd,i0,i1=    1    2    1    2 ; Wght=  0.1000000000  0.9000000000
 cg2d: Sum(rhs),rhsMax =  -5.68434188608080E-14  4.99253943751726E+00
 EXTERNAL_FIELDS_LOAD,       403 : iP,iLd,i0,i1=    1    2    1    2 ; Wght=  0.0666666667  0.9333333333
 cg2d: Sum(rhs),rhsMax =   2.84217094304040E-14  5.00797470884303E+00
 EXTERNAL_FIELDS_LOAD,       404 : iP,iLd,i0,i1=    1    2    1    2 ; Wght=  0.0333333333  0.9666666667
 cg2d: Sum(rhs),rhsMax =  -1.70530256582424E-13  5.02308093559283E+00
 EXTERNAL_FIELDS_LOAD,       405 : iP,iLd,i0,i1=    1    2    2    3 ; Wght=  1.0000000000  0.0000000000
 EXTERNAL_FIELDS_LOAD, it=       405 : Reading new data, i0,i1=    2    3 (prev=    1    2 )
(PID.TID 0000.0001)  MDS_READ_FIELD: opening global file: trenberth_taux.bin
(PID.TID 0000.0001)  MDS_READ_FIELD: opening global file: trenberth_taux.bin
(PID.TID 0000.0001)  MDS_READ_FIELD: opening global file: trenberth_tauy.bin
(PID.TID 0000.0001)  MDS_READ_FIELD: opening global file: trenberth_tauy.bin
(PID.TID 0000.0001)  MDS_READ_FIELD: opening global file: shiQnet_cs32.bin
(PID.TID 0000.0001)  MDS_READ_FIELD: opening global file: shiQnet_cs32.bin
(PID.TID 0000.0001)  MDS_READ_FIELD: opening global file: shiEmPR_cs32.bin
(PID.TID 0000.0001)  MDS_READ_FIELD: opening global file: shiEmPR_cs32.bin
(PID.TID 0000.0001)  MDS_READ_FIELD: opening global file: lev_surfT_cs_12m.bin
(PID.TID 0000.0001)  MDS_READ_FIELD: opening global file: lev_surfT_cs_12m.bin
(PID.TID 0000.0001)  MDS_READ_FIELD: opening global file: lev_surfS_cs_12m.bin
(PID.TID 0000.0001)  MDS_READ_FIELD: opening global file: lev_surfS_cs_12m.bin
 cg2d: Sum(rhs),rhsMax =  -1.13686837721616E-13  5.03761874845718E+00
 Compute Stats, Diag. #    23 "ETAN    " (list#  1) Parms "SM      M1      ", vol(  0 )= 3.639E+14
 Compute Stats, Diag. #    30 "UVEL    " (list#  1) Parms "UUR     MR      ", vol(  0 )= 1.231E+18
 Compute Stats, Diag. #    31 "VVEL    " (list#  1) Parms "VVR     MR      ", vol(  0 )= 1.243E+18
 Compute Stats, Diag. #    32 "WVEL    " (list#  1) Parms "WM      LR      ", vol(  0 )= 1.315E+18
 Compute Stats, Diag. #    26 "THETA   " (list#  1) Parms "SMR     MR      ", vol(  0 )= 1.340E+18
 EXTERNAL_FIELDS_LOAD,       406 : iP,iLd,i0,i1=    2    3    2    3 ; Wght=  0.9666666667  0.0333333333
 cg2d: Sum(rhs),rhsMax =  -1.13686837721616E-13  5.05136810423963E+00
 EXTERNAL_FIELDS_LOAD,       407 : iP,iLd,i0,i1=    2    3    2    3 ; Wght=  0.9333333333  0.0666666667
 cg2d: Sum(rhs),rhsMax =  -2.55795384873636E-13  5.06408158341378E+00
 EXTERNAL_FIELDS_LOAD,       408 : iP,iLd,i0,i1=    2    3    2    3 ; Wght=  0.9000000000  0.1000000000
 cg2d: Sum(rhs),rhsMax =  -1.98951966012828E-13  5.07557406099971E+00
 EXTERNAL_FIELDS_LOAD,       409 : iP,iLd,i0,i1=    2    3    2    3 ; Wght=  0.8666666667  0.1333333333
 cg2d: Sum(rhs),rhsMax =  -5.68434188608080E-14  5.08567986521951E+00
 Computing Diagnostic #    79 "DRHODR  " (list#  1) Parms "SM      LR      ", Count=      10
 Computing Diagnostic #    64 "RHOAnoma" (list#  1) Parms "SMR     MR      ", Count=      10
 Computing Diagnostic #    80 "CONVADJ " (list#  1) Parms "SMR     LR      ", Count=      10
 Computing Diagnostic #   210 "GM_Kwx  " (list#  1) Parms "UM      LR      ", Count=      10
             Vector  Mate for "GM_Kwx  " :  Diagnostic #    211 "GM_Kwy  " exists
 Computing Diagnostic #   211 "GM_Kwy  " (list#  1) Parms "VM      LR      ", Count=      10
             Vector  Mate for "GM_Kwy  " :  Diagnostic #    210 "GM_Kwx  " exists
 Computing Diagnostic #   212 "GM_Kwz  " (list#  1) Parms "WM P    LR      ", Count=      10
 Computing Diagnostic #   213 "GM_PsiX " (list#  1) Parms "UU      LR      ", Count=      10
             Vector  Mate for "GM_PsiX " :  Diagnostic #    214 "GM_PsiY " exists
 Computing Diagnostic #   214 "GM_PsiY " (list#  1) Parms "VV      LR      ", Count=      10
             Vector  Mate for "GM_PsiY " :  Diagnostic #    213 "GM_PsiX " exists
 EXTERNAL_FIELDS_LOAD,       410 : iP,iLd,i0,i1=    2    3    2    3 ; Wght=  0.8333333333  0.1666666667
 cg2d: Sum(rhs),rhsMax =   0.00000000000000E+00  5.09426217611048E+00
 EXTERNAL_FIELDS_LOAD,       411 : iP,iLd,i0,i1=    2    3    2    3 ; Wght=  0.8000000000  0.2000000000
 cg2d: Sum(rhs),rhsMax =   2.84217094304040E-14  5.10121455361387E+00
 EXTERNAL_FIELDS_LOAD,       412 : iP,iLd,i0,i1=    2    3    2    3 ; Wght=  0.7666666667  0.2333333333
 cg2d: Sum(rhs),rhsMax =  -2.55795384873636E-13  5.10646441869723E+00
 EXTERNAL_FIELDS_LOAD,       413 : iP,iLd,i0,i1=    2    3    2    3 ; Wght=  0.7333333333  0.2666666667
 cg2d: Sum(rhs),rhsMax =   0.00000000000000E+00  5.10997439529689E+00
 EXTERNAL_FIELDS_LOAD,       414 : iP,iLd,i0,i1=    2    3    2    3 ; Wght=  0.7000000000  0.3000000000
 cg2d: Sum(rhs),rhsMax =   1.98951966012828E-13  5.11174234089994E+00
 EXTERNAL_FIELDS_LOAD,       415 : iP,iLd,i0,i1=    2    3    2    3 ; Wght=  0.6666666667  0.3333333333
 cg2d: Sum(rhs),rhsMax =   5.68434188608080E-14  5.11180068001442E+00
 Compute Stats, Diag. #    23 "ETAN    " (list#  1) Parms "SM      M1      ", vol(  0 )= 3.639E+14
 Compute Stats, Diag. #    30 "UVEL    " (list#  1) Parms "UUR     MR      ", vol(  0 )= 1.231E+18
 Compute Stats, Diag. #    31 "VVEL    " (list#  1) Parms "VVR     MR      ", vol(  0 )= 1.243E+18
 Compute Stats, Diag. #    32 "WVEL    " (list#  1) Parms "WM      LR      ", vol(  0 )= 1.315E+18
 Compute Stats, Diag. #    26 "THETA   " (list#  1) Parms "SMR     MR      ", vol(  0 )= 1.340E+18
 EXTERNAL_FIELDS_LOAD,       416 : iP,iLd,i0,i1=    2    3    2    3 ; Wght=  0.6333333333  0.3666666667
 cg2d: Sum(rhs),rhsMax =   2.84217094304040E-14  5.11021519704437E+00
 EXTERNAL_FIELDS_LOAD,       417 : iP,iLd,i0,i1=    2    3    2    3 ; Wght=  0.6000000000  0.4000000000
 cg2d: Sum(rhs),rhsMax =   0.00000000000000E+00  5.10708321088043E+00
 EXTERNAL_FIELDS_LOAD,       418 : iP,iLd,i0,i1=    2    3    2    3 ; Wght=  0.5666666667  0.4333333333
 cg2d: Sum(rhs),rhsMax =  -5.68434188608080E-14  5.10253100938481E+00
 EXTERNAL_FIELDS_LOAD,       419 : iP,iLd,i0,i1=    2    3    2    3 ; Wght=  0.5333333333  0.4666666667
 cg2d: Sum(rhs),rhsMax =   8.52651282912120E-14  5.09671072327779E+00
(PID.TID 0000.0001)      cg2d_init_res =   3.41470537184600E-01
(PID.TID 0000.0001)      cg2d_iters(min,last) =      -1      63
(PID.TID 0000.0001)      cg2d_last_res =   5.30255093791757E-07
(PID.TID 0000.0001) // =======================================================
(PID.TID 0000.0001) // Begin MONITOR dynamic field statistics
(PID.TID 0000.0001) // =======================================================
(PID.TID 0000.0001) %MON time_tsnumber                =                   420
(PID.TID 0000.0001) %MON time_secondsf                =   3.6288000000000E+07
(PID.TID 0000.0001) %MON dynstat_eta_max              =   8.7305210897330E-01
(PID.TID 0000.0001) %MON dynstat_eta_min              =  -1.8293768275893E+00
(PID.TID 0000.0001) %MON dynstat_eta_mean             =   5.4962157007856E-17
(PID.TID 0000.0001) %MON dynstat_eta_sd               =   6.2654154257194E-01
(PID.TID 0000.0001) %MON dynstat_eta_del2             =   7.7351687617358E-04
(PID.TID 0000.0001) %MON dynstat_uvel_max             =   1.4048824226879E-01
(PID.TID 0000.0001) %MON dynstat_uvel_min             =  -2.1921380769276E-01
(PID.TID 0000.0001) %MON dynstat_uvel_mean            =  -3.9832432337889E-04
(PID.TID 0000.0001) %MON dynstat_uvel_sd              =   1.2296364637424E-02
(PID.TID 0000.0001) %MON dynstat_uvel_del2            =   5.0874661817486E-05
(PID.TID 0000.0001) %MON dynstat_vvel_max             =   1.6896154580673E-01
(PID.TID 0000.0001) %MON dynstat_vvel_min             =  -1.8597616845197E-01
(PID.TID 0000.0001) %MON dynstat_vvel_mean            =  -3.0346174382995E-04
(PID.TID 0000.0001) %MON dynstat_vvel_sd              =   1.2445476342971E-02
(PID.TID 0000.0001) %MON dynstat_vvel_del2            =   5.0786127811387E-05
(PID.TID 0000.0001) %MON dynstat_wvel_max             =   7.9032622237717E-05
(PID.TID 0000.0001) %MON dynstat_wvel_min             =  -2.3518864638659E-04
(PID.TID 0000.0001) %MON dynstat_wvel_mean            =  -2.9010155547849E-23
(PID.TID 0000.0001) %MON dynstat_wvel_sd              =   5.7464739431522E-06
(PID.TID 0000.0001) %MON dynstat_wvel_del2            =   3.5596942567319E-08
(PID.TID 0000.0001) %MON dynstat_theta_max            =   3.1083247258573E+01
(PID.TID 0000.0001) %MON dynstat_theta_min            =  -6.0265505608725E+00
(PID.TID 0000.0001) %MON dynstat_theta_mean           =   3.6092285313063E+00
(PID.TID 0000.0001) %MON dynstat_theta_sd             =   4.4394794065499E+00
(PID.TID 0000.0001) %MON dynstat_theta_del2           =   2.6176586391636E-03
(PID.TID 0000.0001) %MON dynstat_salt_max             =   4.0703593589987E+01
(PID.TID 0000.0001) %MON dynstat_salt_min             =   1.8495877373042E+01
(PID.TID 0000.0001) %MON dynstat_salt_mean            =   3.4721048449983E+01
(PID.TID 0000.0001) %MON dynstat_salt_sd              =   4.9344719537639E-01
(PID.TID 0000.0001) %MON dynstat_salt_del2            =   8.0867975733484E-04
(PID.TID 0000.0001) %MON forcing_qnet_max             =   3.3042634335178E+02
(PID.TID 0000.0001) %MON forcing_qnet_min             =  -1.7660851259454E+02
(PID.TID 0000.0001) %MON forcing_qnet_mean            =  -1.0852729938019E+01
(PID.TID 0000.0001) %MON forcing_qnet_sd              =   7.0657056700312E+01
(PID.TID 0000.0001) %MON forcing_qnet_del2            =   4.2814957942894E-01
(PID.TID 0000.0001) %MON forcing_qsw_max              =   0.0000000000000E+00
(PID.TID 0000.0001) %MON forcing_qsw_min              =   0.0000000000000E+00
(PID.TID 0000.0001) %MON forcing_qsw_mean             =   0.0000000000000E+00
(PID.TID 0000.0001) %MON forcing_qsw_sd               =   0.0000000000000E+00
(PID.TID 0000.0001) %MON forcing_qsw_del2             =   0.0000000000000E+00
(PID.TID 0000.0001) %MON forcing_empmr_max            =   7.6494447208479E-05
(PID.TID 0000.0001) %MON forcing_empmr_min            =  -1.5362614137596E-04
(PID.TID 0000.0001) %MON forcing_empmr_mean           =  -2.7256318706594E-21
(PID.TID 0000.0001) %MON forcing_empmr_sd             =   2.4051723601802E-05
(PID.TID 0000.0001) %MON forcing_empmr_del2           =   1.2276157049243E-07
(PID.TID 0000.0001) %MON forcing_fu_max               =   2.5900680920623E-01
(PID.TID 0000.0001) %MON forcing_fu_min               =  -2.7674482002417E-01
(PID.TID 0000.0001) %MON forcing_fu_mean              =  -6.6071708361519E-03
(PID.TID 0000.0001) %MON forcing_fu_sd                =   6.6479507797018E-02
(PID.TID 0000.0001) %MON forcing_fu_del2              =   2.0283374775688E-04
(PID.TID 0000.0001) %MON forcing_fv_max               =   2.5607026525915E-01
(PID.TID 0000.0001) %MON forcing_fv_min               =  -3.1974616055058E-01
(PID.TID 0000.0001) %MON forcing_fv_mean              =  -1.3204626201289E-02
(PID.TID 0000.0001) %MON forcing_fv_sd                =   7.6035559339825E-02
(PID.TID 0000.0001) %MON forcing_fv_del2              =   2.3251705072657E-04
(PID.TID 0000.0001) %MON trAdv_CFL_u_max              =   1.0250367665218E-01
(PID.TID 0000.0001) %MON trAdv_CFL_v_max              =   9.5940794010112E-02
(PID.TID 0000.0001) %MON trAdv_CFL_w_max              =   9.8155045711745E-02
(PID.TID 0000.0001) %MON advcfl_uvel_max              =   6.2691130310340E-02
(PID.TID 0000.0001) %MON advcfl_vvel_max              =   7.1301597009053E-02
(PID.TID 0000.0001) %MON advcfl_wvel_max              =   7.6680373765287E-02
(PID.TID 0000.0001) %MON advcfl_W_hf_max              =   8.4667912699171E-02
(PID.TID 0000.0001) %MON pe_b_mean                    =   5.2295487618605E-04
(PID.TID 0000.0001) %MON ke_max                       =   2.7120687330082E-02
(PID.TID 0000.0001) %MON ke_mean                      =   1.4143857636956E-04
(PID.TID 0000.0001) %MON ke_vol                       =   1.3398024453628E+18
(PID.TID 0000.0001) %MON vort_r_min                   =  -1.0037890707920E-06
(PID.TID 0000.0001) %MON vort_r_max                   =   9.9393365859627E-07
(PID.TID 0000.0001) %MON vort_a_mean                  =  -2.0549865324846E-05
(PID.TID 0000.0001) %MON vort_a_sd                    =   7.5259644092645E-05
(PID.TID 0000.0001) %MON vort_p_mean                  =  -2.4783522345032E-05
(PID.TID 0000.0001) %MON vort_p_sd                    =   1.2810607163285E-04
(PID.TID 0000.0001) %MON surfExpan_theta_mean         =   8.7162481918131E-08
(PID.TID 0000.0001) %MON surfExpan_salt_mean          =   1.6656467439581E-08
(PID.TID 0000.0001) // =======================================================
(PID.TID 0000.0001) // End MONITOR dynamic field statistics
(PID.TID 0000.0001) // =======================================================
(PID.TID 0000.0001) // =======================================================
(PID.TID 0000.0001) // Begin MONITOR ptracer field statistics
(PID.TID 0000.0001) // =======================================================
(PID.TID 0000.0001) %MON trcstat_ptracer01_max        =   3.7139236443112E+07
(PID.TID 0000.0001) %MON trcstat_ptracer01_min        =  -2.0631035332911E+06
(PID.TID 0000.0001) %MON trcstat_ptracer01_mean       =   3.5453994530291E+07
(PID.TID 0000.0001) %MON trcstat_ptracer01_sd         =   4.4482580923668E+06
(PID.TID 0000.0001) %MON trcstat_ptracer01_del2       =   1.0129875184852E+04
(PID.TID 0000.0001) // =======================================================
(PID.TID 0000.0001) // End MONITOR ptracer field statistics
(PID.TID 0000.0001) // =======================================================
 Computing Diagnostic #    79 "DRHODR  " (list#  1) Parms "SM      LR      ", Count=      10
 Computing Diagnostic #    64 "RHOAnoma" (list#  1) Parms "SMR     MR      ", Count=      10
 Computing Diagnostic #    80 "CONVADJ " (list#  1) Parms "SMR     LR      ", Count=      10
 Computing Diagnostic #   210 "GM_Kwx  " (list#  1) Parms "UM      LR      ", Count=      10
             Vector  Mate for "GM_Kwx  " :  Diagnostic #    211 "GM_Kwy  " exists
 Computing Diagnostic #   211 "GM_Kwy  " (list#  1) Parms "VM      LR      ", Count=      10
             Vector  Mate for "GM_Kwy  " :  Diagnostic #    210 "GM_Kwx  " exists
 Computing Diagnostic #   212 "GM_Kwz  " (list#  1) Parms "WM P    LR      ", Count=      10
 Computing Diagnostic #   213 "GM_PsiX " (list#  1) Parms "UU      LR      ", Count=      10
             Vector  Mate for "GM_PsiX " :  Diagnostic #    214 "GM_PsiY " exists
 Computing Diagnostic #   214 "GM_PsiY " (list#  1) Parms "VV      LR      ", Count=      10
             Vector  Mate for "GM_PsiY " :  Diagnostic #    213 "GM_PsiX " exists
 EXTERNAL_FIELDS_LOAD,       420 : iP,iLd,i0,i1=    2    3    2    3 ; Wght=  0.5000000000  0.5000000000
 cg2d: Sum(rhs),rhsMax =   2.84217094304040E-14  5.08979646753492E+00
 EXTERNAL_FIELDS_LOAD,       421 : iP,iLd,i0,i1=    2    3    2    3 ; Wght=  0.4666666667  0.5333333333
 cg2d: Sum(rhs),rhsMax =   5.68434188608080E-14  5.08198001981780E+00
 EXTERNAL_FIELDS_LOAD,       422 : iP,iLd,i0,i1=    2    3    2    3 ; Wght=  0.4333333333  0.5666666667
 cg2d: Sum(rhs),rhsMax =  -8.52651282912120E-14  5.07346624942124E+00
 EXTERNAL_FIELDS_LOAD,       423 : iP,iLd,i0,i1=    2    3    2    3 ; Wght=  0.4000000000  0.6000000000
 cg2d: Sum(rhs),rhsMax =   1.13686837721616E-13  5.06446821343630E+00
 EXTERNAL_FIELDS_LOAD,       424 : iP,iLd,i0,i1=    2    3    2    3 ; Wght=  0.3666666667  0.6333333333
 cg2d: Sum(rhs),rhsMax =  -1.70530256582424E-13  5.05520244352491E+00
 EXTERNAL_FIELDS_LOAD,       425 : iP,iLd,i0,i1=    2    3    2    3 ; Wght=  0.3333333333  0.6666666667
 cg2d: Sum(rhs),rhsMax =  -2.84217094304040E-14  5.04588377292856E+00
 Compute Stats, Diag. #    23 "ETAN    " (list#  1) Parms "SM      M1      ", vol(  0 )= 3.639E+14
 Compute Stats, Diag. #    30 "UVEL    " (list#  1) Parms "UUR     MR      ", vol(  0 )= 1.231E+18
 Compute Stats, Diag. #    31 "VVEL    " (list#  1) Parms "VVR     MR      ", vol(  0 )= 1.243E+18
 Compute Stats, Diag. #    32 "WVEL    " (list#  1) Parms "WM      LR      ", vol(  0 )= 1.315E+18
 Compute Stats, Diag. #    26 "THETA   " (list#  1) Parms "SMR     MR      ", vol(  0 )= 1.340E+18
 EXTERNAL_FIELDS_LOAD,       426 : iP,iLd,i0,i1=    2    3    2    3 ; Wght=  0.3000000000  0.7000000000
 cg2d: Sum(rhs),rhsMax =  -2.84217094304040E-14  5.03672084943114E+00
 EXTERNAL_FIELDS_LOAD,       427 : iP,iLd,i0,i1=    2    3    2    3 ; Wght=  0.2666666667  0.7333333333
 cg2d: Sum(rhs),rhsMax =   2.55795384873636E-13  5.02791153353435E+00
 EXTERNAL_FIELDS_LOAD,       428 : iP,iLd,i0,i1=    2    3    2    3 ; Wght=  0.2333333333  0.7666666667
 cg2d: Sum(rhs),rhsMax =   0.00000000000000E+00  5.01963867640569E+00
 EXTERNAL_FIELDS_LOAD,       429 : iP,iLd,i0,i1=    2    3    2    3 ; Wght=  0.2000000000  0.8000000000
 cg2d: Sum(rhs),rhsMax =  -8.52651282912120E-14  5.01206628712787E+00
 Computing Diagnostic #    79 "DRHODR  " (list#  1) Parms "SM      LR      ", Count=      10
 Computing Diagnostic #    64 "RHOAnoma" (list#  1) Parms "SMR     MR      ", Count=      10
 Computing Diagnostic #    80 "CONVADJ " (list#  1) Parms "SMR     LR      ", Count=      10
 Computing Diagnostic #   210 "GM_Kwx  " (list#  1) Parms "UM      LR      ", Count=      10
             Vector  Mate for "GM_Kwx  " :  Diagnostic #    211 "GM_Kwy  " exists
 Computing Diagnostic #   211 "GM_Kwy  " (list#  1) Parms "VM      LR      ", Count=      10
             Vector  Mate for "GM_Kwy  " :  Diagnostic #    210 "GM_Kwx  " exists
 Computing Diagnostic #   212 "GM_Kwz  " (list#  1) Parms "WM P    LR      ", Count=      10
 Computing Diagnostic #   213 "GM_PsiX " (list#  1) Parms "UU      LR      ", Count=      10
             Vector  Mate for "GM_PsiX " :  Diagnostic #    214 "GM_PsiY " exists
 Computing Diagnostic #   214 "GM_PsiY " (list#  1) Parms "VV      LR      ", Count=      10
             Vector  Mate for "GM_PsiY " :  Diagnostic #    213 "GM_PsiX " exists
 EXTERNAL_FIELDS_LOAD,       430 : iP,iLd,i0,i1=    2    3    2    3 ; Wght=  0.1666666667  0.8333333333
 cg2d: Sum(rhs),rhsMax =  -1.70530256582424E-13  5.00533618453357E+00
 EXTERNAL_FIELDS_LOAD,       431 : iP,iLd,i0,i1=    2    3    2    3 ; Wght=  0.1333333333  0.8666666667
 cg2d: Sum(rhs),rhsMax =  -2.27373675443232E-13  4.99956516461395E+00
 EXTERNAL_FIELDS_LOAD,       432 : iP,iLd,i0,i1=    2    3    2    3 ; Wght=  0.1000000000  0.9000000000
 cg2d: Sum(rhs),rhsMax =  -1.42108547152020E-13  4.99484282142300E+00
 EXTERNAL_FIELDS_LOAD,       433 : iP,iLd,i0,i1=    2    3    2    3 ; Wght=  0.0666666667  0.9333333333
 cg2d: Sum(rhs),rhsMax =  -1.13686837721616E-13  4.99122996977030E+00
 EXTERNAL_FIELDS_LOAD,       434 : iP,iLd,i0,i1=    2    3    2    3 ; Wght=  0.0333333333  0.9666666667
 cg2d: Sum(rhs),rhsMax =   8.52651282912120E-14  4.98875779330530E+00
 EXTERNAL_FIELDS_LOAD,       435 : iP,iLd,i0,i1=    2    3    3    4 ; Wght=  1.0000000000  0.0000000000
 EXTERNAL_FIELDS_LOAD, it=       435 : Reading new data, i0,i1=    3    4 (prev=    2    3 )
(PID.TID 0000.0001)  MDS_READ_FIELD: opening global file: trenberth_taux.bin
(PID.TID 0000.0001)  MDS_READ_FIELD: opening global file: trenberth_taux.bin
(PID.TID 0000.0001)  MDS_READ_FIELD: opening global file: trenberth_tauy.bin
(PID.TID 0000.0001)  MDS_READ_FIELD: opening global file: trenberth_tauy.bin
(PID.TID 0000.0001)  MDS_READ_FIELD: opening global file: shiQnet_cs32.bin
(PID.TID 0000.0001)  MDS_READ_FIELD: opening global file: shiQnet_cs32.bin
(PID.TID 0000.0001)  MDS_READ_FIELD: opening global file: shiEmPR_cs32.bin
(PID.TID 0000.0001)  MDS_READ_FIELD: opening global file: shiEmPR_cs32.bin
(PID.TID 0000.0001)  MDS_READ_FIELD: opening global file: lev_surfT_cs_12m.bin
(PID.TID 0000.0001)  MDS_READ_FIELD: opening global file: lev_surfT_cs_12m.bin
(PID.TID 0000.0001)  MDS_READ_FIELD: opening global file: lev_surfS_cs_12m.bin
(PID.TID 0000.0001)  MDS_READ_FIELD: opening global file: lev_surfS_cs_12m.bin
 cg2d: Sum(rhs),rhsMax =  -8.52651282912120E-14  4.98742769627895E+00
 Compute Stats, Diag. #    23 "ETAN    " (list#  1) Parms "SM      M1      ", vol(  0 )= 3.639E+14
 Compute Stats, Diag. #    30 "UVEL    " (list#  1) Parms "UUR     MR      ", vol(  0 )= 1.231E+18
 Compute Stats, Diag. #    31 "VVEL    " (list#  1) Parms "VVR     MR      ", vol(  0 )= 1.243E+18
 Compute Stats, Diag. #    32 "WVEL    " (list#  1) Parms "WM      LR      ", vol(  0 )= 1.315E+18
 Compute Stats, Diag. #    26 "THETA   " (list#  1) Parms "SMR     MR      ", vol(  0 )= 1.340E+18
 EXTERNAL_FIELDS_LOAD,       436 : iP,iLd,i0,i1=    3    4    3    4 ; Wght=  0.9666666667  0.0333333333
 cg2d: Sum(rhs),rhsMax =  -2.55795384873636E-13  4.98717874351535E+00
 EXTERNAL_FIELDS_LOAD,       437 : iP,iLd,i0,i1=    3    4    3    4 ; Wght=  0.9333333333  0.0666666667
 cg2d: Sum(rhs),rhsMax =   0.00000000000000E+00  4.98800558330195E+00
 EXTERNAL_FIELDS_LOAD,       438 : iP,iLd,i0,i1=    3    4    3    4 ; Wght=  0.9000000000  0.1000000000
 cg2d: Sum(rhs),rhsMax =  -5.68434188608080E-14  4.98984373589189E+00
 EXTERNAL_FIELDS_LOAD,       439 : iP,iLd,i0,i1=    3    4    3    4 ; Wght=  0.8666666667  0.1333333333
 cg2d: Sum(rhs),rhsMax =   5.68434188608080E-14  4.99258787689836E+00
 Computing Diagnostic #    79 "DRHODR  " (list#  1) Parms "SM      LR      ", Count=      10
 Computing Diagnostic #    64 "RHOAnoma" (list#  1) Parms "SMR     MR      ", Count=      10
 Computing Diagnostic #    80 "CONVADJ " (list#  1) Parms "SMR     LR      ", Count=      10
 Computing Diagnostic #   210 "GM_Kwx  " (list#  1) Parms "UM      LR      ", Count=      10
             Vector  Mate for "GM_Kwx  " :  Diagnostic #    211 "GM_Kwy  " exists
 Computing Diagnostic #   211 "GM_Kwy  " (list#  1) Parms "VM      LR      ", Count=      10
             Vector  Mate for "GM_Kwy  " :  Diagnostic #    210 "GM_Kwx  " exists
 Computing Diagnostic #   212 "GM_Kwz  " (list#  1) Parms "WM P    LR      ", Count=      10
 Computing Diagnostic #   213 "GM_PsiX " (list#  1) Parms "UU      LR      ", Count=      10
             Vector  Mate for "GM_PsiX " :  Diagnostic #    214 "GM_PsiY " exists
 Computing Diagnostic #   214 "GM_PsiY " (list#  1) Parms "VV      LR      ", Count=      10
             Vector  Mate for "GM_PsiY " :  Diagnostic #    213 "GM_PsiX " exists
 EXTERNAL_FIELDS_LOAD,       440 : iP,iLd,i0,i1=    3    4    3    4 ; Wght=  0.8333333333  0.1666666667
 cg2d: Sum(rhs),rhsMax =  -2.84217094304040E-14  4.99610726631958E+00
 EXTERNAL_FIELDS_LOAD,       441 : iP,iLd,i0,i1=    3    4    3    4 ; Wght=  0.8000000000  0.2000000000
 cg2d: Sum(rhs),rhsMax =  -3.69482222595252E-13  5.00025782375352E+00
 EXTERNAL_FIELDS_LOAD,       442 : iP,iLd,i0,i1=    3    4    3    4 ; Wght=  0.7666666667  0.2333333333
 cg2d: Sum(rhs),rhsMax =   5.68434188608080E-14  5.00488303181466E+00
 EXTERNAL_FIELDS_LOAD,       443 : iP,iLd,i0,i1=    3    4    3    4 ; Wght=  0.7333333333  0.2666666667
 cg2d: Sum(rhs),rhsMax =  -2.84217094304040E-14  5.00981622711312E+00
 EXTERNAL_FIELDS_LOAD,       444 : iP,iLd,i0,i1=    3    4    3    4 ; Wght=  0.7000000000  0.3000000000
 cg2d: Sum(rhs),rhsMax =  -1.70530256582424E-13  5.01488447688431E+00
 EXTERNAL_FIELDS_LOAD,       445 : iP,iLd,i0,i1=    3    4    3    4 ; Wght=  0.6666666667  0.3333333333
 cg2d: Sum(rhs),rhsMax =  -3.12638803734444E-13  5.01991258453901E+00
 Compute Stats, Diag. #    23 "ETAN    " (list#  1) Parms "SM      M1      ", vol(  0 )= 3.639E+14
 Compute Stats, Diag. #    30 "UVEL    " (list#  1) Parms "UUR     MR      ", vol(  0 )= 1.231E+18
 Compute Stats, Diag. #    31 "VVEL    " (list#  1) Parms "VVR     MR      ", vol(  0 )= 1.243E+18
 Compute Stats, Diag. #    32 "WVEL    " (list#  1) Parms "WM      LR      ", vol(  0 )= 1.315E+18
 Compute Stats, Diag. #    26 "THETA   " (list#  1) Parms "SMR     MR      ", vol(  0 )= 1.340E+18
 EXTERNAL_FIELDS_LOAD,       446 : iP,iLd,i0,i1=    3    4    3    4 ; Wght=  0.6333333333  0.3666666667
 cg2d: Sum(rhs),rhsMax =  -1.98951966012828E-13  5.02472715937374E+00
 EXTERNAL_FIELDS_LOAD,       447 : iP,iLd,i0,i1=    3    4    3    4 ; Wght=  0.6000000000  0.4000000000
 cg2d: Sum(rhs),rhsMax =   5.68434188608080E-14  5.02916040360716E+00
 EXTERNAL_FIELDS_LOAD,       448 : iP,iLd,i0,i1=    3    4    3    4 ; Wght=  0.5666666667  0.4333333333
 cg2d: Sum(rhs),rhsMax =  -1.13686837721616E-13  5.03305394348625E+00
 EXTERNAL_FIELDS_LOAD,       449 : iP,iLd,i0,i1=    3    4    3    4 ; Wght=  0.5333333333  0.4666666667
 cg2d: Sum(rhs),rhsMax =   0.00000000000000E+00  5.03626208519921E+00
(PID.TID 0000.0001)      cg2d_init_res =   2.54512308048725E-01
(PID.TID 0000.0001)      cg2d_iters(min,last) =      -1      62
(PID.TID 0000.0001)      cg2d_last_res =   5.49729212998459E-07
(PID.TID 0000.0001) // =======================================================
(PID.TID 0000.0001) // Begin MONITOR dynamic field statistics
(PID.TID 0000.0001) // =======================================================
(PID.TID 0000.0001) %MON time_tsnumber                =                   450
(PID.TID 0000.0001) %MON time_secondsf                =   3.8880000000000E+07
(PID.TID 0000.0001) %MON dynstat_eta_max              =   8.9925987025001E-01
(PID.TID 0000.0001) %MON dynstat_eta_min              =  -1.8496297623634E+00
(PID.TID 0000.0001) %MON dynstat_eta_mean             =   1.0992431401571E-16
(PID.TID 0000.0001) %MON dynstat_eta_sd               =   6.3287500267209E-01
(PID.TID 0000.0001) %MON dynstat_eta_del2             =   7.8252693516291E-04
(PID.TID 0000.0001) %MON dynstat_uvel_max             =   1.5209728044252E-01
(PID.TID 0000.0001) %MON dynstat_uvel_min             =  -2.2464489074424E-01
(PID.TID 0000.0001) %MON dynstat_uvel_mean            =  -3.7141573253046E-04
(PID.TID 0000.0001) %MON dynstat_uvel_sd              =   1.2345402353774E-02
(PID.TID 0000.0001) %MON dynstat_uvel_del2            =   5.1182599727145E-05
(PID.TID 0000.0001) %MON dynstat_vvel_max             =   1.6948834974508E-01
(PID.TID 0000.0001) %MON dynstat_vvel_min             =  -1.4915106324993E-01
(PID.TID 0000.0001) %MON dynstat_vvel_mean            =  -2.7399555994401E-04
(PID.TID 0000.0001) %MON dynstat_vvel_sd              =   1.2662872149826E-02
(PID.TID 0000.0001) %MON dynstat_vvel_del2            =   5.0805911071458E-05
(PID.TID 0000.0001) %MON dynstat_wvel_max             =   7.6697946389957E-05
(PID.TID 0000.0001) %MON dynstat_wvel_min             =  -2.2349540579799E-04
(PID.TID 0000.0001) %MON dynstat_wvel_mean            =  -1.2474366885575E-22
(PID.TID 0000.0001) %MON dynstat_wvel_sd              =   5.3099174390198E-06
(PID.TID 0000.0001) %MON dynstat_wvel_del2            =   3.4419024663791E-08
(PID.TID 0000.0001) %MON dynstat_theta_max            =   3.1719129020994E+01
(PID.TID 0000.0001) %MON dynstat_theta_min            =  -6.1672177510125E+00
(PID.TID 0000.0001) %MON dynstat_theta_mean           =   3.6097453649063E+00
(PID.TID 0000.0001) %MON dynstat_theta_sd             =   4.4454290718458E+00
(PID.TID 0000.0001) %MON dynstat_theta_del2           =   2.6259953159072E-03
(PID.TID 0000.0001) %MON dynstat_salt_max             =   4.0703370557126E+01
(PID.TID 0000.0001) %MON dynstat_salt_min             =   1.8475488896799E+01
(PID.TID 0000.0001) %MON dynstat_salt_mean            =   3.4721065026450E+01
(PID.TID 0000.0001) %MON dynstat_salt_sd              =   4.9354805221815E-01
(PID.TID 0000.0001) %MON dynstat_salt_del2            =   8.3455502049616E-04
(PID.TID 0000.0001) %MON forcing_qnet_max             =   2.5831548769935E+02
(PID.TID 0000.0001) %MON forcing_qnet_min             =  -1.7711183959068E+02
(PID.TID 0000.0001) %MON forcing_qnet_mean            =  -2.2000230223660E+00
(PID.TID 0000.0001) %MON forcing_qnet_sd              =   5.4013286575424E+01
(PID.TID 0000.0001) %MON forcing_qnet_del2            =   4.2321284728114E-01
(PID.TID 0000.0001) %MON forcing_qsw_max              =   0.0000000000000E+00
(PID.TID 0000.0001) %MON forcing_qsw_min              =   0.0000000000000E+00
(PID.TID 0000.0001) %MON forcing_qsw_mean             =   0.0000000000000E+00
(PID.TID 0000.0001) %MON forcing_qsw_sd               =   0.0000000000000E+00
(PID.TID 0000.0001) %MON forcing_qsw_del2             =   0.0000000000000E+00
(PID.TID 0000.0001) %MON forcing_empmr_max            =   7.6494447208479E-05
(PID.TID 0000.0001) %MON forcing_empmr_min            =  -1.5362614137596E-04
(PID.TID 0000.0001) %MON forcing_empmr_mean           =  -2.7256318706594E-21
(PID.TID 0000.0001) %MON forcing_empmr_sd             =   2.4051723601802E-05
(PID.TID 0000.0001) %MON forcing_empmr_del2           =   1.2276157049243E-07
(PID.TID 0000.0001) %MON forcing_fu_max               =   2.6643568027634E-01
(PID.TID 0000.0001) %MON forcing_fu_min               =  -3.2484514575530E-01
(PID.TID 0000.0001) %MON forcing_fu_mean              =  -8.6046156021580E-03
(PID.TID 0000.0001) %MON forcing_fu_sd                =   7.1623035383705E-02
(PID.TID 0000.0001) %MON forcing_fu_del2              =   2.0334094197389E-04
(PID.TID 0000.0001) %MON forcing_fv_max               =   2.0001411394083E-01
(PID.TID 0000.0001) %MON forcing_fv_min               =  -3.2442472981373E-01
(PID.TID 0000.0001) %MON forcing_fv_mean              =  -1.2827574480664E-02
(PID.TID 0000.0001) %MON forcing_fv_sd                =   7.4837413411441E-02
(PID.TID 0000.0001) %MON forcing_fv_del2              =   2.2208242510170E-04
(PID.TID 0000.0001) %MON trAdv_CFL_u_max              =   8.7094989248872E-02
(PID.TID 0000.0001) %MON trAdv_CFL_v_max              =   9.0838985887902E-02
(PID.TID 0000.0001) %MON trAdv_CFL_w_max              =   9.3164406103879E-02
(PID.TID 0000.0001) %MON advcfl_uvel_max              =   6.4244320498906E-02
(PID.TID 0000.0001) %MON advcfl_vvel_max              =   7.0955587099596E-02
(PID.TID 0000.0001) %MON advcfl_wvel_max              =   7.2867936079043E-02
(PID.TID 0000.0001) %MON advcfl_W_hf_max              =   8.0458346087277E-02
(PID.TID 0000.0001) %MON pe_b_mean                    =   5.3358100083794E-04
(PID.TID 0000.0001) %MON ke_max                       =   2.7052239616511E-02
(PID.TID 0000.0001) %MON ke_mean                      =   1.4450878198883E-04
(PID.TID 0000.0001) %MON ke_vol                       =   1.3398024453628E+18
(PID.TID 0000.0001) %MON vort_r_min                   =  -9.7942016570592E-07
(PID.TID 0000.0001) %MON vort_r_max                   =   1.1687323362621E-06
(PID.TID 0000.0001) %MON vort_a_mean                  =  -2.0549865324846E-05
(PID.TID 0000.0001) %MON vort_a_sd                    =   7.5259663483841E-05
(PID.TID 0000.0001) %MON vort_p_mean                  =  -2.4783522345032E-05
(PID.TID 0000.0001) %MON vort_p_sd                    =   1.2810633647661E-04
(PID.TID 0000.0001) %MON surfExpan_theta_mean         =   5.4767428959084E-08
(PID.TID 0000.0001) %MON surfExpan_salt_mean          =   1.5357308261572E-08
(PID.TID 0000.0001) // =======================================================
(PID.TID 0000.0001) // End MONITOR dynamic field statistics
(PID.TID 0000.0001) // =======================================================
(PID.TID 0000.0001) // =======================================================
(PID.TID 0000.0001) // Begin MONITOR ptracer field statistics
(PID.TID 0000.0001) // =======================================================
(PID.TID 0000.0001) %MON trcstat_ptracer01_max        =   3.9673038468273E+07
(PID.TID 0000.0001) %MON trcstat_ptracer01_min        =  -2.6452490210397E+06
(PID.TID 0000.0001) %MON trcstat_ptracer01_mean       =   3.7969110356003E+07
(PID.TID 0000.0001) %MON trcstat_ptracer01_sd         =   4.8106656140585E+06
(PID.TID 0000.0001) %MON trcstat_ptracer01_del2       =   1.0466414558929E+04
(PID.TID 0000.0001) // =======================================================
(PID.TID 0000.0001) // End MONITOR ptracer field statistics
(PID.TID 0000.0001) // =======================================================
 Computing Diagnostic #    79 "DRHODR  " (list#  1) Parms "SM      LR      ", Count=      10
 Computing Diagnostic #    64 "RHOAnoma" (list#  1) Parms "SMR     MR      ", Count=      10
 Computing Diagnostic #    80 "CONVADJ " (list#  1) Parms "SMR     LR      ", Count=      10
 Computing Diagnostic #   210 "GM_Kwx  " (list#  1) Parms "UM      LR      ", Count=      10
             Vector  Mate for "GM_Kwx  " :  Diagnostic #    211 "GM_Kwy  " exists
 Computing Diagnostic #   211 "GM_Kwy  " (list#  1) Parms "VM      LR      ", Count=      10
             Vector  Mate for "GM_Kwy  " :  Diagnostic #    210 "GM_Kwx  " exists
 Computing Diagnostic #   212 "GM_Kwz  " (list#  1) Parms "WM P    LR      ", Count=      10
 Computing Diagnostic #   213 "GM_PsiX " (list#  1) Parms "UU      LR      ", Count=      10
             Vector  Mate for "GM_PsiX " :  Diagnostic #    214 "GM_PsiY " exists
 Computing Diagnostic #   214 "GM_PsiY " (list#  1) Parms "VV      LR      ", Count=      10
             Vector  Mate for "GM_PsiY " :  Diagnostic #    213 "GM_PsiX " exists
 EXTERNAL_FIELDS_LOAD,       450 : iP,iLd,i0,i1=    3    4    3    4 ; Wght=  0.5000000000  0.5000000000
 cg2d: Sum(rhs),rhsMax =   8.52651282912120E-14  5.03865558767842E+00
 EXTERNAL_FIELDS_LOAD,       451 : iP,iLd,i0,i1=    3    4    3    4 ; Wght=  0.4666666667  0.5333333333
 cg2d: Sum(rhs),rhsMax =  -1.42108547152020E-13  5.04012418351122E+00
 EXTERNAL_FIELDS_LOAD,       452 : iP,iLd,i0,i1=    3    4    3    4 ; Wght=  0.4333333333  0.5666666667
 cg2d: Sum(rhs),rhsMax =  -1.13686837721616E-13  5.04057916263447E+00
 EXTERNAL_FIELDS_LOAD,       453 : iP,iLd,i0,i1=    3    4    3    4 ; Wght=  0.4000000000  0.6000000000
 cg2d: Sum(rhs),rhsMax =  -1.42108547152020E-13  5.03995510640295E+00
 EXTERNAL_FIELDS_LOAD,       454 : iP,iLd,i0,i1=    3    4    3    4 ; Wght=  0.3666666667  0.6333333333
 cg2d: Sum(rhs),rhsMax =  -8.52651282912120E-14  5.03821113844539E+00
 EXTERNAL_FIELDS_LOAD,       455 : iP,iLd,i0,i1=    3    4    3    4 ; Wght=  0.3333333333  0.6666666667
 cg2d: Sum(rhs),rhsMax =   2.84217094304040E-14  5.03533141617167E+00
 Compute Stats, Diag. #    23 "ETAN    " (list#  1) Parms "SM      M1      ", vol(  0 )= 3.639E+14
 Compute Stats, Diag. #    30 "UVEL    " (list#  1) Parms "UUR     MR      ", vol(  0 )= 1.231E+18
 Compute Stats, Diag. #    31 "VVEL    " (list#  1) Parms "VVR     MR      ", vol(  0 )= 1.243E+18
 Compute Stats, Diag. #    32 "WVEL    " (list#  1) Parms "WM      LR      ", vol(  0 )= 1.315E+18
 Compute Stats, Diag. #    26 "THETA   " (list#  1) Parms "SMR     MR      ", vol(  0 )= 1.340E+18
 EXTERNAL_FIELDS_LOAD,       456 : iP,iLd,i0,i1=    3    4    3    4 ; Wght=  0.3000000000  0.7000000000
 cg2d: Sum(rhs),rhsMax =  -8.52651282912120E-14  5.03132545599758E+00
 EXTERNAL_FIELDS_LOAD,       457 : iP,iLd,i0,i1=    3    4    3    4 ; Wght=  0.2666666667  0.7333333333
 cg2d: Sum(rhs),rhsMax =  -1.70530256582424E-13  5.02622704069050E+00
 EXTERNAL_FIELDS_LOAD,       458 : iP,iLd,i0,i1=    3    4    3    4 ; Wght=  0.2333333333  0.7666666667
 cg2d: Sum(rhs),rhsMax =  -8.52651282912120E-14  5.02009339370823E+00
 EXTERNAL_FIELDS_LOAD,       459 : iP,iLd,i0,i1=    3    4    3    4 ; Wght=  0.2000000000  0.8000000000
 cg2d: Sum(rhs),rhsMax =  -1.98951966012828E-13  5.01300393553264E+00
 Computing Diagnostic #    79 "DRHODR  " (list#  1) Parms "SM      LR      ", Count=      10
 Computing Diagnostic #    64 "RHOAnoma" (list#  1) Parms "SMR     MR      ", Count=      10
 Computing Diagnostic #    80 "CONVADJ " (list#  1) Parms "SMR     LR      ", Count=      10
 Computing Diagnostic #   210 "GM_Kwx  " (list#  1) Parms "UM      LR      ", Count=      10
             Vector  Mate for "GM_Kwx  " :  Diagnostic #    211 "GM_Kwy  " exists
 Computing Diagnostic #   211 "GM_Kwy  " (list#  1) Parms "VM      LR      ", Count=      10
             Vector  Mate for "GM_Kwy  " :  Diagnostic #    210 "GM_Kwx  " exists
 Computing Diagnostic #   212 "GM_Kwz  " (list#  1) Parms "WM P    LR      ", Count=      10
 Computing Diagnostic #   213 "GM_PsiX " (list#  1) Parms "UU      LR      ", Count=      10
             Vector  Mate for "GM_PsiX " :  Diagnostic #    214 "GM_PsiY " exists
 Computing Diagnostic #   214 "GM_PsiY " (list#  1) Parms "VV      LR      ", Count=      10
             Vector  Mate for "GM_PsiY " :  Diagnostic #    213 "GM_PsiX " exists
 EXTERNAL_FIELDS_LOAD,       460 : iP,iLd,i0,i1=    3    4    3    4 ; Wght=  0.1666666667  0.8333333333
 cg2d: Sum(rhs),rhsMax =  -1.42108547152020E-13  5.00505770579638E+00
 EXTERNAL_FIELDS_LOAD,       461 : iP,iLd,i0,i1=    3    4    3    4 ; Wght=  0.1333333333  0.8666666667
 cg2d: Sum(rhs),rhsMax =  -3.12638803734444E-13  4.99637111069162E+00
 EXTERNAL_FIELDS_LOAD,       462 : iP,iLd,i0,i1=    3    4    3    4 ; Wght=  0.1000000000  0.9000000000
 cg2d: Sum(rhs),rhsMax =   2.84217094304040E-14  4.98707531525070E+00
 EXTERNAL_FIELDS_LOAD,       463 : iP,iLd,i0,i1=    3    4    3    4 ; Wght=  0.0666666667  0.9333333333
 cg2d: Sum(rhs),rhsMax =  -8.52651282912120E-14  4.97731300945271E+00
 EXTERNAL_FIELDS_LOAD,       464 : iP,iLd,i0,i1=    3    4    3    4 ; Wght=  0.0333333333  0.9666666667
 cg2d: Sum(rhs),rhsMax =  -3.41060513164848E-13  4.96723521122266E+00
 EXTERNAL_FIELDS_LOAD,       465 : iP,iLd,i0,i1=    3    4    4    5 ; Wght=  1.0000000000  0.0000000000
 EXTERNAL_FIELDS_LOAD, it=       465 : Reading new data, i0,i1=    4    5 (prev=    3    4 )
(PID.TID 0000.0001)  MDS_READ_FIELD: opening global file: trenberth_taux.bin
(PID.TID 0000.0001)  MDS_READ_FIELD: opening global file: trenberth_taux.bin
(PID.TID 0000.0001)  MDS_READ_FIELD: opening global file: trenberth_tauy.bin
(PID.TID 0000.0001)  MDS_READ_FIELD: opening global file: trenberth_tauy.bin
(PID.TID 0000.0001)  MDS_READ_FIELD: opening global file: shiQnet_cs32.bin
(PID.TID 0000.0001)  MDS_READ_FIELD: opening global file: shiQnet_cs32.bin
(PID.TID 0000.0001)  MDS_READ_FIELD: opening global file: shiEmPR_cs32.bin
(PID.TID 0000.0001)  MDS_READ_FIELD: opening global file: shiEmPR_cs32.bin
(PID.TID 0000.0001)  MDS_READ_FIELD: opening global file: lev_surfT_cs_12m.bin
(PID.TID 0000.0001)  MDS_READ_FIELD: opening global file: lev_surfT_cs_12m.bin
(PID.TID 0000.0001)  MDS_READ_FIELD: opening global file: lev_surfS_cs_12m.bin
(PID.TID 0000.0001)  MDS_READ_FIELD: opening global file: lev_surfS_cs_12m.bin
 cg2d: Sum(rhs),rhsMax =  -1.13686837721616E-13  4.95699750691421E+00
 Compute Stats, Diag. #    23 "ETAN    " (list#  1) Parms "SM      M1      ", vol(  0 )= 3.639E+14
 Compute Stats, Diag. #    30 "UVEL    " (list#  1) Parms "UUR     MR      ", vol(  0 )= 1.231E+18
 Compute Stats, Diag. #    31 "VVEL    " (list#  1) Parms "VVR     MR      ", vol(  0 )= 1.243E+18
 Compute Stats, Diag. #    32 "WVEL    " (list#  1) Parms "WM      LR      ", vol(  0 )= 1.315E+18
 Compute Stats, Diag. #    26 "THETA   " (list#  1) Parms "SMR     MR      ", vol(  0 )= 1.340E+18
 EXTERNAL_FIELDS_LOAD,       466 : iP,iLd,i0,i1=    4    5    4    5 ; Wght=  0.9666666667  0.0333333333
 cg2d: Sum(rhs),rhsMax =  -8.52651282912120E-14  4.94683348425334E+00
 EXTERNAL_FIELDS_LOAD,       467 : iP,iLd,i0,i1=    4    5    4    5 ; Wght=  0.9333333333  0.0666666667
 cg2d: Sum(rhs),rhsMax =   1.42108547152020E-13  4.93681440185541E+00
 EXTERNAL_FIELDS_LOAD,       468 : iP,iLd,i0,i1=    4    5    4    5 ; Wght=  0.9000000000  0.1000000000
 cg2d: Sum(rhs),rhsMax =   5.68434188608080E-14  4.92707189053094E+00
 EXTERNAL_FIELDS_LOAD,       469 : iP,iLd,i0,i1=    4    5    4    5 ; Wght=  0.8666666667  0.1333333333
 cg2d: Sum(rhs),rhsMax =  -1.70530256582424E-13  4.91774743026912E+00
 Computing Diagnostic #    79 "DRHODR  " (list#  1) Parms "SM      LR      ", Count=      10
 Computing Diagnostic #    64 "RHOAnoma" (list#  1) Parms "SMR     MR      ", Count=      10
 Computing Diagnostic #    80 "CONVADJ " (list#  1) Parms "SMR     LR      ", Count=      10
 Computing Diagnostic #   210 "GM_Kwx  " (list#  1) Parms "UM      LR      ", Count=      10
             Vector  Mate for "GM_Kwx  " :  Diagnostic #    211 "GM_Kwy  " exists
 Computing Diagnostic #   211 "GM_Kwy  " (list#  1) Parms "VM      LR      ", Count=      10
             Vector  Mate for "GM_Kwy  " :  Diagnostic #    210 "GM_Kwx  " exists
 Computing Diagnostic #   212 "GM_Kwz  " (list#  1) Parms "WM P    LR      ", Count=      10
 Computing Diagnostic #   213 "GM_PsiX " (list#  1) Parms "UU      LR      ", Count=      10
             Vector  Mate for "GM_PsiX " :  Diagnostic #    214 "GM_PsiY " exists
 Computing Diagnostic #   214 "GM_PsiY " (list#  1) Parms "VV      LR      ", Count=      10
             Vector  Mate for "GM_PsiY " :  Diagnostic #    213 "GM_PsiX " exists
 EXTERNAL_FIELDS_LOAD,       470 : iP,iLd,i0,i1=    4    5    4    5 ; Wght=  0.8333333333  0.1666666667
 cg2d: Sum(rhs),rhsMax =   2.84217094304040E-14  4.90897112640536E+00
 EXTERNAL_FIELDS_LOAD,       471 : iP,iLd,i0,i1=    4    5    4    5 ; Wght=  0.8000000000  0.2000000000
 cg2d: Sum(rhs),rhsMax =  -2.55795384873636E-13  4.90085238142903E+00
 EXTERNAL_FIELDS_LOAD,       472 : iP,iLd,i0,i1=    4    5    4    5 ; Wght=  0.7666666667  0.2333333333
 cg2d: Sum(rhs),rhsMax =  -8.52651282912120E-14  4.89347930078195E+00
 EXTERNAL_FIELDS_LOAD,       473 : iP,iLd,i0,i1=    4    5    4    5 ; Wght=  0.7333333333  0.2666666667
 cg2d: Sum(rhs),rhsMax =   0.00000000000000E+00  4.88691814349699E+00
 EXTERNAL_FIELDS_LOAD,       474 : iP,iLd,i0,i1=    4    5    4    5 ; Wght=  0.7000000000  0.3000000000
 cg2d: Sum(rhs),rhsMax =  -8.52651282912120E-14  4.88121261761401E+00
 EXTERNAL_FIELDS_LOAD,       475 : iP,iLd,i0,i1=    4    5    4    5 ; Wght=  0.6666666667  0.3333333333
 cg2d: Sum(rhs),rhsMax =  -3.41060513164848E-13  4.87638472230300E+00
 Compute Stats, Diag. #    23 "ETAN    " (list#  1) Parms "SM      M1      ", vol(  0 )= 3.639E+14
 Compute Stats, Diag. #    30 "UVEL    " (list#  1) Parms "UUR     MR      ", vol(  0 )= 1.231E+18
 Compute Stats, Diag. #    31 "VVEL    " (list#  1) Parms "VVR     MR      ", vol(  0 )= 1.243E+18
 Compute Stats, Diag. #    32 "WVEL    " (list#  1) Parms "WM      LR      ", vol(  0 )= 1.315E+18
 Compute Stats, Diag. #    26 "THETA   " (list#  1) Parms "SMR     MR      ", vol(  0 )= 1.340E+18
 EXTERNAL_FIELDS_LOAD,       476 : iP,iLd,i0,i1=    4    5    4    5 ; Wght=  0.6333333333  0.3666666667
 cg2d: Sum(rhs),rhsMax =  -2.84217094304040E-14  4.87243904776325E+00
 EXTERNAL_FIELDS_LOAD,       477 : iP,iLd,i0,i1=    4    5    4    5 ; Wght=  0.6000000000  0.4000000000
 cg2d: Sum(rhs),rhsMax =  -2.55795384873636E-13  4.86937101774656E+00
 EXTERNAL_FIELDS_LOAD,       478 : iP,iLd,i0,i1=    4    5    4    5 ; Wght=  0.5666666667  0.4333333333
 cg2d: Sum(rhs),rhsMax =   0.00000000000000E+00  4.86714879015435E+00
 EXTERNAL_FIELDS_LOAD,       479 : iP,iLd,i0,i1=    4    5    4    5 ; Wght=  0.5333333333  0.4666666667
 cg2d: Sum(rhs),rhsMax =  -1.98951966012828E-13  4.86552883169772E+00
(PID.TID 0000.0001)      cg2d_init_res =   2.36709424402580E-01
(PID.TID 0000.0001)      cg2d_iters(min,last) =      -1      64
(PID.TID 0000.0001)      cg2d_last_res =   5.03259899151034E-07
(PID.TID 0000.0001) // =======================================================
(PID.TID 0000.0001) // Begin MONITOR dynamic field statistics
(PID.TID 0000.0001) // =======================================================
(PID.TID 0000.0001) %MON time_tsnumber                =                   480
(PID.TID 0000.0001) %MON time_secondsf                =   4.1472000000000E+07
(PID.TID 0000.0001) %MON dynstat_eta_max              =   9.2395360571877E-01
(PID.TID 0000.0001) %MON dynstat_eta_min              =  -1.8596476172926E+00
(PID.TID 0000.0001) %MON dynstat_eta_mean             =   1.3740539251964E-17
(PID.TID 0000.0001) %MON dynstat_eta_sd               =   6.3596886248893E-01
(PID.TID 0000.0001) %MON dynstat_eta_del2             =   7.8898483856694E-04
(PID.TID 0000.0001) %MON dynstat_uvel_max             =   1.5201637387536E-01
(PID.TID 0000.0001) %MON dynstat_uvel_min             =  -2.2317037375457E-01
(PID.TID 0000.0001) %MON dynstat_uvel_mean            =  -3.7152285375427E-04
(PID.TID 0000.0001) %MON dynstat_uvel_sd              =   1.2394240290838E-02
(PID.TID 0000.0001) %MON dynstat_uvel_del2            =   5.0809545498460E-05
(PID.TID 0000.0001) %MON dynstat_vvel_max             =   1.8967330069017E-01
(PID.TID 0000.0001) %MON dynstat_vvel_min             =  -1.4884257211739E-01
(PID.TID 0000.0001) %MON dynstat_vvel_mean            =  -2.8119804217111E-04
(PID.TID 0000.0001) %MON dynstat_vvel_sd              =   1.2729946516824E-02
(PID.TID 0000.0001) %MON dynstat_vvel_del2            =   5.1069369317741E-05
(PID.TID 0000.0001) %MON dynstat_wvel_max             =   9.6960552187542E-05
(PID.TID 0000.0001) %MON dynstat_wvel_min             =  -2.1861729404768E-04
(PID.TID 0000.0001) %MON dynstat_wvel_mean            =  -2.0307108883494E-23
(PID.TID 0000.0001) %MON dynstat_wvel_sd              =   5.0557955056234E-06
(PID.TID 0000.0001) %MON dynstat_wvel_del2            =   3.3982990075597E-08
(PID.TID 0000.0001) %MON dynstat_theta_max            =   3.1601821487829E+01
(PID.TID 0000.0001) %MON dynstat_theta_min            =  -6.3250968422021E+00
(PID.TID 0000.0001) %MON dynstat_theta_mean           =   3.6087843471711E+00
(PID.TID 0000.0001) %MON dynstat_theta_sd             =   4.4447698990197E+00
(PID.TID 0000.0001) %MON dynstat_theta_del2           =   2.5770713635099E-03
(PID.TID 0000.0001) %MON dynstat_salt_max             =   4.0702839112368E+01
(PID.TID 0000.0001) %MON dynstat_salt_min             =   1.8500792161078E+01
(PID.TID 0000.0001) %MON dynstat_salt_mean            =   3.4721089474732E+01
(PID.TID 0000.0001) %MON dynstat_salt_sd              =   4.9361291540267E-01
(PID.TID 0000.0001) %MON dynstat_salt_del2            =   8.5167977971647E-04
(PID.TID 0000.0001) %MON forcing_qnet_max             =   2.1934515500016E+02
(PID.TID 0000.0001) %MON forcing_qnet_min             =  -1.6486040907681E+02
(PID.TID 0000.0001) %MON forcing_qnet_mean            =   8.9314966133584E+00
(PID.TID 0000.0001) %MON forcing_qnet_sd              =   6.7768604997073E+01
(PID.TID 0000.0001) %MON forcing_qnet_del2            =   3.9934967955079E-01
(PID.TID 0000.0001) %MON forcing_qsw_max              =   0.0000000000000E+00
(PID.TID 0000.0001) %MON forcing_qsw_min              =   0.0000000000000E+00
(PID.TID 0000.0001) %MON forcing_qsw_mean             =   0.0000000000000E+00
(PID.TID 0000.0001) %MON forcing_qsw_sd               =   0.0000000000000E+00
(PID.TID 0000.0001) %MON forcing_qsw_del2             =   0.0000000000000E+00
(PID.TID 0000.0001) %MON forcing_empmr_max            =   7.6494447208479E-05
(PID.TID 0000.0001) %MON forcing_empmr_min            =  -1.5362614137596E-04
(PID.TID 0000.0001) %MON forcing_empmr_mean           =  -2.7256318706594E-21
(PID.TID 0000.0001) %MON forcing_empmr_sd             =   2.4051723601802E-05
(PID.TID 0000.0001) %MON forcing_empmr_del2           =   1.2276157049243E-07
(PID.TID 0000.0001) %MON forcing_fu_max               =   2.6376707634895E-01
(PID.TID 0000.0001) %MON forcing_fu_min               =  -3.5181701991123E-01
(PID.TID 0000.0001) %MON forcing_fu_mean              =  -9.1725361907261E-03
(PID.TID 0000.0001) %MON forcing_fu_sd                =   7.3147688306408E-02
(PID.TID 0000.0001) %MON forcing_fu_del2              =   2.0151832318310E-04
(PID.TID 0000.0001) %MON forcing_fv_max               =   2.3362458312789E-01
(PID.TID 0000.0001) %MON forcing_fv_min               =  -3.0178655558957E-01
(PID.TID 0000.0001) %MON forcing_fv_mean              =  -1.1987018747997E-02
(PID.TID 0000.0001) %MON forcing_fv_sd                =   7.0322777084510E-02
(PID.TID 0000.0001) %MON forcing_fv_del2              =   2.0736000433565E-04
(PID.TID 0000.0001) %MON trAdv_CFL_u_max              =   7.4282161363434E-02
(PID.TID 0000.0001) %MON trAdv_CFL_v_max              =   8.9275082122880E-02
(PID.TID 0000.0001) %MON trAdv_CFL_w_max              =   7.5620154279928E-02
(PID.TID 0000.0001) %MON advcfl_uvel_max              =   6.3822635671125E-02
(PID.TID 0000.0001) %MON advcfl_vvel_max              =   8.2910821964570E-02
(PID.TID 0000.0001) %MON advcfl_wvel_max              =   7.1277487568755E-02
(PID.TID 0000.0001) %MON advcfl_W_hf_max              =   7.8702225857167E-02
(PID.TID 0000.0001) %MON pe_b_mean                    =   5.3881065884239E-04
(PID.TID 0000.0001) %MON ke_max                       =   2.7716868704621E-02
(PID.TID 0000.0001) %MON ke_mean                      =   1.4585585455902E-04
(PID.TID 0000.0001) %MON ke_vol                       =   1.3398024453628E+18
(PID.TID 0000.0001) %MON vort_r_min                   =  -9.2109838854885E-07
(PID.TID 0000.0001) %MON vort_r_max                   =   1.2332218667322E-06
(PID.TID 0000.0001) %MON vort_a_mean                  =  -2.0549865324846E-05
(PID.TID 0000.0001) %MON vort_a_sd                    =   7.5259675946768E-05
(PID.TID 0000.0001) %MON vort_p_mean                  =  -2.4783522345032E-05
(PID.TID 0000.0001) %MON vort_p_sd                    =   1.2810656917112E-04
(PID.TID 0000.0001) %MON surfExpan_theta_mean         =   6.3995338014102E-08
(PID.TID 0000.0001) %MON surfExpan_salt_mean          =   1.5006623196782E-08
(PID.TID 0000.0001) // =======================================================
(PID.TID 0000.0001) // End MONITOR dynamic field statistics
(PID.TID 0000.0001) // =======================================================
(PID.TID 0000.0001) // =======================================================
(PID.TID 0000.0001) // Begin MONITOR ptracer field statistics
(PID.TID 0000.0001) // =======================================================
(PID.TID 0000.0001) %MON trcstat_ptracer01_max        =   4.2162629378126E+07
(PID.TID 0000.0001) %MON trcstat_ptracer01_min        =  -2.6981766141044E+06
(PID.TID 0000.0001) %MON trcstat_ptracer01_mean       =   4.0487021730263E+07
(PID.TID 0000.0001) %MON trcstat_ptracer01_sd         =   5.1679637509770E+06
(PID.TID 0000.0001) %MON trcstat_ptracer01_del2       =   1.0870002300175E+04
(PID.TID 0000.0001) // =======================================================
(PID.TID 0000.0001) // End MONITOR ptracer field statistics
(PID.TID 0000.0001) // =======================================================
 Computing Diagnostic #    79 "DRHODR  " (list#  1) Parms "SM      LR      ", Count=      10
 Computing Diagnostic #    64 "RHOAnoma" (list#  1) Parms "SMR     MR      ", Count=      10
 Computing Diagnostic #    80 "CONVADJ " (list#  1) Parms "SMR     LR      ", Count=      10
 Computing Diagnostic #   210 "GM_Kwx  " (list#  1) Parms "UM      LR      ", Count=      10
             Vector  Mate for "GM_Kwx  " :  Diagnostic #    211 "GM_Kwy  " exists
 Computing Diagnostic #   211 "GM_Kwy  " (list#  1) Parms "VM      LR      ", Count=      10
             Vector  Mate for "GM_Kwy  " :  Diagnostic #    210 "GM_Kwx  " exists
 Computing Diagnostic #   212 "GM_Kwz  " (list#  1) Parms "WM P    LR      ", Count=      10
 Computing Diagnostic #   213 "GM_PsiX " (list#  1) Parms "UU      LR      ", Count=      10
             Vector  Mate for "GM_PsiX " :  Diagnostic #    214 "GM_PsiY " exists
 Computing Diagnostic #   214 "GM_PsiY " (list#  1) Parms "VV      LR      ", Count=      10
             Vector  Mate for "GM_PsiY " :  Diagnostic #    213 "GM_PsiX " exists
 EXTERNAL_FIELDS_LOAD,       480 : iP,iLd,i0,i1=    4    5    4    5 ; Wght=  0.5000000000  0.5000000000
 cg2d: Sum(rhs),rhsMax =  -5.68434188608080E-14  4.86430497246161E+00
 EXTERNAL_FIELDS_LOAD,       481 : iP,iLd,i0,i1=    4    5    4    5 ; Wght=  0.4666666667  0.5333333333
 cg2d: Sum(rhs),rhsMax =  -1.42108547152020E-13  4.86333918010596E+00
 EXTERNAL_FIELDS_LOAD,       482 : iP,iLd,i0,i1=    4    5    4    5 ; Wght=  0.4333333333  0.5666666667
 cg2d: Sum(rhs),rhsMax =  -1.98951966012828E-13  4.86239728187466E+00
 EXTERNAL_FIELDS_LOAD,       483 : iP,iLd,i0,i1=    4    5    4    5 ; Wght=  0.4000000000  0.6000000000
 cg2d: Sum(rhs),rhsMax =  -1.70530256582424E-13  4.86121646945167E+00
 EXTERNAL_FIELDS_LOAD,       484 : iP,iLd,i0,i1=    4    5    4    5 ; Wght=  0.3666666667  0.6333333333
 cg2d: Sum(rhs),rhsMax =  -1.98951966012828E-13  4.85974872076867E+00
 EXTERNAL_FIELDS_LOAD,       485 : iP,iLd,i0,i1=    4    5    4    5 ; Wght=  0.3333333333  0.6666666667
 cg2d: Sum(rhs),rhsMax =  -2.27373675443232E-13  4.85792850031202E+00
 Compute Stats, Diag. #    23 "ETAN    " (list#  1) Parms "SM      M1      ", vol(  0 )= 3.639E+14
 Compute Stats, Diag. #    30 "UVEL    " (list#  1) Parms "UUR     MR      ", vol(  0 )= 1.231E+18
 Compute Stats, Diag. #    31 "VVEL    " (list#  1) Parms "VVR     MR      ", vol(  0 )= 1.243E+18
 Compute Stats, Diag. #    32 "WVEL    " (list#  1) Parms "WM      LR      ", vol(  0 )= 1.315E+18
 Compute Stats, Diag. #    26 "THETA   " (list#  1) Parms "SMR     MR      ", vol(  0 )= 1.340E+18
 EXTERNAL_FIELDS_LOAD,       486 : iP,iLd,i0,i1=    4    5    4    5 ; Wght=  0.3000000000  0.7000000000
 cg2d: Sum(rhs),rhsMax =  -1.98951966012828E-13  4.85623463382603E+00
 EXTERNAL_FIELDS_LOAD,       487 : iP,iLd,i0,i1=    4    5    4    5 ; Wght=  0.2666666667  0.7333333333
 cg2d: Sum(rhs),rhsMax =  -2.84217094304040E-14  4.85539395793902E+00
 EXTERNAL_FIELDS_LOAD,       488 : iP,iLd,i0,i1=    4    5    4    5 ; Wght=  0.2333333333  0.7666666667
 cg2d: Sum(rhs),rhsMax =  -2.27373675443232E-13  4.85549302067086E+00
 EXTERNAL_FIELDS_LOAD,       489 : iP,iLd,i0,i1=    4    5    4    5 ; Wght=  0.2000000000  0.8000000000
 cg2d: Sum(rhs),rhsMax =   5.68434188608080E-14  4.85596660914008E+00
 Computing Diagnostic #    79 "DRHODR  " (list#  1) Parms "SM      LR      ", Count=      10
 Computing Diagnostic #    64 "RHOAnoma" (list#  1) Parms "SMR     MR      ", Count=      10
 Computing Diagnostic #    80 "CONVADJ " (list#  1) Parms "SMR     LR      ", Count=      10
 Computing Diagnostic #   210 "GM_Kwx  " (list#  1) Parms "UM      LR      ", Count=      10
             Vector  Mate for "GM_Kwx  " :  Diagnostic #    211 "GM_Kwy  " exists
 Computing Diagnostic #   211 "GM_Kwy  " (list#  1) Parms "VM      LR      ", Count=      10
             Vector  Mate for "GM_Kwy  " :  Diagnostic #    210 "GM_Kwx  " exists
 Computing Diagnostic #   212 "GM_Kwz  " (list#  1) Parms "WM P    LR      ", Count=      10
 Computing Diagnostic #   213 "GM_PsiX " (list#  1) Parms "UU      LR      ", Count=      10
             Vector  Mate for "GM_PsiX " :  Diagnostic #    214 "GM_PsiY " exists
 Computing Diagnostic #   214 "GM_PsiY " (list#  1) Parms "VV      LR      ", Count=      10
             Vector  Mate for "GM_PsiY " :  Diagnostic #    213 "GM_PsiX " exists
 EXTERNAL_FIELDS_LOAD,       490 : iP,iLd,i0,i1=    4    5    4    5 ; Wght=  0.1666666667  0.8333333333
 cg2d: Sum(rhs),rhsMax =  -5.68434188608080E-14  4.85629933883602E+00
 EXTERNAL_FIELDS_LOAD,       491 : iP,iLd,i0,i1=    4    5    4    5 ; Wght=  0.1333333333  0.8666666667
 cg2d: Sum(rhs),rhsMax =  -5.68434188608080E-14  4.85606906348925E+00
 EXTERNAL_FIELDS_LOAD,       492 : iP,iLd,i0,i1=    4    5    4    5 ; Wght=  0.1000000000  0.9000000000
 cg2d: Sum(rhs),rhsMax =   5.68434188608080E-14  4.85486357975924E+00
 EXTERNAL_FIELDS_LOAD,       493 : iP,iLd,i0,i1=    4    5    4    5 ; Wght=  0.0666666667  0.9333333333
 cg2d: Sum(rhs),rhsMax =  -2.55795384873636E-13  4.85249460539316E+00
 EXTERNAL_FIELDS_LOAD,       494 : iP,iLd,i0,i1=    4    5    4    5 ; Wght=  0.0333333333  0.9666666667
 cg2d: Sum(rhs),rhsMax =  -2.84217094304040E-14  4.84934859256161E+00
 EXTERNAL_FIELDS_LOAD,       495 : iP,iLd,i0,i1=    4    5    5    6 ; Wght=  1.0000000000  0.0000000000
 EXTERNAL_FIELDS_LOAD, it=       495 : Reading new data, i0,i1=    5    6 (prev=    4    5 )
(PID.TID 0000.0001)  MDS_READ_FIELD: opening global file: trenberth_taux.bin
(PID.TID 0000.0001)  MDS_READ_FIELD: opening global file: trenberth_taux.bin
(PID.TID 0000.0001)  MDS_READ_FIELD: opening global file: trenberth_tauy.bin
(PID.TID 0000.0001)  MDS_READ_FIELD: opening global file: trenberth_tauy.bin
(PID.TID 0000.0001)  MDS_READ_FIELD: opening global file: shiQnet_cs32.bin
(PID.TID 0000.0001)  MDS_READ_FIELD: opening global file: shiQnet_cs32.bin
(PID.TID 0000.0001)  MDS_READ_FIELD: opening global file: shiEmPR_cs32.bin
(PID.TID 0000.0001)  MDS_READ_FIELD: opening global file: shiEmPR_cs32.bin
(PID.TID 0000.0001)  MDS_READ_FIELD: opening global file: lev_surfT_cs_12m.bin
(PID.TID 0000.0001)  MDS_READ_FIELD: opening global file: lev_surfT_cs_12m.bin
(PID.TID 0000.0001)  MDS_READ_FIELD: opening global file: lev_surfS_cs_12m.bin
(PID.TID 0000.0001)  MDS_READ_FIELD: opening global file: lev_surfS_cs_12m.bin
 cg2d: Sum(rhs),rhsMax =  -2.84217094304040E-14  4.84551234231393E+00
 Compute Stats, Diag. #    23 "ETAN    " (list#  1) Parms "SM      M1      ", vol(  0 )= 3.639E+14
 Compute Stats, Diag. #    30 "UVEL    " (list#  1) Parms "UUR     MR      ", vol(  0 )= 1.231E+18
 Compute Stats, Diag. #    31 "VVEL    " (list#  1) Parms "VVR     MR      ", vol(  0 )= 1.243E+18
 Compute Stats, Diag. #    32 "WVEL    " (list#  1) Parms "WM      LR      ", vol(  0 )= 1.315E+18
 Compute Stats, Diag. #    26 "THETA   " (list#  1) Parms "SMR     MR      ", vol(  0 )= 1.340E+18
 EXTERNAL_FIELDS_LOAD,       496 : iP,iLd,i0,i1=    5    6    5    6 ; Wght=  0.9666666667  0.0333333333
 cg2d: Sum(rhs),rhsMax =   8.52651282912120E-14  4.84094790669391E+00
 EXTERNAL_FIELDS_LOAD,       497 : iP,iLd,i0,i1=    5    6    5    6 ; Wght=  0.9333333333  0.0666666667
 cg2d: Sum(rhs),rhsMax =  -1.13686837721616E-13  4.83576178805247E+00
 EXTERNAL_FIELDS_LOAD,       498 : iP,iLd,i0,i1=    5    6    5    6 ; Wght=  0.9000000000  0.1000000000
 cg2d: Sum(rhs),rhsMax =  -5.68434188608080E-14  4.83001513419132E+00
 EXTERNAL_FIELDS_LOAD,       499 : iP,iLd,i0,i1=    5    6    5    6 ; Wght=  0.8666666667  0.1333333333
 cg2d: Sum(rhs),rhsMax =  -2.84217094304040E-14  4.82377362588456E+00
 Computing Diagnostic #    79 "DRHODR  " (list#  1) Parms "SM      LR      ", Count=      10
 Computing Diagnostic #    64 "RHOAnoma" (list#  1) Parms "SMR     MR      ", Count=      10
 Computing Diagnostic #    80 "CONVADJ " (list#  1) Parms "SMR     LR      ", Count=      10
 Computing Diagnostic #   210 "GM_Kwx  " (list#  1) Parms "UM      LR      ", Count=      10
             Vector  Mate for "GM_Kwx  " :  Diagnostic #    211 "GM_Kwy  " exists
 Computing Diagnostic #   211 "GM_Kwy  " (list#  1) Parms "VM      LR      ", Count=      10
             Vector  Mate for "GM_Kwy  " :  Diagnostic #    210 "GM_Kwx  " exists
 Computing Diagnostic #   212 "GM_Kwz  " (list#  1) Parms "WM P    LR      ", Count=      10
 Computing Diagnostic #   213 "GM_PsiX " (list#  1) Parms "UU      LR      ", Count=      10
             Vector  Mate for "GM_PsiX " :  Diagnostic #    214 "GM_PsiY " exists
 Computing Diagnostic #   214 "GM_PsiY " (list#  1) Parms "VV      LR      ", Count=      10
             Vector  Mate for "GM_PsiY " :  Diagnostic #    213 "GM_PsiX " exists
 EXTERNAL_FIELDS_LOAD,       500 : iP,iLd,i0,i1=    5    6    5    6 ; Wght=  0.8333333333  0.1666666667
 cg2d: Sum(rhs),rhsMax =   0.00000000000000E+00  4.81710384386422E+00
 EXTERNAL_FIELDS_LOAD,       501 : iP,iLd,i0,i1=    5    6    5    6 ; Wght=  0.8000000000  0.2000000000
 cg2d: Sum(rhs),rhsMax =   2.84217094304040E-14  4.81007196569532E+00
 EXTERNAL_FIELDS_LOAD,       502 : iP,iLd,i0,i1=    5    6    5    6 ; Wght=  0.7666666667  0.2333333333
 cg2d: Sum(rhs),rhsMax =  -8.52651282912120E-14  4.80278037346893E+00
 EXTERNAL_FIELDS_LOAD,       503 : iP,iLd,i0,i1=    5    6    5    6 ; Wght=  0.7333333333  0.2666666667
 cg2d: Sum(rhs),rhsMax =   8.52651282912120E-14  4.79510224931259E+00
 EXTERNAL_FIELDS_LOAD,       504 : iP,iLd,i0,i1=    5    6    5    6 ; Wght=  0.7000000000  0.3000000000
 cg2d: Sum(rhs),rhsMax =  -2.27373675443232E-13  4.78712160837824E+00
 EXTERNAL_FIELDS_LOAD,       505 : iP,iLd,i0,i1=    5    6    5    6 ; Wght=  0.6666666667  0.3333333333
 cg2d: Sum(rhs),rhsMax =   5.68434188608080E-14  4.77871687600905E+00
 Compute Stats, Diag. #    23 "ETAN    " (list#  1) Parms "SM      M1      ", vol(  0 )= 3.639E+14
 Compute Stats, Diag. #    30 "UVEL    " (list#  1) Parms "UUR     MR      ", vol(  0 )= 1.231E+18
 Compute Stats, Diag. #    31 "VVEL    " (list#  1) Parms "VVR     MR      ", vol(  0 )= 1.243E+18
 Compute Stats, Diag. #    32 "WVEL    " (list#  1) Parms "WM      LR      ", vol(  0 )= 1.315E+18
 Compute Stats, Diag. #    26 "THETA   " (list#  1) Parms "SMR     MR      ", vol(  0 )= 1.340E+18
 EXTERNAL_FIELDS_LOAD,       506 : iP,iLd,i0,i1=    5    6    5    6 ; Wght=  0.6333333333  0.3666666667
 cg2d: Sum(rhs),rhsMax =   2.84217094304040E-14  4.76981946822645E+00
 EXTERNAL_FIELDS_LOAD,       507 : iP,iLd,i0,i1=    5    6    5    6 ; Wght=  0.6000000000  0.4000000000
 cg2d: Sum(rhs),rhsMax =  -5.68434188608080E-14  4.76052550203805E+00
 EXTERNAL_FIELDS_LOAD,       508 : iP,iLd,i0,i1=    5    6    5    6 ; Wght=  0.5666666667  0.4333333333
 cg2d: Sum(rhs),rhsMax =  -8.52651282912120E-14  4.75102883162391E+00
 EXTERNAL_FIELDS_LOAD,       509 : iP,iLd,i0,i1=    5    6    5    6 ; Wght=  0.5333333333  0.4666666667
 cg2d: Sum(rhs),rhsMax =  -2.84217094304040E-13  4.74151502077163E+00
(PID.TID 0000.0001)      cg2d_init_res =   2.12232106445609E-01
(PID.TID 0000.0001)      cg2d_iters(min,last) =      -1      63
(PID.TID 0000.0001)      cg2d_last_res =   4.85172901830371E-07
(PID.TID 0000.0001) // =======================================================
(PID.TID 0000.0001) // Begin MONITOR dynamic field statistics
(PID.TID 0000.0001) // =======================================================
(PID.TID 0000.0001) %MON time_tsnumber                =                   510
(PID.TID 0000.0001) %MON time_secondsf                =   4.4064000000000E+07
(PID.TID 0000.0001) %MON dynstat_eta_max              =   9.6228815493190E-01
(PID.TID 0000.0001) %MON dynstat_eta_min              =  -1.8678908517412E+00
(PID.TID 0000.0001) %MON dynstat_eta_mean             =   1.0992431401571E-16
(PID.TID 0000.0001) %MON dynstat_eta_sd               =   6.3564447825866E-01
(PID.TID 0000.0001) %MON dynstat_eta_del2             =   7.9558119584504E-04
(PID.TID 0000.0001) %MON dynstat_uvel_max             =   1.5840938204908E-01
(PID.TID 0000.0001) %MON dynstat_uvel_min             =  -2.1267889563886E-01
(PID.TID 0000.0001) %MON dynstat_uvel_mean            =  -3.9884839558105E-04
(PID.TID 0000.0001) %MON dynstat_uvel_sd              =   1.2487326201786E-02
(PID.TID 0000.0001) %MON dynstat_uvel_del2            =   5.0881786848520E-05
(PID.TID 0000.0001) %MON dynstat_vvel_max             =   1.9007693314231E-01
(PID.TID 0000.0001) %MON dynstat_vvel_min             =  -1.5247030448152E-01
(PID.TID 0000.0001) %MON dynstat_vvel_mean            =  -3.0441523285828E-04
(PID.TID 0000.0001) %MON dynstat_vvel_sd              =   1.2618728198482E-02
(PID.TID 0000.0001) %MON dynstat_vvel_del2            =   5.0549388596373E-05
(PID.TID 0000.0001) %MON dynstat_wvel_max             =   8.6735504226866E-05
(PID.TID 0000.0001) %MON dynstat_wvel_min             =  -2.2414915288960E-04
(PID.TID 0000.0001) %MON dynstat_wvel_mean            =   8.9931482198331E-23
(PID.TID 0000.0001) %MON dynstat_wvel_sd              =   4.7621036261537E-06
(PID.TID 0000.0001) %MON dynstat_wvel_del2            =   3.2671061869994E-08
(PID.TID 0000.0001) %MON dynstat_theta_max            =   3.1982691199524E+01
(PID.TID 0000.0001) %MON dynstat_theta_min            =  -6.4613750226682E+00
(PID.TID 0000.0001) %MON dynstat_theta_mean           =   3.6067340134010E+00
(PID.TID 0000.0001) %MON dynstat_theta_sd             =   4.4363175837680E+00
(PID.TID 0000.0001) %MON dynstat_theta_del2           =   2.5698368136761E-03
(PID.TID 0000.0001) %MON dynstat_salt_max             =   4.0702036318229E+01
(PID.TID 0000.0001) %MON dynstat_salt_min             =   1.8533240753298E+01
(PID.TID 0000.0001) %MON dynstat_salt_mean            =   3.4721112512937E+01
(PID.TID 0000.0001) %MON dynstat_salt_sd              =   4.9366065118231E-01
(PID.TID 0000.0001) %MON dynstat_salt_del2            =   8.6269963862511E-04
(PID.TID 0000.0001) %MON forcing_qnet_max             =   2.1306198854283E+02
(PID.TID 0000.0001) %MON forcing_qnet_min             =  -1.8612587055834E+02
(PID.TID 0000.0001) %MON forcing_qnet_mean            =   1.7779209533326E+01
(PID.TID 0000.0001) %MON forcing_qnet_sd              =   8.6039549543257E+01
(PID.TID 0000.0001) %MON forcing_qnet_del2            =   3.9274976073871E-01
(PID.TID 0000.0001) %MON forcing_qsw_max              =   0.0000000000000E+00
(PID.TID 0000.0001) %MON forcing_qsw_min              =   0.0000000000000E+00
(PID.TID 0000.0001) %MON forcing_qsw_mean             =   0.0000000000000E+00
(PID.TID 0000.0001) %MON forcing_qsw_sd               =   0.0000000000000E+00
(PID.TID 0000.0001) %MON forcing_qsw_del2             =   0.0000000000000E+00
(PID.TID 0000.0001) %MON forcing_empmr_max            =   7.6494447208479E-05
(PID.TID 0000.0001) %MON forcing_empmr_min            =  -1.5362614137596E-04
(PID.TID 0000.0001) %MON forcing_empmr_mean           =  -2.7256318706594E-21
(PID.TID 0000.0001) %MON forcing_empmr_sd             =   2.4051723601802E-05
(PID.TID 0000.0001) %MON forcing_empmr_del2           =   1.2276157049243E-07
(PID.TID 0000.0001) %MON forcing_fu_max               =   2.7087502733075E-01
(PID.TID 0000.0001) %MON forcing_fu_min               =  -3.1157384005291E-01
(PID.TID 0000.0001) %MON forcing_fu_mean              =  -5.9802452710338E-03
(PID.TID 0000.0001) %MON forcing_fu_sd                =   7.3367932669566E-02
(PID.TID 0000.0001) %MON forcing_fu_del2              =   2.0043372226090E-04
(PID.TID 0000.0001) %MON forcing_fv_max               =   2.7394949129489E-01
(PID.TID 0000.0001) %MON forcing_fv_min               =  -2.9997476765686E-01
(PID.TID 0000.0001) %MON forcing_fv_mean              =  -8.5312903702452E-03
(PID.TID 0000.0001) %MON forcing_fv_sd                =   6.8612871399238E-02
(PID.TID 0000.0001) %MON forcing_fv_del2              =   2.1212490881227E-04
(PID.TID 0000.0001) %MON trAdv_CFL_u_max              =   9.8643360714290E-02
(PID.TID 0000.0001) %MON trAdv_CFL_v_max              =   9.5936459436833E-02
(PID.TID 0000.0001) %MON trAdv_CFL_w_max              =   8.6312726852593E-02
(PID.TID 0000.0001) %MON advcfl_uvel_max              =   6.2275125277099E-02
(PID.TID 0000.0001) %MON advcfl_vvel_max              =   7.3164237545644E-02
(PID.TID 0000.0001) %MON advcfl_wvel_max              =   7.3081082300610E-02
(PID.TID 0000.0001) %MON advcfl_W_hf_max              =   8.0693695040257E-02
(PID.TID 0000.0001) %MON pe_b_mean                    =   5.3826114418438E-04
(PID.TID 0000.0001) %MON ke_max                       =   2.7143521782252E-02
(PID.TID 0000.0001) %MON ke_mean                      =   1.4562740353475E-04
(PID.TID 0000.0001) %MON ke_vol                       =   1.3398024453628E+18
(PID.TID 0000.0001) %MON vort_r_min                   =  -8.0636126748863E-07
(PID.TID 0000.0001) %MON vort_r_max                   =   1.2206498245769E-06
(PID.TID 0000.0001) %MON vort_a_mean                  =  -2.0549865324846E-05
(PID.TID 0000.0001) %MON vort_a_sd                    =   7.5259671087561E-05
(PID.TID 0000.0001) %MON vort_p_mean                  =  -2.4783522345032E-05
(PID.TID 0000.0001) %MON vort_p_sd                    =   1.2810668779858E-04
(PID.TID 0000.0001) %MON surfExpan_theta_mean         =   5.1057391648851E-08
(PID.TID 0000.0001) %MON surfExpan_salt_mean          =   1.4107181328478E-08
(PID.TID 0000.0001) // =======================================================
(PID.TID 0000.0001) // End MONITOR dynamic field statistics
(PID.TID 0000.0001) // =======================================================
(PID.TID 0000.0001) // =======================================================
(PID.TID 0000.0001) // Begin MONITOR ptracer field statistics
(PID.TID 0000.0001) // =======================================================
(PID.TID 0000.0001) %MON trcstat_ptracer01_max        =   4.5166633289734E+07
(PID.TID 0000.0001) %MON trcstat_ptracer01_min        =  -1.9642670444259E+06
(PID.TID 0000.0001) %MON trcstat_ptracer01_mean       =   4.3007845237950E+07
(PID.TID 0000.0001) %MON trcstat_ptracer01_sd         =   5.5056072464592E+06
(PID.TID 0000.0001) %MON trcstat_ptracer01_del2       =   1.2057592901811E+04
(PID.TID 0000.0001) // =======================================================
(PID.TID 0000.0001) // End MONITOR ptracer field statistics
(PID.TID 0000.0001) // =======================================================
 Computing Diagnostic #    79 "DRHODR  " (list#  1) Parms "SM      LR      ", Count=      10
 Computing Diagnostic #    64 "RHOAnoma" (list#  1) Parms "SMR     MR      ", Count=      10
 Computing Diagnostic #    80 "CONVADJ " (list#  1) Parms "SMR     LR      ", Count=      10
 Computing Diagnostic #   210 "GM_Kwx  " (list#  1) Parms "UM      LR      ", Count=      10
             Vector  Mate for "GM_Kwx  " :  Diagnostic #    211 "GM_Kwy  " exists
 Computing Diagnostic #   211 "GM_Kwy  " (list#  1) Parms "VM      LR      ", Count=      10
             Vector  Mate for "GM_Kwy  " :  Diagnostic #    210 "GM_Kwx  " exists
 Computing Diagnostic #   212 "GM_Kwz  " (list#  1) Parms "WM P    LR      ", Count=      10
 Computing Diagnostic #   213 "GM_PsiX " (list#  1) Parms "UU      LR      ", Count=      10
             Vector  Mate for "GM_PsiX " :  Diagnostic #    214 "GM_PsiY " exists
 Computing Diagnostic #   214 "GM_PsiY " (list#  1) Parms "VV      LR      ", Count=      10
             Vector  Mate for "GM_PsiY " :  Diagnostic #    213 "GM_PsiX " exists
 EXTERNAL_FIELDS_LOAD,       510 : iP,iLd,i0,i1=    5    6    5    6 ; Wght=  0.5000000000  0.5000000000
 cg2d: Sum(rhs),rhsMax =  -5.68434188608080E-14  4.73213383128152E+00
 EXTERNAL_FIELDS_LOAD,       511 : iP,iLd,i0,i1=    5    6    5    6 ; Wght=  0.4666666667  0.5333333333
 cg2d: Sum(rhs),rhsMax =  -1.42108547152020E-13  4.72302259874198E+00
 EXTERNAL_FIELDS_LOAD,       512 : iP,iLd,i0,i1=    5    6    5    6 ; Wght=  0.4333333333  0.5666666667
 cg2d: Sum(rhs),rhsMax =  -1.13686837721616E-13  4.71429299527247E+00
 EXTERNAL_FIELDS_LOAD,       513 : iP,iLd,i0,i1=    5    6    5    6 ; Wght=  0.4000000000  0.6000000000
 cg2d: Sum(rhs),rhsMax =  -1.13686837721616E-13  4.70601994745002E+00
 EXTERNAL_FIELDS_LOAD,       514 : iP,iLd,i0,i1=    5    6    5    6 ; Wght=  0.3666666667  0.6333333333
 cg2d: Sum(rhs),rhsMax =  -3.41060513164848E-13  4.69834489988375E+00
 EXTERNAL_FIELDS_LOAD,       515 : iP,iLd,i0,i1=    5    6    5    6 ; Wght=  0.3333333333  0.6666666667
 cg2d: Sum(rhs),rhsMax =  -2.27373675443232E-13  4.69133838272834E+00
 Compute Stats, Diag. #    23 "ETAN    " (list#  1) Parms "SM      M1      ", vol(  0 )= 3.639E+14
 Compute Stats, Diag. #    30 "UVEL    " (list#  1) Parms "UUR     MR      ", vol(  0 )= 1.231E+18
 Compute Stats, Diag. #    31 "VVEL    " (list#  1) Parms "VVR     MR      ", vol(  0 )= 1.243E+18
 Compute Stats, Diag. #    32 "WVEL    " (list#  1) Parms "WM      LR      ", vol(  0 )= 1.315E+18
 Compute Stats, Diag. #    26 "THETA   " (list#  1) Parms "SMR     MR      ", vol(  0 )= 1.340E+18
 EXTERNAL_FIELDS_LOAD,       516 : iP,iLd,i0,i1=    5    6    5    6 ; Wght=  0.3000000000  0.7000000000
 cg2d: Sum(rhs),rhsMax =   0.00000000000000E+00  4.68507256484985E+00
 EXTERNAL_FIELDS_LOAD,       517 : iP,iLd,i0,i1=    5    6    5    6 ; Wght=  0.2666666667  0.7333333333
 cg2d: Sum(rhs),rhsMax =  -1.42108547152020E-13  4.67959972994501E+00
 EXTERNAL_FIELDS_LOAD,       518 : iP,iLd,i0,i1=    5    6    5    6 ; Wght=  0.2333333333  0.7666666667
 cg2d: Sum(rhs),rhsMax =   1.13686837721616E-13  4.67495645918895E+00
 EXTERNAL_FIELDS_LOAD,       519 : iP,iLd,i0,i1=    5    6    5    6 ; Wght=  0.2000000000  0.8000000000
 cg2d: Sum(rhs),rhsMax =  -1.70530256582424E-13  4.67115830497786E+00
 Computing Diagnostic #    79 "DRHODR  " (list#  1) Parms "SM      LR      ", Count=      10
 Computing Diagnostic #    64 "RHOAnoma" (list#  1) Parms "SMR     MR      ", Count=      10
 Computing Diagnostic #    80 "CONVADJ " (list#  1) Parms "SMR     LR      ", Count=      10
 Computing Diagnostic #   210 "GM_Kwx  " (list#  1) Parms "UM      LR      ", Count=      10
             Vector  Mate for "GM_Kwx  " :  Diagnostic #    211 "GM_Kwy  " exists
 Computing Diagnostic #   211 "GM_Kwy  " (list#  1) Parms "VM      LR      ", Count=      10
             Vector  Mate for "GM_Kwy  " :  Diagnostic #    210 "GM_Kwx  " exists
 Computing Diagnostic #   212 "GM_Kwz  " (list#  1) Parms "WM P    LR      ", Count=      10
 Computing Diagnostic #   213 "GM_PsiX " (list#  1) Parms "UU      LR      ", Count=      10
             Vector  Mate for "GM_PsiX " :  Diagnostic #    214 "GM_PsiY " exists
 Computing Diagnostic #   214 "GM_PsiY " (list#  1) Parms "VV      LR      ", Count=      10
             Vector  Mate for "GM_PsiY " :  Diagnostic #    213 "GM_PsiX " exists
 EXTERNAL_FIELDS_LOAD,       520 : iP,iLd,i0,i1=    5    6    5    6 ; Wght=  0.1666666667  0.8333333333
 cg2d: Sum(rhs),rhsMax =   2.84217094304040E-14  4.66820092128258E+00
 EXTERNAL_FIELDS_LOAD,       521 : iP,iLd,i0,i1=    5    6    5    6 ; Wght=  0.1333333333  0.8666666667
 cg2d: Sum(rhs),rhsMax =  -2.84217094304040E-14  4.66605841315426E+00
 EXTERNAL_FIELDS_LOAD,       522 : iP,iLd,i0,i1=    5    6    5    6 ; Wght=  0.1000000000  0.9000000000
 cg2d: Sum(rhs),rhsMax =  -3.12638803734444E-13  4.66469530281643E+00
 EXTERNAL_FIELDS_LOAD,       523 : iP,iLd,i0,i1=    5    6    5    6 ; Wght=  0.0666666667  0.9333333333
 cg2d: Sum(rhs),rhsMax =   2.84217094304040E-14  4.66405858322863E+00
 EXTERNAL_FIELDS_LOAD,       524 : iP,iLd,i0,i1=    5    6    5    6 ; Wght=  0.0333333333  0.9666666667
 cg2d: Sum(rhs),rhsMax =  -1.42108547152020E-13  4.66408279087040E+00
 EXTERNAL_FIELDS_LOAD,       525 : iP,iLd,i0,i1=    5    6    6    7 ; Wght=  1.0000000000  0.0000000000
 EXTERNAL_FIELDS_LOAD, it=       525 : Reading new data, i0,i1=    6    7 (prev=    5    6 )
(PID.TID 0000.0001)  MDS_READ_FIELD: opening global file: trenberth_taux.bin
(PID.TID 0000.0001)  MDS_READ_FIELD: opening global file: trenberth_taux.bin
(PID.TID 0000.0001)  MDS_READ_FIELD: opening global file: trenberth_tauy.bin
(PID.TID 0000.0001)  MDS_READ_FIELD: opening global file: trenberth_tauy.bin
(PID.TID 0000.0001)  MDS_READ_FIELD: opening global file: shiQnet_cs32.bin
(PID.TID 0000.0001)  MDS_READ_FIELD: opening global file: shiQnet_cs32.bin
(PID.TID 0000.0001)  MDS_READ_FIELD: opening global file: shiEmPR_cs32.bin
(PID.TID 0000.0001)  MDS_READ_FIELD: opening global file: shiEmPR_cs32.bin
(PID.TID 0000.0001)  MDS_READ_FIELD: opening global file: lev_surfT_cs_12m.bin
(PID.TID 0000.0001)  MDS_READ_FIELD: opening global file: lev_surfT_cs_12m.bin
(PID.TID 0000.0001)  MDS_READ_FIELD: opening global file: lev_surfS_cs_12m.bin
(PID.TID 0000.0001)  MDS_READ_FIELD: opening global file: lev_surfS_cs_12m.bin
 cg2d: Sum(rhs),rhsMax =  -1.13686837721616E-13  4.66469142849734E+00
 Compute Stats, Diag. #    23 "ETAN    " (list#  1) Parms "SM      M1      ", vol(  0 )= 3.639E+14
 Compute Stats, Diag. #    30 "UVEL    " (list#  1) Parms "UUR     MR      ", vol(  0 )= 1.231E+18
 Compute Stats, Diag. #    31 "VVEL    " (list#  1) Parms "VVR     MR      ", vol(  0 )= 1.243E+18
 Compute Stats, Diag. #    32 "WVEL    " (list#  1) Parms "WM      LR      ", vol(  0 )= 1.315E+18
 Compute Stats, Diag. #    26 "THETA   " (list#  1) Parms "SMR     MR      ", vol(  0 )= 1.340E+18
 EXTERNAL_FIELDS_LOAD,       526 : iP,iLd,i0,i1=    6    7    6    7 ; Wght=  0.9666666667  0.0333333333
 cg2d: Sum(rhs),rhsMax =  -8.52651282912120E-14  4.66576086038845E+00
 EXTERNAL_FIELDS_LOAD,       527 : iP,iLd,i0,i1=    6    7    6    7 ; Wght=  0.9333333333  0.0666666667
 cg2d: Sum(rhs),rhsMax =  -1.70530256582424E-13  4.66732232852442E+00
 EXTERNAL_FIELDS_LOAD,       528 : iP,iLd,i0,i1=    6    7    6    7 ; Wght=  0.9000000000  0.1000000000
 cg2d: Sum(rhs),rhsMax =  -5.68434188608080E-14  4.66921171225757E+00
 EXTERNAL_FIELDS_LOAD,       529 : iP,iLd,i0,i1=    6    7    6    7 ; Wght=  0.8666666667  0.1333333333
 cg2d: Sum(rhs),rhsMax =  -8.52651282912120E-14  4.67133660579119E+00
 Computing Diagnostic #    79 "DRHODR  " (list#  1) Parms "SM      LR      ", Count=      10
 Computing Diagnostic #    64 "RHOAnoma" (list#  1) Parms "SMR     MR      ", Count=      10
 Computing Diagnostic #    80 "CONVADJ " (list#  1) Parms "SMR     LR      ", Count=      10
 Computing Diagnostic #   210 "GM_Kwx  " (list#  1) Parms "UM      LR      ", Count=      10
             Vector  Mate for "GM_Kwx  " :  Diagnostic #    211 "GM_Kwy  " exists
 Computing Diagnostic #   211 "GM_Kwy  " (list#  1) Parms "VM      LR      ", Count=      10
             Vector  Mate for "GM_Kwy  " :  Diagnostic #    210 "GM_Kwx  " exists
 Computing Diagnostic #   212 "GM_Kwz  " (list#  1) Parms "WM P    LR      ", Count=      10
 Computing Diagnostic #   213 "GM_PsiX " (list#  1) Parms "UU      LR      ", Count=      10
             Vector  Mate for "GM_PsiX " :  Diagnostic #    214 "GM_PsiY " exists
 Computing Diagnostic #   214 "GM_PsiY " (list#  1) Parms "VV      LR      ", Count=      10
             Vector  Mate for "GM_PsiY " :  Diagnostic #    213 "GM_PsiX " exists
 EXTERNAL_FIELDS_LOAD,       530 : iP,iLd,i0,i1=    6    7    6    7 ; Wght=  0.8333333333  0.1666666667
 cg2d: Sum(rhs),rhsMax =   8.52651282912120E-14  4.67359423447006E+00
 EXTERNAL_FIELDS_LOAD,       531 : iP,iLd,i0,i1=    6    7    6    7 ; Wght=  0.8000000000  0.2000000000
 cg2d: Sum(rhs),rhsMax =  -2.55795384873636E-13  4.67587685234110E+00
 EXTERNAL_FIELDS_LOAD,       532 : iP,iLd,i0,i1=    6    7    6    7 ; Wght=  0.7666666667  0.2333333333
 cg2d: Sum(rhs),rhsMax =  -8.52651282912120E-14  4.67807842727927E+00
 EXTERNAL_FIELDS_LOAD,       533 : iP,iLd,i0,i1=    6    7    6    7 ; Wght=  0.7333333333  0.2666666667
 cg2d: Sum(rhs),rhsMax =  -3.97903932025656E-13  4.68009719493568E+00
 EXTERNAL_FIELDS_LOAD,       534 : iP,iLd,i0,i1=    6    7    6    7 ; Wght=  0.7000000000  0.3000000000
 cg2d: Sum(rhs),rhsMax =  -1.13686837721616E-13  4.68184116171110E+00
 EXTERNAL_FIELDS_LOAD,       535 : iP,iLd,i0,i1=    6    7    6    7 ; Wght=  0.6666666667  0.3333333333
 cg2d: Sum(rhs),rhsMax =  -1.42108547152020E-13  4.68322390845140E+00
 Compute Stats, Diag. #    23 "ETAN    " (list#  1) Parms "SM      M1      ", vol(  0 )= 3.639E+14
 Compute Stats, Diag. #    30 "UVEL    " (list#  1) Parms "UUR     MR      ", vol(  0 )= 1.231E+18
 Compute Stats, Diag. #    31 "VVEL    " (list#  1) Parms "VVR     MR      ", vol(  0 )= 1.243E+18
 Compute Stats, Diag. #    32 "WVEL    " (list#  1) Parms "WM      LR      ", vol(  0 )= 1.315E+18
 Compute Stats, Diag. #    26 "THETA   " (list#  1) Parms "SMR     MR      ", vol(  0 )= 1.340E+18
 EXTERNAL_FIELDS_LOAD,       536 : iP,iLd,i0,i1=    6    7    6    7 ; Wght=  0.6333333333  0.3666666667
 cg2d: Sum(rhs),rhsMax =  -1.42108547152020E-13  4.68417030500001E+00
 EXTERNAL_FIELDS_LOAD,       537 : iP,iLd,i0,i1=    6    7    6    7 ; Wght=  0.6000000000  0.4000000000
 cg2d: Sum(rhs),rhsMax =  -1.70530256582424E-13  4.68461878877422E+00
 EXTERNAL_FIELDS_LOAD,       538 : iP,iLd,i0,i1=    6    7    6    7 ; Wght=  0.5666666667  0.4333333333
 cg2d: Sum(rhs),rhsMax =   1.42108547152020E-13  4.68452558040799E+00
 EXTERNAL_FIELDS_LOAD,       539 : iP,iLd,i0,i1=    6    7    6    7 ; Wght=  0.5333333333  0.4666666667
 cg2d: Sum(rhs),rhsMax =  -1.13686837721616E-13  4.68385525407674E+00
(PID.TID 0000.0001)      cg2d_init_res =   2.06997264564825E-01
(PID.TID 0000.0001)      cg2d_iters(min,last) =      -1      62
(PID.TID 0000.0001)      cg2d_last_res =   5.13506664834952E-07
(PID.TID 0000.0001) // =======================================================
(PID.TID 0000.0001) // Begin MONITOR dynamic field statistics
(PID.TID 0000.0001) // =======================================================
(PID.TID 0000.0001) %MON time_tsnumber                =                   540
(PID.TID 0000.0001) %MON time_secondsf                =   4.6656000000000E+07
(PID.TID 0000.0001) %MON dynstat_eta_max              =   1.0024749513864E+00
(PID.TID 0000.0001) %MON dynstat_eta_min              =  -1.8757046364704E+00
(PID.TID 0000.0001) %MON dynstat_eta_mean             =   1.6488647102357E-16
(PID.TID 0000.0001) %MON dynstat_eta_sd               =   6.3655972589323E-01
(PID.TID 0000.0001) %MON dynstat_eta_del2             =   7.9826823416963E-04
(PID.TID 0000.0001) %MON dynstat_uvel_max             =   2.4202053712705E-01
(PID.TID 0000.0001) %MON dynstat_uvel_min             =  -2.0978713920048E-01
(PID.TID 0000.0001) %MON dynstat_uvel_mean            =  -4.4096738117715E-04
(PID.TID 0000.0001) %MON dynstat_uvel_sd              =   1.2652402192589E-02
(PID.TID 0000.0001) %MON dynstat_uvel_del2            =   5.1357248884494E-05
(PID.TID 0000.0001) %MON dynstat_vvel_max             =   2.2904060796497E-01
(PID.TID 0000.0001) %MON dynstat_vvel_min             =  -1.5871364817610E-01
(PID.TID 0000.0001) %MON dynstat_vvel_mean            =  -3.4187668403305E-04
(PID.TID 0000.0001) %MON dynstat_vvel_sd              =   1.2770774798682E-02
(PID.TID 0000.0001) %MON dynstat_vvel_del2            =   5.1610695778462E-05
(PID.TID 0000.0001) %MON dynstat_wvel_max             =   9.1563826739952E-05
(PID.TID 0000.0001) %MON dynstat_wvel_min             =  -2.1436273530281E-04
(PID.TID 0000.0001) %MON dynstat_wvel_mean            =   2.3788327549236E-22
(PID.TID 0000.0001) %MON dynstat_wvel_sd              =   4.7687093174760E-06
(PID.TID 0000.0001) %MON dynstat_wvel_del2            =   3.2015649373047E-08
(PID.TID 0000.0001) %MON dynstat_theta_max            =   3.1445834932448E+01
(PID.TID 0000.0001) %MON dynstat_theta_min            =  -6.6052392988104E+00
(PID.TID 0000.0001) %MON dynstat_theta_mean           =   3.6045886299305E+00
(PID.TID 0000.0001) %MON dynstat_theta_sd             =   4.4250241010091E+00
(PID.TID 0000.0001) %MON dynstat_theta_del2           =   2.6347182194303E-03
(PID.TID 0000.0001) %MON dynstat_salt_max             =   4.0701547831989E+01
(PID.TID 0000.0001) %MON dynstat_salt_min             =   1.8554759147100E+01
(PID.TID 0000.0001) %MON dynstat_salt_mean            =   3.4721123725699E+01
(PID.TID 0000.0001) %MON dynstat_salt_sd              =   4.9371988140517E-01
(PID.TID 0000.0001) %MON dynstat_salt_del2            =   8.7541854281381E-04
(PID.TID 0000.0001) %MON forcing_qnet_max             =   2.0229973837998E+02
(PID.TID 0000.0001) %MON forcing_qnet_min             =  -1.9718863546915E+02
(PID.TID 0000.0001) %MON forcing_qnet_mean            =   1.9596147289475E+01
(PID.TID 0000.0001) %MON forcing_qnet_sd              =   9.2166533481062E+01
(PID.TID 0000.0001) %MON forcing_qnet_del2            =   3.9201995701631E-01
(PID.TID 0000.0001) %MON forcing_qsw_max              =   0.0000000000000E+00
(PID.TID 0000.0001) %MON forcing_qsw_min              =   0.0000000000000E+00
(PID.TID 0000.0001) %MON forcing_qsw_mean             =   0.0000000000000E+00
(PID.TID 0000.0001) %MON forcing_qsw_sd               =   0.0000000000000E+00
(PID.TID 0000.0001) %MON forcing_qsw_del2             =   0.0000000000000E+00
(PID.TID 0000.0001) %MON forcing_empmr_max            =   7.6494447208479E-05
(PID.TID 0000.0001) %MON forcing_empmr_min            =  -1.5362614137596E-04
(PID.TID 0000.0001) %MON forcing_empmr_mean           =  -2.7256318706594E-21
(PID.TID 0000.0001) %MON forcing_empmr_sd             =   2.4051723601802E-05
(PID.TID 0000.0001) %MON forcing_empmr_del2           =   1.2276157049243E-07
(PID.TID 0000.0001) %MON forcing_fu_max               =   3.3519419512490E-01
(PID.TID 0000.0001) %MON forcing_fu_min               =  -2.6040991621841E-01
(PID.TID 0000.0001) %MON forcing_fu_mean              =  -2.7210120622396E-03
(PID.TID 0000.0001) %MON forcing_fu_sd                =   8.0360246474857E-02
(PID.TID 0000.0001) %MON forcing_fu_del2              =   2.2269164233251E-04
(PID.TID 0000.0001) %MON forcing_fv_max               =   3.3932416083857E-01
(PID.TID 0000.0001) %MON forcing_fv_min               =  -3.6036762335569E-01
(PID.TID 0000.0001) %MON forcing_fv_mean              =  -7.2632087421189E-03
(PID.TID 0000.0001) %MON forcing_fv_sd                =   7.4683547988714E-02
(PID.TID 0000.0001) %MON forcing_fv_del2              =   2.4339892805045E-04
(PID.TID 0000.0001) %MON trAdv_CFL_u_max              =   9.4323934590081E-02
(PID.TID 0000.0001) %MON trAdv_CFL_v_max              =   1.2881275313139E-01
(PID.TID 0000.0001) %MON trAdv_CFL_w_max              =   1.2640747948868E-01
(PID.TID 0000.0001) %MON advcfl_uvel_max              =   7.0006033943829E-02
(PID.TID 0000.0001) %MON advcfl_vvel_max              =   8.1055510351298E-02
(PID.TID 0000.0001) %MON advcfl_wvel_max              =   6.9890340868540E-02
(PID.TID 0000.0001) %MON advcfl_W_hf_max              =   7.7170584709013E-02
(PID.TID 0000.0001) %MON pe_b_mean                    =   5.3981231603313E-04
(PID.TID 0000.0001) %MON ke_max                       =   3.8489132315434E-02
(PID.TID 0000.0001) %MON ke_mean                      =   1.4935288548211E-04
(PID.TID 0000.0001) %MON ke_vol                       =   1.3398024453628E+18
(PID.TID 0000.0001) %MON vort_r_min                   =  -7.7487694158116E-07
(PID.TID 0000.0001) %MON vort_r_max                   =   1.3024408535623E-06
(PID.TID 0000.0001) %MON vort_a_mean                  =  -2.0549865324846E-05
(PID.TID 0000.0001) %MON vort_a_sd                    =   7.5259662401870E-05
(PID.TID 0000.0001) %MON vort_p_mean                  =  -2.4783522345032E-05
(PID.TID 0000.0001) %MON vort_p_sd                    =   1.2810670908338E-04
(PID.TID 0000.0001) %MON surfExpan_theta_mean         =   4.8868408262936E-08
(PID.TID 0000.0001) %MON surfExpan_salt_mean          =   1.6132909484433E-08
(PID.TID 0000.0001) // =======================================================
(PID.TID 0000.0001) // End MONITOR dynamic field statistics
(PID.TID 0000.0001) // =======================================================
(PID.TID 0000.0001) // =======================================================
(PID.TID 0000.0001) // Begin MONITOR ptracer field statistics
(PID.TID 0000.0001) // =======================================================
(PID.TID 0000.0001) %MON trcstat_ptracer01_max        =   4.8236753802880E+07
(PID.TID 0000.0001) %MON trcstat_ptracer01_min        =  -3.7724572244081E+06
(PID.TID 0000.0001) %MON trcstat_ptracer01_mean       =   4.5523259847839E+07
(PID.TID 0000.0001) %MON trcstat_ptracer01_sd         =   5.8248930079816E+06
(PID.TID 0000.0001) %MON trcstat_ptracer01_del2       =   1.5078085646192E+04
(PID.TID 0000.0001) // =======================================================
(PID.TID 0000.0001) // End MONITOR ptracer field statistics
(PID.TID 0000.0001) // =======================================================
 Computing Diagnostic #    79 "DRHODR  " (list#  1) Parms "SM      LR      ", Count=      10
 Computing Diagnostic #    64 "RHOAnoma" (list#  1) Parms "SMR     MR      ", Count=      10
 Computing Diagnostic #    80 "CONVADJ " (list#  1) Parms "SMR     LR      ", Count=      10
 Computing Diagnostic #   210 "GM_Kwx  " (list#  1) Parms "UM      LR      ", Count=      10
             Vector  Mate for "GM_Kwx  " :  Diagnostic #    211 "GM_Kwy  " exists
 Computing Diagnostic #   211 "GM_Kwy  " (list#  1) Parms "VM      LR      ", Count=      10
             Vector  Mate for "GM_Kwy  " :  Diagnostic #    210 "GM_Kwx  " exists
 Computing Diagnostic #   212 "GM_Kwz  " (list#  1) Parms "WM P    LR      ", Count=      10
 Computing Diagnostic #   213 "GM_PsiX " (list#  1) Parms "UU      LR      ", Count=      10
             Vector  Mate for "GM_PsiX " :  Diagnostic #    214 "GM_PsiY " exists
 Computing Diagnostic #   214 "GM_PsiY " (list#  1) Parms "VV      LR      ", Count=      10
             Vector  Mate for "GM_PsiY " :  Diagnostic #    213 "GM_PsiX " exists
 EXTERNAL_FIELDS_LOAD,       540 : iP,iLd,i0,i1=    6    7    6    7 ; Wght=  0.5000000000  0.5000000000
 cg2d: Sum(rhs),rhsMax =   0.00000000000000E+00  4.68259224251999E+00
 EXTERNAL_FIELDS_LOAD,       541 : iP,iLd,i0,i1=    6    7    6    7 ; Wght=  0.4666666667  0.5333333333
 cg2d: Sum(rhs),rhsMax =  -2.55795384873636E-13  4.68072455647643E+00
 EXTERNAL_FIELDS_LOAD,       542 : iP,iLd,i0,i1=    6    7    6    7 ; Wght=  0.4333333333  0.5666666667
 cg2d: Sum(rhs),rhsMax =  -2.55795384873636E-13  4.67826628244734E+00
 EXTERNAL_FIELDS_LOAD,       543 : iP,iLd,i0,i1=    6    7    6    7 ; Wght=  0.4000000000  0.6000000000
 cg2d: Sum(rhs),rhsMax =  -3.12638803734444E-13  4.67524165141630E+00
 EXTERNAL_FIELDS_LOAD,       544 : iP,iLd,i0,i1=    6    7    6    7 ; Wght=  0.3666666667  0.6333333333
 cg2d: Sum(rhs),rhsMax =  -8.52651282912120E-14  4.67169378611302E+00
 EXTERNAL_FIELDS_LOAD,       545 : iP,iLd,i0,i1=    6    7    6    7 ; Wght=  0.3333333333  0.6666666667
 cg2d: Sum(rhs),rhsMax =  -2.84217094304040E-14  4.66767712269663E+00
 Compute Stats, Diag. #    23 "ETAN    " (list#  1) Parms "SM      M1      ", vol(  0 )= 3.639E+14
 Compute Stats, Diag. #    30 "UVEL    " (list#  1) Parms "UUR     MR      ", vol(  0 )= 1.231E+18
 Compute Stats, Diag. #    31 "VVEL    " (list#  1) Parms "VVR     MR      ", vol(  0 )= 1.243E+18
 Compute Stats, Diag. #    32 "WVEL    " (list#  1) Parms "WM      LR      ", vol(  0 )= 1.315E+18
 Compute Stats, Diag. #    26 "THETA   " (list#  1) Parms "SMR     MR      ", vol(  0 )= 1.340E+18
 EXTERNAL_FIELDS_LOAD,       546 : iP,iLd,i0,i1=    6    7    6    7 ; Wght=  0.3000000000  0.7000000000
 cg2d: Sum(rhs),rhsMax =  -2.84217094304040E-14  4.66325762025529E+00
 EXTERNAL_FIELDS_LOAD,       547 : iP,iLd,i0,i1=    6    7    6    7 ; Wght=  0.2666666667  0.7333333333
 cg2d: Sum(rhs),rhsMax =  -8.52651282912120E-14  4.65851187122761E+00
 EXTERNAL_FIELDS_LOAD,       548 : iP,iLd,i0,i1=    6    7    6    7 ; Wght=  0.2333333333  0.7666666667
 cg2d: Sum(rhs),rhsMax =  -3.97903932025656E-13  4.65352339335285E+00
 EXTERNAL_FIELDS_LOAD,       549 : iP,iLd,i0,i1=    6    7    6    7 ; Wght=  0.2000000000  0.8000000000
 cg2d: Sum(rhs),rhsMax =  -1.98951966012828E-13  4.64838418936168E+00
 Computing Diagnostic #    79 "DRHODR  " (list#  1) Parms "SM      LR      ", Count=      10
 Computing Diagnostic #    64 "RHOAnoma" (list#  1) Parms "SMR     MR      ", Count=      10
 Computing Diagnostic #    80 "CONVADJ " (list#  1) Parms "SMR     LR      ", Count=      10
 Computing Diagnostic #   210 "GM_Kwx  " (list#  1) Parms "UM      LR      ", Count=      10
             Vector  Mate for "GM_Kwx  " :  Diagnostic #    211 "GM_Kwy  " exists
 Computing Diagnostic #   211 "GM_Kwy  " (list#  1) Parms "VM      LR      ", Count=      10
             Vector  Mate for "GM_Kwy  " :  Diagnostic #    210 "GM_Kwx  " exists
 Computing Diagnostic #   212 "GM_Kwz  " (list#  1) Parms "WM P    LR      ", Count=      10
 Computing Diagnostic #   213 "GM_PsiX " (list#  1) Parms "UU      LR      ", Count=      10
             Vector  Mate for "GM_PsiX " :  Diagnostic #    214 "GM_PsiY " exists
 Computing Diagnostic #   214 "GM_PsiY " (list#  1) Parms "VV      LR      ", Count=      10
             Vector  Mate for "GM_PsiY " :  Diagnostic #    213 "GM_PsiX " exists
 EXTERNAL_FIELDS_LOAD,       550 : iP,iLd,i0,i1=    6    7    6    7 ; Wght=  0.1666666667  0.8333333333
 cg2d: Sum(rhs),rhsMax =  -2.27373675443232E-13  4.64318865412185E+00
 EXTERNAL_FIELDS_LOAD,       551 : iP,iLd,i0,i1=    6    7    6    7 ; Wght=  0.1333333333  0.8666666667
 cg2d: Sum(rhs),rhsMax =  -3.97903932025656E-13  4.63802645640169E+00
 EXTERNAL_FIELDS_LOAD,       552 : iP,iLd,i0,i1=    6    7    6    7 ; Wght=  0.1000000000  0.9000000000
 cg2d: Sum(rhs),rhsMax =  -2.27373675443232E-13  4.63299568183675E+00
 EXTERNAL_FIELDS_LOAD,       553 : iP,iLd,i0,i1=    6    7    6    7 ; Wght=  0.0666666667  0.9333333333
 cg2d: Sum(rhs),rhsMax =  -5.68434188608080E-14  4.62819870945215E+00
 EXTERNAL_FIELDS_LOAD,       554 : iP,iLd,i0,i1=    6    7    6    7 ; Wght=  0.0333333333  0.9666666667
 cg2d: Sum(rhs),rhsMax =   2.84217094304040E-14  4.62372926473334E+00
 EXTERNAL_FIELDS_LOAD,       555 : iP,iLd,i0,i1=    6    7    7    8 ; Wght=  1.0000000000  0.0000000000
 EXTERNAL_FIELDS_LOAD, it=       555 : Reading new data, i0,i1=    7    8 (prev=    6    7 )
(PID.TID 0000.0001)  MDS_READ_FIELD: opening global file: trenberth_taux.bin
(PID.TID 0000.0001)  MDS_READ_FIELD: opening global file: trenberth_taux.bin
(PID.TID 0000.0001)  MDS_READ_FIELD: opening global file: trenberth_tauy.bin
(PID.TID 0000.0001)  MDS_READ_FIELD: opening global file: trenberth_tauy.bin
(PID.TID 0000.0001)  MDS_READ_FIELD: opening global file: shiQnet_cs32.bin
(PID.TID 0000.0001)  MDS_READ_FIELD: opening global file: shiQnet_cs32.bin
(PID.TID 0000.0001)  MDS_READ_FIELD: opening global file: shiEmPR_cs32.bin
(PID.TID 0000.0001)  MDS_READ_FIELD: opening global file: shiEmPR_cs32.bin
(PID.TID 0000.0001)  MDS_READ_FIELD: opening global file: lev_surfT_cs_12m.bin
(PID.TID 0000.0001)  MDS_READ_FIELD: opening global file: lev_surfT_cs_12m.bin
(PID.TID 0000.0001)  MDS_READ_FIELD: opening global file: lev_surfS_cs_12m.bin
(PID.TID 0000.0001)  MDS_READ_FIELD: opening global file: lev_surfS_cs_12m.bin
 cg2d: Sum(rhs),rhsMax =  -2.27373675443232E-13  4.61966398681982E+00
 Compute Stats, Diag. #    23 "ETAN    " (list#  1) Parms "SM      M1      ", vol(  0 )= 3.639E+14
 Compute Stats, Diag. #    30 "UVEL    " (list#  1) Parms "UUR     MR      ", vol(  0 )= 1.231E+18
 Compute Stats, Diag. #    31 "VVEL    " (list#  1) Parms "VVR     MR      ", vol(  0 )= 1.243E+18
 Compute Stats, Diag. #    32 "WVEL    " (list#  1) Parms "WM      LR      ", vol(  0 )= 1.315E+18
 Compute Stats, Diag. #    26 "THETA   " (list#  1) Parms "SMR     MR      ", vol(  0 )= 1.340E+18
 EXTERNAL_FIELDS_LOAD,       556 : iP,iLd,i0,i1=    7    8    7    8 ; Wght=  0.9666666667  0.0333333333
 cg2d: Sum(rhs),rhsMax =  -5.68434188608080E-14  4.61616905455249E+00
 EXTERNAL_FIELDS_LOAD,       557 : iP,iLd,i0,i1=    7    8    7    8 ; Wght=  0.9333333333  0.0666666667
 cg2d: Sum(rhs),rhsMax =  -5.68434188608080E-14  4.61316821557744E+00
 EXTERNAL_FIELDS_LOAD,       558 : iP,iLd,i0,i1=    7    8    7    8 ; Wght=  0.9000000000  0.1000000000
 cg2d: Sum(rhs),rhsMax =  -2.55795384873636E-13  4.61076586810330E+00
 EXTERNAL_FIELDS_LOAD,       559 : iP,iLd,i0,i1=    7    8    7    8 ; Wght=  0.8666666667  0.1333333333
 cg2d: Sum(rhs),rhsMax =  -1.70530256582424E-13  4.60901563317756E+00
 Computing Diagnostic #    79 "DRHODR  " (list#  1) Parms "SM      LR      ", Count=      10
 Computing Diagnostic #    64 "RHOAnoma" (list#  1) Parms "SMR     MR      ", Count=      10
 Computing Diagnostic #    80 "CONVADJ " (list#  1) Parms "SMR     LR      ", Count=      10
 Computing Diagnostic #   210 "GM_Kwx  " (list#  1) Parms "UM      LR      ", Count=      10
             Vector  Mate for "GM_Kwx  " :  Diagnostic #    211 "GM_Kwy  " exists
 Computing Diagnostic #   211 "GM_Kwy  " (list#  1) Parms "VM      LR      ", Count=      10
             Vector  Mate for "GM_Kwy  " :  Diagnostic #    210 "GM_Kwx  " exists
 Computing Diagnostic #   212 "GM_Kwz  " (list#  1) Parms "WM P    LR      ", Count=      10
 Computing Diagnostic #   213 "GM_PsiX " (list#  1) Parms "UU      LR      ", Count=      10
             Vector  Mate for "GM_PsiX " :  Diagnostic #    214 "GM_PsiY " exists
 Computing Diagnostic #   214 "GM_PsiY " (list#  1) Parms "VV      LR      ", Count=      10
             Vector  Mate for "GM_PsiY " :  Diagnostic #    213 "GM_PsiX " exists
 EXTERNAL_FIELDS_LOAD,       560 : iP,iLd,i0,i1=    7    8    7    8 ; Wght=  0.8333333333  0.1666666667
 cg2d: Sum(rhs),rhsMax =  -1.13686837721616E-13  4.60795091393339E+00
 EXTERNAL_FIELDS_LOAD,       561 : iP,iLd,i0,i1=    7    8    7    8 ; Wght=  0.8000000000  0.2000000000
 cg2d: Sum(rhs),rhsMax =  -8.52651282912120E-14  4.60759229168462E+00
 EXTERNAL_FIELDS_LOAD,       562 : iP,iLd,i0,i1=    7    8    7    8 ; Wght=  0.7666666667  0.2333333333
 cg2d: Sum(rhs),rhsMax =  -1.13686837721616E-13  4.60794715462833E+00
 EXTERNAL_FIELDS_LOAD,       563 : iP,iLd,i0,i1=    7    8    7    8 ; Wght=  0.7333333333  0.2666666667
 cg2d: Sum(rhs),rhsMax =  -2.84217094304040E-14  4.60901009022943E+00
 EXTERNAL_FIELDS_LOAD,       564 : iP,iLd,i0,i1=    7    8    7    8 ; Wght=  0.7000000000  0.3000000000
 cg2d: Sum(rhs),rhsMax =  -1.98951966012828E-13  4.61076114634731E+00
 EXTERNAL_FIELDS_LOAD,       565 : iP,iLd,i0,i1=    7    8    7    8 ; Wght=  0.6666666667  0.3333333333
 cg2d: Sum(rhs),rhsMax =  -1.98951966012828E-13  4.61316771561445E+00
 Compute Stats, Diag. #    23 "ETAN    " (list#  1) Parms "SM      M1      ", vol(  0 )= 3.639E+14
 Compute Stats, Diag. #    30 "UVEL    " (list#  1) Parms "UUR     MR      ", vol(  0 )= 1.231E+18
 Compute Stats, Diag. #    31 "VVEL    " (list#  1) Parms "VVR     MR      ", vol(  0 )= 1.243E+18
 Compute Stats, Diag. #    32 "WVEL    " (list#  1) Parms "WM      LR      ", vol(  0 )= 1.315E+18
 Compute Stats, Diag. #    26 "THETA   " (list#  1) Parms "SMR     MR      ", vol(  0 )= 1.340E+18
 EXTERNAL_FIELDS_LOAD,       566 : iP,iLd,i0,i1=    7    8    7    8 ; Wght=  0.6333333333  0.3666666667
 cg2d: Sum(rhs),rhsMax =  -1.70530256582424E-13  4.61618452347068E+00
 EXTERNAL_FIELDS_LOAD,       567 : iP,iLd,i0,i1=    7    8    7    8 ; Wght=  0.6000000000  0.4000000000
 cg2d: Sum(rhs),rhsMax =  -1.13686837721616E-13  4.61975608427964E+00
 EXTERNAL_FIELDS_LOAD,       568 : iP,iLd,i0,i1=    7    8    7    8 ; Wght=  0.5666666667  0.4333333333
 cg2d: Sum(rhs),rhsMax =  -8.52651282912120E-14  4.62381662617769E+00
 EXTERNAL_FIELDS_LOAD,       569 : iP,iLd,i0,i1=    7    8    7    8 ; Wght=  0.5333333333  0.4666666667
 cg2d: Sum(rhs),rhsMax =  -5.68434188608080E-14  4.62829264174237E+00
(PID.TID 0000.0001)      cg2d_init_res =   2.00432450711843E-01
(PID.TID 0000.0001)      cg2d_iters(min,last) =      -1      62
(PID.TID 0000.0001)      cg2d_last_res =   4.93160010943045E-07
(PID.TID 0000.0001) // =======================================================
(PID.TID 0000.0001) // Begin MONITOR dynamic field statistics
(PID.TID 0000.0001) // =======================================================
(PID.TID 0000.0001) %MON time_tsnumber                =                   570
(PID.TID 0000.0001) %MON time_secondsf                =   4.9248000000000E+07
(PID.TID 0000.0001) %MON dynstat_eta_max              =   1.0313800169341E+00
(PID.TID 0000.0001) %MON dynstat_eta_min              =  -1.8818851619252E+00
(PID.TID 0000.0001) %MON dynstat_eta_mean             =   2.3358916728339E-16
(PID.TID 0000.0001) %MON dynstat_eta_sd               =   6.3760129180885E-01
(PID.TID 0000.0001) %MON dynstat_eta_del2             =   8.0722448067978E-04
(PID.TID 0000.0001) %MON dynstat_uvel_max             =   3.7784246208072E-01
(PID.TID 0000.0001) %MON dynstat_uvel_min             =  -2.2108950659777E-01
(PID.TID 0000.0001) %MON dynstat_uvel_mean            =  -4.9887595463498E-04
(PID.TID 0000.0001) %MON dynstat_uvel_sd              =   1.3076754599903E-02
(PID.TID 0000.0001) %MON dynstat_uvel_del2            =   5.2378967532988E-05
(PID.TID 0000.0001) %MON dynstat_vvel_max             =   3.2197760411193E-01
(PID.TID 0000.0001) %MON dynstat_vvel_min             =  -2.0471900521025E-01
(PID.TID 0000.0001) %MON dynstat_vvel_mean            =  -3.9464305803126E-04
(PID.TID 0000.0001) %MON dynstat_vvel_sd              =   1.3087487361885E-02
(PID.TID 0000.0001) %MON dynstat_vvel_del2            =   5.2543131723685E-05
(PID.TID 0000.0001) %MON dynstat_wvel_max             =   9.5638007894563E-05
(PID.TID 0000.0001) %MON dynstat_wvel_min             =  -2.1327439617890E-04
(PID.TID 0000.0001) %MON dynstat_wvel_mean            =  -8.7030466643546E-23
(PID.TID 0000.0001) %MON dynstat_wvel_sd              =   4.5561194251696E-06
(PID.TID 0000.0001) %MON dynstat_wvel_del2            =   3.1971561694311E-08
(PID.TID 0000.0001) %MON dynstat_theta_max            =   3.1454473007921E+01
(PID.TID 0000.0001) %MON dynstat_theta_min            =  -6.7125396642177E+00
(PID.TID 0000.0001) %MON dynstat_theta_mean           =   3.6035849395346E+00
(PID.TID 0000.0001) %MON dynstat_theta_sd             =   4.4194369868132E+00
(PID.TID 0000.0001) %MON dynstat_theta_del2           =   2.7525501476717E-03
(PID.TID 0000.0001) %MON dynstat_salt_max             =   4.0701112848264E+01
(PID.TID 0000.0001) %MON dynstat_salt_min             =   1.8570841903166E+01
(PID.TID 0000.0001) %MON dynstat_salt_mean            =   3.4721122407870E+01
(PID.TID 0000.0001) %MON dynstat_salt_sd              =   4.9382745266669E-01
(PID.TID 0000.0001) %MON dynstat_salt_del2            =   8.9028181856410E-04
(PID.TID 0000.0001) %MON forcing_qnet_max             =   2.6623444985897E+02
(PID.TID 0000.0001) %MON forcing_qnet_min             =  -2.1164738352902E+02
(PID.TID 0000.0001) %MON forcing_qnet_mean            =   1.3490614180387E+01
(PID.TID 0000.0001) %MON forcing_qnet_sd              =   7.9941125037902E+01
(PID.TID 0000.0001) %MON forcing_qnet_del2            =   3.9351193552263E-01
(PID.TID 0000.0001) %MON forcing_qsw_max              =   0.0000000000000E+00
(PID.TID 0000.0001) %MON forcing_qsw_min              =   0.0000000000000E+00
(PID.TID 0000.0001) %MON forcing_qsw_mean             =   0.0000000000000E+00
(PID.TID 0000.0001) %MON forcing_qsw_sd               =   0.0000000000000E+00
(PID.TID 0000.0001) %MON forcing_qsw_del2             =   0.0000000000000E+00
(PID.TID 0000.0001) %MON forcing_empmr_max            =   7.6494447208479E-05
(PID.TID 0000.0001) %MON forcing_empmr_min            =  -1.5362614137596E-04
(PID.TID 0000.0001) %MON forcing_empmr_mean           =  -2.7256318706594E-21
(PID.TID 0000.0001) %MON forcing_empmr_sd             =   2.4051723601802E-05
(PID.TID 0000.0001) %MON forcing_empmr_del2           =   1.2276157049243E-07
(PID.TID 0000.0001) %MON forcing_fu_max               =   3.7939488069330E-01
(PID.TID 0000.0001) %MON forcing_fu_min               =  -3.0387787452663E-01
(PID.TID 0000.0001) %MON forcing_fu_mean              =  -4.7816371445427E-03
(PID.TID 0000.0001) %MON forcing_fu_sd                =   8.4774595803944E-02
(PID.TID 0000.0001) %MON forcing_fu_del2              =   2.3419656372830E-04
(PID.TID 0000.0001) %MON forcing_fv_max               =   3.6307584767778E-01
(PID.TID 0000.0001) %MON forcing_fv_min               =  -3.9408330405910E-01
(PID.TID 0000.0001) %MON forcing_fv_mean              =  -7.2982255147446E-03
(PID.TID 0000.0001) %MON forcing_fv_sd                =   8.0365850907335E-02
(PID.TID 0000.0001) %MON forcing_fv_del2              =   2.4868806625824E-04
(PID.TID 0000.0001) %MON trAdv_CFL_u_max              =   1.1282008534487E-01
(PID.TID 0000.0001) %MON trAdv_CFL_v_max              =   1.1398907508936E-01
(PID.TID 0000.0001) %MON trAdv_CFL_w_max              =   1.2243384492816E-01
(PID.TID 0000.0001) %MON advcfl_uvel_max              =   1.0929342005367E-01
(PID.TID 0000.0001) %MON advcfl_vvel_max              =   9.2563373260533E-02
(PID.TID 0000.0001) %MON advcfl_wvel_max              =   6.9535501244743E-02
(PID.TID 0000.0001) %MON advcfl_W_hf_max              =   7.6778782624404E-02
(PID.TID 0000.0001) %MON pe_b_mean                    =   5.4158028869938E-04
(PID.TID 0000.0001) %MON ke_max                       =   7.3636534062653E-02
(PID.TID 0000.0001) %MON ke_mean                      =   1.5821172795420E-04
(PID.TID 0000.0001) %MON ke_vol                       =   1.3398024453628E+18
(PID.TID 0000.0001) %MON vort_r_min                   =  -9.5009028442527E-07
(PID.TID 0000.0001) %MON vort_r_max                   =   1.7715422835618E-06
(PID.TID 0000.0001) %MON vort_a_mean                  =  -2.0549865324846E-05
(PID.TID 0000.0001) %MON vort_a_sd                    =   7.5259655533149E-05
(PID.TID 0000.0001) %MON vort_p_mean                  =  -2.4783522345032E-05
(PID.TID 0000.0001) %MON vort_p_sd                    =   1.2810679697890E-04
(PID.TID 0000.0001) %MON surfExpan_theta_mean         =   6.0221119359692E-08
(PID.TID 0000.0001) %MON surfExpan_salt_mean          =   1.5269143012654E-08
(PID.TID 0000.0001) // =======================================================
(PID.TID 0000.0001) // End MONITOR dynamic field statistics
(PID.TID 0000.0001) // =======================================================
(PID.TID 0000.0001) // =======================================================
(PID.TID 0000.0001) // Begin MONITOR ptracer field statistics
(PID.TID 0000.0001) // =======================================================
(PID.TID 0000.0001) %MON trcstat_ptracer01_max        =   5.1274847412489E+07
(PID.TID 0000.0001) %MON trcstat_ptracer01_min        =  -3.0716262378450E+06
(PID.TID 0000.0001) %MON trcstat_ptracer01_mean       =   4.8016772241293E+07
(PID.TID 0000.0001) %MON trcstat_ptracer01_sd         =   6.1991339240299E+06
(PID.TID 0000.0001) %MON trcstat_ptracer01_del2       =   1.6261816772095E+04
(PID.TID 0000.0001) // =======================================================
(PID.TID 0000.0001) // End MONITOR ptracer field statistics
(PID.TID 0000.0001) // =======================================================
 Computing Diagnostic #    79 "DRHODR  " (list#  1) Parms "SM      LR      ", Count=      10
 Computing Diagnostic #    64 "RHOAnoma" (list#  1) Parms "SMR     MR      ", Count=      10
 Computing Diagnostic #    80 "CONVADJ " (list#  1) Parms "SMR     LR      ", Count=      10
 Computing Diagnostic #   210 "GM_Kwx  " (list#  1) Parms "UM      LR      ", Count=      10
             Vector  Mate for "GM_Kwx  " :  Diagnostic #    211 "GM_Kwy  " exists
 Computing Diagnostic #   211 "GM_Kwy  " (list#  1) Parms "VM      LR      ", Count=      10
             Vector  Mate for "GM_Kwy  " :  Diagnostic #    210 "GM_Kwx  " exists
 Computing Diagnostic #   212 "GM_Kwz  " (list#  1) Parms "WM P    LR      ", Count=      10
 Computing Diagnostic #   213 "GM_PsiX " (list#  1) Parms "UU      LR      ", Count=      10
             Vector  Mate for "GM_PsiX " :  Diagnostic #    214 "GM_PsiY " exists
 Computing Diagnostic #   214 "GM_PsiY " (list#  1) Parms "VV      LR      ", Count=      10
             Vector  Mate for "GM_PsiY " :  Diagnostic #    213 "GM_PsiX " exists
 EXTERNAL_FIELDS_LOAD,       570 : iP,iLd,i0,i1=    7    8    7    8 ; Wght=  0.5000000000  0.5000000000
 cg2d: Sum(rhs),rhsMax =  -2.84217094304040E-13  4.63310344487851E+00
 EXTERNAL_FIELDS_LOAD,       571 : iP,iLd,i0,i1=    7    8    7    8 ; Wght=  0.4666666667  0.5333333333
 cg2d: Sum(rhs),rhsMax =  -2.84217094304040E-13  4.63816269807632E+00
 EXTERNAL_FIELDS_LOAD,       572 : iP,iLd,i0,i1=    7    8    7    8 ; Wght=  0.4333333333  0.5666666667
 cg2d: Sum(rhs),rhsMax =  -3.41060513164848E-13  4.64338028522600E+00
 EXTERNAL_FIELDS_LOAD,       573 : iP,iLd,i0,i1=    7    8    7    8 ; Wght=  0.4000000000  0.6000000000
 cg2d: Sum(rhs),rhsMax =   5.68434188608080E-14  4.64866471577707E+00
 EXTERNAL_FIELDS_LOAD,       574 : iP,iLd,i0,i1=    7    8    7    8 ; Wght=  0.3666666667  0.6333333333
 cg2d: Sum(rhs),rhsMax =  -1.13686837721616E-13  4.65392396609420E+00
 EXTERNAL_FIELDS_LOAD,       575 : iP,iLd,i0,i1=    7    8    7    8 ; Wght=  0.3333333333  0.6666666667
 cg2d: Sum(rhs),rhsMax =   0.00000000000000E+00  4.65906817049891E+00
 Compute Stats, Diag. #    23 "ETAN    " (list#  1) Parms "SM      M1      ", vol(  0 )= 3.639E+14
 Compute Stats, Diag. #    30 "UVEL    " (list#  1) Parms "UUR     MR      ", vol(  0 )= 1.231E+18
 Compute Stats, Diag. #    31 "VVEL    " (list#  1) Parms "VVR     MR      ", vol(  0 )= 1.243E+18
 Compute Stats, Diag. #    32 "WVEL    " (list#  1) Parms "WM      LR      ", vol(  0 )= 1.315E+18
 Compute Stats, Diag. #    26 "THETA   " (list#  1) Parms "SMR     MR      ", vol(  0 )= 1.340E+18
 EXTERNAL_FIELDS_LOAD,       576 : iP,iLd,i0,i1=    7    8    7    8 ; Wght=  0.3000000000  0.7000000000
 cg2d: Sum(rhs),rhsMax =  -1.13686837721616E-13  4.66401113594332E+00
 EXTERNAL_FIELDS_LOAD,       577 : iP,iLd,i0,i1=    7    8    7    8 ; Wght=  0.2666666667  0.7333333333
 cg2d: Sum(rhs),rhsMax =  -8.52651282912120E-14  4.66867241062133E+00
 EXTERNAL_FIELDS_LOAD,       578 : iP,iLd,i0,i1=    7    8    7    8 ; Wght=  0.2333333333  0.7666666667
 cg2d: Sum(rhs),rhsMax =  -2.84217094304040E-14  4.67297903767653E+00
 EXTERNAL_FIELDS_LOAD,       579 : iP,iLd,i0,i1=    7    8    7    8 ; Wght=  0.2000000000  0.8000000000
 cg2d: Sum(rhs),rhsMax =   1.42108547152020E-13  4.67686667553594E+00
 Computing Diagnostic #    79 "DRHODR  " (list#  1) Parms "SM      LR      ", Count=      10
 Computing Diagnostic #    64 "RHOAnoma" (list#  1) Parms "SMR     MR      ", Count=      10
 Computing Diagnostic #    80 "CONVADJ " (list#  1) Parms "SMR     LR      ", Count=      10
 Computing Diagnostic #   210 "GM_Kwx  " (list#  1) Parms "UM      LR      ", Count=      10
             Vector  Mate for "GM_Kwx  " :  Diagnostic #    211 "GM_Kwy  " exists
 Computing Diagnostic #   211 "GM_Kwy  " (list#  1) Parms "VM      LR      ", Count=      10
             Vector  Mate for "GM_Kwy  " :  Diagnostic #    210 "GM_Kwx  " exists
 Computing Diagnostic #   212 "GM_Kwz  " (list#  1) Parms "WM P    LR      ", Count=      10
 Computing Diagnostic #   213 "GM_PsiX " (list#  1) Parms "UU      LR      ", Count=      10
             Vector  Mate for "GM_PsiX " :  Diagnostic #    214 "GM_PsiY " exists
 Computing Diagnostic #   214 "GM_PsiY " (list#  1) Parms "VV      LR      ", Count=      10
             Vector  Mate for "GM_PsiY " :  Diagnostic #    213 "GM_PsiX " exists
 EXTERNAL_FIELDS_LOAD,       580 : iP,iLd,i0,i1=    7    8    7    8 ; Wght=  0.1666666667  0.8333333333
 cg2d: Sum(rhs),rhsMax =  -2.27373675443232E-13  4.68028090124299E+00
 EXTERNAL_FIELDS_LOAD,       581 : iP,iLd,i0,i1=    7    8    7    8 ; Wght=  0.1333333333  0.8666666667
 cg2d: Sum(rhs),rhsMax =  -2.84217094304040E-14  4.68317877272882E+00
 EXTERNAL_FIELDS_LOAD,       582 : iP,iLd,i0,i1=    7    8    7    8 ; Wght=  0.1000000000  0.9000000000
 cg2d: Sum(rhs),rhsMax =  -1.13686837721616E-13  4.68552916648005E+00
 EXTERNAL_FIELDS_LOAD,       583 : iP,iLd,i0,i1=    7    8    7    8 ; Wght=  0.0666666667  0.9333333333
 cg2d: Sum(rhs),rhsMax =   2.84217094304040E-14  4.68731274496654E+00
 EXTERNAL_FIELDS_LOAD,       584 : iP,iLd,i0,i1=    7    8    7    8 ; Wght=  0.0333333333  0.9666666667
 cg2d: Sum(rhs),rhsMax =  -2.27373675443232E-13  4.68852361352731E+00
 EXTERNAL_FIELDS_LOAD,       585 : iP,iLd,i0,i1=    7    8    8    9 ; Wght=  1.0000000000  0.0000000000
 EXTERNAL_FIELDS_LOAD, it=       585 : Reading new data, i0,i1=    8    9 (prev=    7    8 )
(PID.TID 0000.0001)  MDS_READ_FIELD: opening global file: trenberth_taux.bin
(PID.TID 0000.0001)  MDS_READ_FIELD: opening global file: trenberth_taux.bin
(PID.TID 0000.0001)  MDS_READ_FIELD: opening global file: trenberth_tauy.bin
(PID.TID 0000.0001)  MDS_READ_FIELD: opening global file: trenberth_tauy.bin
(PID.TID 0000.0001)  MDS_READ_FIELD: opening global file: shiQnet_cs32.bin
(PID.TID 0000.0001)  MDS_READ_FIELD: opening global file: shiQnet_cs32.bin
(PID.TID 0000.0001)  MDS_READ_FIELD: opening global file: shiEmPR_cs32.bin
(PID.TID 0000.0001)  MDS_READ_FIELD: opening global file: shiEmPR_cs32.bin
(PID.TID 0000.0001)  MDS_READ_FIELD: opening global file: lev_surfT_cs_12m.bin
(PID.TID 0000.0001)  MDS_READ_FIELD: opening global file: lev_surfT_cs_12m.bin
(PID.TID 0000.0001)  MDS_READ_FIELD: opening global file: lev_surfS_cs_12m.bin
(PID.TID 0000.0001)  MDS_READ_FIELD: opening global file: lev_surfS_cs_12m.bin
 cg2d: Sum(rhs),rhsMax =  -8.52651282912120E-14  4.68916715131280E+00
 Compute Stats, Diag. #    23 "ETAN    " (list#  1) Parms "SM      M1      ", vol(  0 )= 3.639E+14
 Compute Stats, Diag. #    30 "UVEL    " (list#  1) Parms "UUR     MR      ", vol(  0 )= 1.231E+18
 Compute Stats, Diag. #    31 "VVEL    " (list#  1) Parms "VVR     MR      ", vol(  0 )= 1.243E+18
 Compute Stats, Diag. #    32 "WVEL    " (list#  1) Parms "WM      LR      ", vol(  0 )= 1.315E+18
 Compute Stats, Diag. #    26 "THETA   " (list#  1) Parms "SMR     MR      ", vol(  0 )= 1.340E+18
 EXTERNAL_FIELDS_LOAD,       586 : iP,iLd,i0,i1=    8    9    8    9 ; Wght=  0.9666666667  0.0333333333
 cg2d: Sum(rhs),rhsMax =  -5.68434188608080E-14  4.68924234851124E+00
 EXTERNAL_FIELDS_LOAD,       587 : iP,iLd,i0,i1=    8    9    8    9 ; Wght=  0.9333333333  0.0666666667
 cg2d: Sum(rhs),rhsMax =  -2.27373675443232E-13  4.68880649360879E+00
 EXTERNAL_FIELDS_LOAD,       588 : iP,iLd,i0,i1=    8    9    8    9 ; Wght=  0.9000000000  0.1000000000
 cg2d: Sum(rhs),rhsMax =  -1.42108547152020E-13  4.68788006644798E+00
 EXTERNAL_FIELDS_LOAD,       589 : iP,iLd,i0,i1=    8    9    8    9 ; Wght=  0.8666666667  0.1333333333
 cg2d: Sum(rhs),rhsMax =  -8.52651282912120E-14  4.68650390415594E+00
 Computing Diagnostic #    79 "DRHODR  " (list#  1) Parms "SM      LR      ", Count=      10
 Computing Diagnostic #    64 "RHOAnoma" (list#  1) Parms "SMR     MR      ", Count=      10
 Computing Diagnostic #    80 "CONVADJ " (list#  1) Parms "SMR     LR      ", Count=      10
 Computing Diagnostic #   210 "GM_Kwx  " (list#  1) Parms "UM      LR      ", Count=      10
             Vector  Mate for "GM_Kwx  " :  Diagnostic #    211 "GM_Kwy  " exists
 Computing Diagnostic #   211 "GM_Kwy  " (list#  1) Parms "VM      LR      ", Count=      10
             Vector  Mate for "GM_Kwy  " :  Diagnostic #    210 "GM_Kwx  " exists
 Computing Diagnostic #   212 "GM_Kwz  " (list#  1) Parms "WM P    LR      ", Count=      10
 Computing Diagnostic #   213 "GM_PsiX " (list#  1) Parms "UU      LR      ", Count=      10
             Vector  Mate for "GM_PsiX " :  Diagnostic #    214 "GM_PsiY " exists
 Computing Diagnostic #   214 "GM_PsiY " (list#  1) Parms "VV      LR      ", Count=      10
             Vector  Mate for "GM_PsiY " :  Diagnostic #    213 "GM_PsiX " exists
 EXTERNAL_FIELDS_LOAD,       590 : iP,iLd,i0,i1=    8    9    8    9 ; Wght=  0.8333333333  0.1666666667
 cg2d: Sum(rhs),rhsMax =  -1.13686837721616E-13  4.68473826921180E+00
 EXTERNAL_FIELDS_LOAD,       591 : iP,iLd,i0,i1=    8    9    8    9 ; Wght=  0.8000000000  0.2000000000
 cg2d: Sum(rhs),rhsMax =  -3.41060513164848E-13  4.68264380531072E+00
 EXTERNAL_FIELDS_LOAD,       592 : iP,iLd,i0,i1=    8    9    8    9 ; Wght=  0.7666666667  0.2333333333
 cg2d: Sum(rhs),rhsMax =  -2.27373675443232E-13  4.68029186668701E+00
 EXTERNAL_FIELDS_LOAD,       593 : iP,iLd,i0,i1=    8    9    8    9 ; Wght=  0.7333333333  0.2666666667
 cg2d: Sum(rhs),rhsMax =  -5.68434188608080E-14  4.67775016094255E+00
 EXTERNAL_FIELDS_LOAD,       594 : iP,iLd,i0,i1=    8    9    8    9 ; Wght=  0.7000000000  0.3000000000
 cg2d: Sum(rhs),rhsMax =   5.68434188608080E-14  4.67509650360242E+00
 EXTERNAL_FIELDS_LOAD,       595 : iP,iLd,i0,i1=    8    9    8    9 ; Wght=  0.6666666667  0.3333333333
 cg2d: Sum(rhs),rhsMax =  -2.84217094304040E-14  4.67239251077831E+00
 Compute Stats, Diag. #    23 "ETAN    " (list#  1) Parms "SM      M1      ", vol(  0 )= 3.639E+14
 Compute Stats, Diag. #    30 "UVEL    " (list#  1) Parms "UUR     MR      ", vol(  0 )= 1.231E+18
 Compute Stats, Diag. #    31 "VVEL    " (list#  1) Parms "VVR     MR      ", vol(  0 )= 1.243E+18
 Compute Stats, Diag. #    32 "WVEL    " (list#  1) Parms "WM      LR      ", vol(  0 )= 1.315E+18
 Compute Stats, Diag. #    26 "THETA   " (list#  1) Parms "SMR     MR      ", vol(  0 )= 1.340E+18
 EXTERNAL_FIELDS_LOAD,       596 : iP,iLd,i0,i1=    8    9    8    9 ; Wght=  0.6333333333  0.3666666667
 cg2d: Sum(rhs),rhsMax =  -8.52651282912120E-14  4.66973031103276E+00
 EXTERNAL_FIELDS_LOAD,       597 : iP,iLd,i0,i1=    8    9    8    9 ; Wght=  0.6000000000  0.4000000000
 cg2d: Sum(rhs),rhsMax =  -1.13686837721616E-13  4.66719402630905E+00
 EXTERNAL_FIELDS_LOAD,       598 : iP,iLd,i0,i1=    8    9    8    9 ; Wght=  0.5666666667  0.4333333333
 cg2d: Sum(rhs),rhsMax =  -2.84217094304040E-14  4.66484083522374E+00
 EXTERNAL_FIELDS_LOAD,       599 : iP,iLd,i0,i1=    8    9    8    9 ; Wght=  0.5333333333  0.4666666667
 cg2d: Sum(rhs),rhsMax =  -1.42108547152020E-13  4.66274225968934E+00
(PID.TID 0000.0001)      cg2d_init_res =   1.87106897250067E-01
(PID.TID 0000.0001)      cg2d_iters(min,last) =      -1      60
(PID.TID 0000.0001)      cg2d_last_res =   5.68049843357681E-07
(PID.TID 0000.0001) // =======================================================
(PID.TID 0000.0001) // Begin MONITOR dynamic field statistics
(PID.TID 0000.0001) // =======================================================
(PID.TID 0000.0001) %MON time_tsnumber                =                   600
(PID.TID 0000.0001) %MON time_secondsf                =   5.1840000000000E+07
(PID.TID 0000.0001) %MON dynstat_eta_max              =   1.0291380520111E+00
(PID.TID 0000.0001) %MON dynstat_eta_min              =  -1.8774263401833E+00
(PID.TID 0000.0001) %MON dynstat_eta_mean             =   1.7862701027553E-16
(PID.TID 0000.0001) %MON dynstat_eta_sd               =   6.3679465432612E-01
(PID.TID 0000.0001) %MON dynstat_eta_del2             =   8.1134738478509E-04
(PID.TID 0000.0001) %MON dynstat_uvel_max             =   4.1247027301765E-01
(PID.TID 0000.0001) %MON dynstat_uvel_min             =  -2.4454508503366E-01
(PID.TID 0000.0001) %MON dynstat_uvel_mean            =  -5.3144830906810E-04
(PID.TID 0000.0001) %MON dynstat_uvel_sd              =   1.3105225022165E-02
(PID.TID 0000.0001) %MON dynstat_uvel_del2            =   5.3734097569066E-05
(PID.TID 0000.0001) %MON dynstat_vvel_max             =   3.6204033573670E-01
(PID.TID 0000.0001) %MON dynstat_vvel_min             =  -2.4584732293186E-01
(PID.TID 0000.0001) %MON dynstat_vvel_mean            =  -4.1770143776720E-04
(PID.TID 0000.0001) %MON dynstat_vvel_sd              =   1.3345374914977E-02
(PID.TID 0000.0001) %MON dynstat_vvel_del2            =   5.4613087086231E-05
(PID.TID 0000.0001) %MON dynstat_wvel_max             =   9.8030216687014E-05
(PID.TID 0000.0001) %MON dynstat_wvel_min             =  -2.1014025964631E-04
(PID.TID 0000.0001) %MON dynstat_wvel_mean            =  -1.4214976218446E-22
(PID.TID 0000.0001) %MON dynstat_wvel_sd              =   4.4809244066077E-06
(PID.TID 0000.0001) %MON dynstat_wvel_del2            =   3.2901047299010E-08
(PID.TID 0000.0001) %MON dynstat_theta_max            =   3.2260864357875E+01
(PID.TID 0000.0001) %MON dynstat_theta_min            =  -6.7885270914280E+00
(PID.TID 0000.0001) %MON dynstat_theta_mean           =   3.6035839364988E+00
(PID.TID 0000.0001) %MON dynstat_theta_sd             =   4.4208032293663E+00
(PID.TID 0000.0001) %MON dynstat_theta_del2           =   2.8779672042233E-03
(PID.TID 0000.0001) %MON dynstat_salt_max             =   4.0741445320267E+01
(PID.TID 0000.0001) %MON dynstat_salt_min             =   1.8565280708796E+01
(PID.TID 0000.0001) %MON dynstat_salt_mean            =   3.4721107847269E+01
(PID.TID 0000.0001) %MON dynstat_salt_sd              =   4.9402886026144E-01
(PID.TID 0000.0001) %MON dynstat_salt_del2            =   9.1265587210770E-04
(PID.TID 0000.0001) %MON forcing_qnet_max             =   2.3762888233198E+02
(PID.TID 0000.0001) %MON forcing_qnet_min             =  -1.4205239650770E+02
(PID.TID 0000.0001) %MON forcing_qnet_mean            =   3.5901723567551E+00
(PID.TID 0000.0001) %MON forcing_qnet_sd              =   5.3668616368277E+01
(PID.TID 0000.0001) %MON forcing_qnet_del2            =   3.8165863800027E-01
(PID.TID 0000.0001) %MON forcing_qsw_max              =   0.0000000000000E+00
(PID.TID 0000.0001) %MON forcing_qsw_min              =   0.0000000000000E+00
(PID.TID 0000.0001) %MON forcing_qsw_mean             =   0.0000000000000E+00
(PID.TID 0000.0001) %MON forcing_qsw_sd               =   0.0000000000000E+00
(PID.TID 0000.0001) %MON forcing_qsw_del2             =   0.0000000000000E+00
(PID.TID 0000.0001) %MON forcing_empmr_max            =   7.6494447208479E-05
(PID.TID 0000.0001) %MON forcing_empmr_min            =  -1.5362614137596E-04
(PID.TID 0000.0001) %MON forcing_empmr_mean           =  -2.7256318706594E-21
(PID.TID 0000.0001) %MON forcing_empmr_sd             =   2.4051723601802E-05
(PID.TID 0000.0001) %MON forcing_empmr_del2           =   1.2276157049243E-07
(PID.TID 0000.0001) %MON forcing_fu_max               =   3.7705416461979E-01
(PID.TID 0000.0001) %MON forcing_fu_min               =  -2.9191218893916E-01
(PID.TID 0000.0001) %MON forcing_fu_mean              =  -4.5636136682750E-03
(PID.TID 0000.0001) %MON forcing_fu_sd                =   8.2258737971817E-02
(PID.TID 0000.0001) %MON forcing_fu_del2              =   2.2845714929796E-04
(PID.TID 0000.0001) %MON forcing_fv_max               =   3.0904070945947E-01
(PID.TID 0000.0001) %MON forcing_fv_min               =  -3.7009336865929E-01
(PID.TID 0000.0001) %MON forcing_fv_mean              =  -6.1537312399580E-03
(PID.TID 0000.0001) %MON forcing_fv_sd                =   7.8247752992835E-02
(PID.TID 0000.0001) %MON forcing_fv_del2              =   2.2910904370404E-04
(PID.TID 0000.0001) %MON trAdv_CFL_u_max              =   1.2005460246481E-01
(PID.TID 0000.0001) %MON trAdv_CFL_v_max              =   1.4308113553245E-01
(PID.TID 0000.0001) %MON trAdv_CFL_w_max              =   8.0591943965108E-02
(PID.TID 0000.0001) %MON advcfl_uvel_max              =   1.1930974237337E-01
(PID.TID 0000.0001) %MON advcfl_vvel_max              =   1.0408076308474E-01
(PID.TID 0000.0001) %MON advcfl_wvel_max              =   6.8513654465816E-02
(PID.TID 0000.0001) %MON advcfl_W_hf_max              =   7.5650493472672E-02
(PID.TID 0000.0001) %MON pe_b_mean                    =   5.4021083531690E-04
(PID.TID 0000.0001) %MON ke_max                       =   8.2426015374550E-02
(PID.TID 0000.0001) %MON ke_mean                      =   1.6174130224869E-04
(PID.TID 0000.0001) %MON ke_vol                       =   1.3398024453628E+18
(PID.TID 0000.0001) %MON vort_r_min                   =  -1.0449125138087E-06
(PID.TID 0000.0001) %MON vort_r_max                   =   2.0495920843558E-06
(PID.TID 0000.0001) %MON vort_a_mean                  =  -2.0549865324846E-05
(PID.TID 0000.0001) %MON vort_a_sd                    =   7.5259646820305E-05
(PID.TID 0000.0001) %MON vort_p_mean                  =  -2.4783522345032E-05
(PID.TID 0000.0001) %MON vort_p_sd                    =   1.2810677449396E-04
(PID.TID 0000.0001) %MON surfExpan_theta_mean         =   4.6981393062770E-08
(PID.TID 0000.0001) %MON surfExpan_salt_mean          =   1.5752924612956E-08
(PID.TID 0000.0001) // =======================================================
(PID.TID 0000.0001) // End MONITOR dynamic field statistics
(PID.TID 0000.0001) // =======================================================
(PID.TID 0000.0001) // =======================================================
(PID.TID 0000.0001) // Begin MONITOR ptracer field statistics
(PID.TID 0000.0001) // =======================================================
(PID.TID 0000.0001) %MON trcstat_ptracer01_max        =   5.3791636847440E+07
(PID.TID 0000.0001) %MON trcstat_ptracer01_min        =  -4.3173795980209E+06
(PID.TID 0000.0001) %MON trcstat_ptracer01_mean       =   5.0495053754818E+07
(PID.TID 0000.0001) %MON trcstat_ptracer01_sd         =   6.6424626724231E+06
(PID.TID 0000.0001) %MON trcstat_ptracer01_del2       =   1.8056342220576E+04
(PID.TID 0000.0001) // =======================================================
(PID.TID 0000.0001) // End MONITOR ptracer field statistics
(PID.TID 0000.0001) // =======================================================
 Computing Diagnostic #    79 "DRHODR  " (list#  1) Parms "SM      LR      ", Count=      10
 Computing Diagnostic #    64 "RHOAnoma" (list#  1) Parms "SMR     MR      ", Count=      10
 Computing Diagnostic #    80 "CONVADJ " (list#  1) Parms "SMR     LR      ", Count=      10
 Computing Diagnostic #   210 "GM_Kwx  " (list#  1) Parms "UM      LR      ", Count=      10
             Vector  Mate for "GM_Kwx  " :  Diagnostic #    211 "GM_Kwy  " exists
 Computing Diagnostic #   211 "GM_Kwy  " (list#  1) Parms "VM      LR      ", Count=      10
             Vector  Mate for "GM_Kwy  " :  Diagnostic #    210 "GM_Kwx  " exists
 Computing Diagnostic #   212 "GM_Kwz  " (list#  1) Parms "WM P    LR      ", Count=      10
 Computing Diagnostic #   213 "GM_PsiX " (list#  1) Parms "UU      LR      ", Count=      10
             Vector  Mate for "GM_PsiX " :  Diagnostic #    214 "GM_PsiY " exists
 Computing Diagnostic #   214 "GM_PsiY " (list#  1) Parms "VV      LR      ", Count=      10
             Vector  Mate for "GM_PsiY " :  Diagnostic #    213 "GM_PsiX " exists
 EXTERNAL_FIELDS_LOAD,       600 : iP,iLd,i0,i1=    8    9    8    9 ; Wght=  0.5000000000  0.5000000000
 cg2d: Sum(rhs),rhsMax =  -2.84217094304040E-14  4.66095357745138E+00
 EXTERNAL_FIELDS_LOAD,       601 : iP,iLd,i0,i1=    8    9    8    9 ; Wght=  0.4666666667  0.5333333333
 cg2d: Sum(rhs),rhsMax =  -1.13686837721616E-13  4.65953271737815E+00
 EXTERNAL_FIELDS_LOAD,       602 : iP,iLd,i0,i1=    8    9    8    9 ; Wght=  0.4333333333  0.5666666667
 cg2d: Sum(rhs),rhsMax =  -4.26325641456060E-13  4.65852518705694E+00
 EXTERNAL_FIELDS_LOAD,       603 : iP,iLd,i0,i1=    8    9    8    9 ; Wght=  0.4000000000  0.6000000000
 cg2d: Sum(rhs),rhsMax =  -3.12638803734444E-13  4.65796444533955E+00
 EXTERNAL_FIELDS_LOAD,       604 : iP,iLd,i0,i1=    8    9    8    9 ; Wght=  0.3666666667  0.6333333333
 cg2d: Sum(rhs),rhsMax =  -1.13686837721616E-13  4.65787896066277E+00
 EXTERNAL_FIELDS_LOAD,       605 : iP,iLd,i0,i1=    8    9    8    9 ; Wght=  0.3333333333  0.6666666667
 cg2d: Sum(rhs),rhsMax =  -1.98951966012828E-13  4.65828570178525E+00
 Compute Stats, Diag. #    23 "ETAN    " (list#  1) Parms "SM      M1      ", vol(  0 )= 3.639E+14
 Compute Stats, Diag. #    30 "UVEL    " (list#  1) Parms "UUR     MR      ", vol(  0 )= 1.231E+18
 Compute Stats, Diag. #    31 "VVEL    " (list#  1) Parms "VVR     MR      ", vol(  0 )= 1.243E+18
 Compute Stats, Diag. #    32 "WVEL    " (list#  1) Parms "WM      LR      ", vol(  0 )= 1.315E+18
 Compute Stats, Diag. #    26 "THETA   " (list#  1) Parms "SMR     MR      ", vol(  0 )= 1.340E+18
 EXTERNAL_FIELDS_LOAD,       606 : iP,iLd,i0,i1=    8    9    8    9 ; Wght=  0.3000000000  0.7000000000
 cg2d: Sum(rhs),rhsMax =  -8.52651282912120E-14  4.65918961300927E+00
 EXTERNAL_FIELDS_LOAD,       607 : iP,iLd,i0,i1=    8    9    8    9 ; Wght=  0.2666666667  0.7333333333
 cg2d: Sum(rhs),rhsMax =  -2.55795384873636E-13  4.66058501679433E+00
 EXTERNAL_FIELDS_LOAD,       608 : iP,iLd,i0,i1=    8    9    8    9 ; Wght=  0.2333333333  0.7666666667
 cg2d: Sum(rhs),rhsMax =  -2.84217094304040E-14  4.66246151617255E+00
 EXTERNAL_FIELDS_LOAD,       609 : iP,iLd,i0,i1=    8    9    8    9 ; Wght=  0.2000000000  0.8000000000
 cg2d: Sum(rhs),rhsMax =  -2.84217094304040E-14  4.66479616938702E+00
 Computing Diagnostic #    79 "DRHODR  " (list#  1) Parms "SM      LR      ", Count=      10
 Computing Diagnostic #    64 "RHOAnoma" (list#  1) Parms "SMR     MR      ", Count=      10
 Computing Diagnostic #    80 "CONVADJ " (list#  1) Parms "SMR     LR      ", Count=      10
 Computing Diagnostic #   210 "GM_Kwx  " (list#  1) Parms "UM      LR      ", Count=      10
             Vector  Mate for "GM_Kwx  " :  Diagnostic #    211 "GM_Kwy  " exists
 Computing Diagnostic #   211 "GM_Kwy  " (list#  1) Parms "VM      LR      ", Count=      10
             Vector  Mate for "GM_Kwy  " :  Diagnostic #    210 "GM_Kwx  " exists
 Computing Diagnostic #   212 "GM_Kwz  " (list#  1) Parms "WM P    LR      ", Count=      10
 Computing Diagnostic #   213 "GM_PsiX " (list#  1) Parms "UU      LR      ", Count=      10
             Vector  Mate for "GM_PsiX " :  Diagnostic #    214 "GM_PsiY " exists
 Computing Diagnostic #   214 "GM_PsiY " (list#  1) Parms "VV      LR      ", Count=      10
             Vector  Mate for "GM_PsiY " :  Diagnostic #    213 "GM_PsiX " exists
 EXTERNAL_FIELDS_LOAD,       610 : iP,iLd,i0,i1=    8    9    8    9 ; Wght=  0.1666666667  0.8333333333
 cg2d: Sum(rhs),rhsMax =  -1.98951966012828E-13  4.66755784571142E+00
 EXTERNAL_FIELDS_LOAD,       611 : iP,iLd,i0,i1=    8    9    8    9 ; Wght=  0.1333333333  0.8666666667
 cg2d: Sum(rhs),rhsMax =   2.84217094304040E-14  4.67070727131223E+00
 EXTERNAL_FIELDS_LOAD,       612 : iP,iLd,i0,i1=    8    9    8    9 ; Wght=  0.1000000000  0.9000000000
 cg2d: Sum(rhs),rhsMax =   8.52651282912120E-14  4.67419851227414E+00
 EXTERNAL_FIELDS_LOAD,       613 : iP,iLd,i0,i1=    8    9    8    9 ; Wght=  0.0666666667  0.9333333333
 cg2d: Sum(rhs),rhsMax =   2.84217094304040E-14  4.67797938804454E+00
 EXTERNAL_FIELDS_LOAD,       614 : iP,iLd,i0,i1=    8    9    8    9 ; Wght=  0.0333333333  0.9666666667
 cg2d: Sum(rhs),rhsMax =   1.13686837721616E-13  4.68199348326005E+00
 EXTERNAL_FIELDS_LOAD,       615 : iP,iLd,i0,i1=    8    9    9   10 ; Wght=  1.0000000000  0.0000000000
 EXTERNAL_FIELDS_LOAD, it=       615 : Reading new data, i0,i1=    9   10 (prev=    8    9 )
(PID.TID 0000.0001)  MDS_READ_FIELD: opening global file: trenberth_taux.bin
(PID.TID 0000.0001)  MDS_READ_FIELD: opening global file: trenberth_taux.bin
(PID.TID 0000.0001)  MDS_READ_FIELD: opening global file: trenberth_tauy.bin
(PID.TID 0000.0001)  MDS_READ_FIELD: opening global file: trenberth_tauy.bin
(PID.TID 0000.0001)  MDS_READ_FIELD: opening global file: shiQnet_cs32.bin
(PID.TID 0000.0001)  MDS_READ_FIELD: opening global file: shiQnet_cs32.bin
(PID.TID 0000.0001)  MDS_READ_FIELD: opening global file: shiEmPR_cs32.bin
(PID.TID 0000.0001)  MDS_READ_FIELD: opening global file: shiEmPR_cs32.bin
(PID.TID 0000.0001)  MDS_READ_FIELD: opening global file: lev_surfT_cs_12m.bin
(PID.TID 0000.0001)  MDS_READ_FIELD: opening global file: lev_surfT_cs_12m.bin
(PID.TID 0000.0001)  MDS_READ_FIELD: opening global file: lev_surfS_cs_12m.bin
(PID.TID 0000.0001)  MDS_READ_FIELD: opening global file: lev_surfS_cs_12m.bin
 cg2d: Sum(rhs),rhsMax =  -1.13686837721616E-13  4.68618018899402E+00
 Compute Stats, Diag. #    23 "ETAN    " (list#  1) Parms "SM      M1      ", vol(  0 )= 3.639E+14
 Compute Stats, Diag. #    30 "UVEL    " (list#  1) Parms "UUR     MR      ", vol(  0 )= 1.231E+18
 Compute Stats, Diag. #    31 "VVEL    " (list#  1) Parms "VVR     MR      ", vol(  0 )= 1.243E+18
 Compute Stats, Diag. #    32 "WVEL    " (list#  1) Parms "WM      LR      ", vol(  0 )= 1.315E+18
 Compute Stats, Diag. #    26 "THETA   " (list#  1) Parms "SMR     MR      ", vol(  0 )= 1.340E+18
 EXTERNAL_FIELDS_LOAD,       616 : iP,iLd,i0,i1=    9   10    9   10 ; Wght=  0.9666666667  0.0333333333
 cg2d: Sum(rhs),rhsMax =  -8.52651282912120E-14  4.69048324255574E+00
 EXTERNAL_FIELDS_LOAD,       617 : iP,iLd,i0,i1=    9   10    9   10 ; Wght=  0.9333333333  0.0666666667
 cg2d: Sum(rhs),rhsMax =   2.84217094304040E-14  4.69481183337720E+00
 EXTERNAL_FIELDS_LOAD,       618 : iP,iLd,i0,i1=    9   10    9   10 ; Wght=  0.9000000000  0.1000000000
 cg2d: Sum(rhs),rhsMax =   5.68434188608080E-14  4.69912872298441E+00
 EXTERNAL_FIELDS_LOAD,       619 : iP,iLd,i0,i1=    9   10    9   10 ; Wght=  0.8666666667  0.1333333333
 cg2d: Sum(rhs),rhsMax =  -2.27373675443232E-13  4.70337694034297E+00
 Computing Diagnostic #    79 "DRHODR  " (list#  1) Parms "SM      LR      ", Count=      10
 Computing Diagnostic #    64 "RHOAnoma" (list#  1) Parms "SMR     MR      ", Count=      10
 Computing Diagnostic #    80 "CONVADJ " (list#  1) Parms "SMR     LR      ", Count=      10
 Computing Diagnostic #   210 "GM_Kwx  " (list#  1) Parms "UM      LR      ", Count=      10
             Vector  Mate for "GM_Kwx  " :  Diagnostic #    211 "GM_Kwy  " exists
 Computing Diagnostic #   211 "GM_Kwy  " (list#  1) Parms "VM      LR      ", Count=      10
             Vector  Mate for "GM_Kwy  " :  Diagnostic #    210 "GM_Kwx  " exists
 Computing Diagnostic #   212 "GM_Kwz  " (list#  1) Parms "WM P    LR      ", Count=      10
 Computing Diagnostic #   213 "GM_PsiX " (list#  1) Parms "UU      LR      ", Count=      10
             Vector  Mate for "GM_PsiX " :  Diagnostic #    214 "GM_PsiY " exists
 Computing Diagnostic #   214 "GM_PsiY " (list#  1) Parms "VV      LR      ", Count=      10
             Vector  Mate for "GM_PsiY " :  Diagnostic #    213 "GM_PsiX " exists
 EXTERNAL_FIELDS_LOAD,       620 : iP,iLd,i0,i1=    9   10    9   10 ; Wght=  0.8333333333  0.1666666667
 cg2d: Sum(rhs),rhsMax =   0.00000000000000E+00  4.70749705067407E+00
 EXTERNAL_FIELDS_LOAD,       621 : iP,iLd,i0,i1=    9   10    9   10 ; Wght=  0.8000000000  0.2000000000
 cg2d: Sum(rhs),rhsMax =  -1.13686837721616E-13  4.71143687121884E+00
 EXTERNAL_FIELDS_LOAD,       622 : iP,iLd,i0,i1=    9   10    9   10 ; Wght=  0.7666666667  0.2333333333
 cg2d: Sum(rhs),rhsMax =  -1.70530256582424E-13  4.71514893498556E+00
 EXTERNAL_FIELDS_LOAD,       623 : iP,iLd,i0,i1=    9   10    9   10 ; Wght=  0.7333333333  0.2666666667
 cg2d: Sum(rhs),rhsMax =  -3.41060513164848E-13  4.71859055358687E+00
 EXTERNAL_FIELDS_LOAD,       624 : iP,iLd,i0,i1=    9   10    9   10 ; Wght=  0.7000000000  0.3000000000
 cg2d: Sum(rhs),rhsMax =  -4.26325641456060E-13  4.72172402684738E+00
 EXTERNAL_FIELDS_LOAD,       625 : iP,iLd,i0,i1=    9   10    9   10 ; Wght=  0.6666666667  0.3333333333
 cg2d: Sum(rhs),rhsMax =  -1.70530256582424E-13  4.72451808028499E+00
 Compute Stats, Diag. #    23 "ETAN    " (list#  1) Parms "SM      M1      ", vol(  0 )= 3.639E+14
 Compute Stats, Diag. #    30 "UVEL    " (list#  1) Parms "UUR     MR      ", vol(  0 )= 1.231E+18
 Compute Stats, Diag. #    31 "VVEL    " (list#  1) Parms "VVR     MR      ", vol(  0 )= 1.243E+18
 Compute Stats, Diag. #    32 "WVEL    " (list#  1) Parms "WM      LR      ", vol(  0 )= 1.315E+18
 Compute Stats, Diag. #    26 "THETA   " (list#  1) Parms "SMR     MR      ", vol(  0 )= 1.340E+18
 EXTERNAL_FIELDS_LOAD,       626 : iP,iLd,i0,i1=    9   10    9   10 ; Wght=  0.6333333333  0.3666666667
 cg2d: Sum(rhs),rhsMax =   0.00000000000000E+00  4.72694775914221E+00
 EXTERNAL_FIELDS_LOAD,       627 : iP,iLd,i0,i1=    9   10    9   10 ; Wght=  0.6000000000  0.4000000000
 cg2d: Sum(rhs),rhsMax =   0.00000000000000E+00  4.72899437721950E+00
 EXTERNAL_FIELDS_LOAD,       628 : iP,iLd,i0,i1=    9   10    9   10 ; Wght=  0.5666666667  0.4333333333
 cg2d: Sum(rhs),rhsMax =  -5.68434188608080E-14  4.73064803569253E+00
 EXTERNAL_FIELDS_LOAD,       629 : iP,iLd,i0,i1=    9   10    9   10 ; Wght=  0.5333333333  0.4666666667
 cg2d: Sum(rhs),rhsMax =  -5.68434188608080E-14  4.73190829837987E+00
(PID.TID 0000.0001)      cg2d_init_res =   1.82736467046645E-01
(PID.TID 0000.0001)      cg2d_iters(min,last) =      -1      61
(PID.TID 0000.0001)      cg2d_last_res =   5.32809376055964E-07
(PID.TID 0000.0001) // =======================================================
(PID.TID 0000.0001) // Begin MONITOR dynamic field statistics
(PID.TID 0000.0001) // =======================================================
(PID.TID 0000.0001) %MON time_tsnumber                =                   630
(PID.TID 0000.0001) %MON time_secondsf                =   5.4432000000000E+07
(PID.TID 0000.0001) %MON dynstat_eta_max              =   1.0259220326989E+00
(PID.TID 0000.0001) %MON dynstat_eta_min              =  -1.8746292481056E+00
(PID.TID 0000.0001) %MON dynstat_eta_mean             =   8.2443235511784E-17
(PID.TID 0000.0001) %MON dynstat_eta_sd               =   6.3662167956289E-01
(PID.TID 0000.0001) %MON dynstat_eta_del2             =   8.1314180044320E-04
(PID.TID 0000.0001) %MON dynstat_uvel_max             =   2.7749925134567E-01
(PID.TID 0000.0001) %MON dynstat_uvel_min             =  -2.6287320857456E-01
(PID.TID 0000.0001) %MON dynstat_uvel_mean            =  -5.3247339424053E-04
(PID.TID 0000.0001) %MON dynstat_uvel_sd              =   1.3003944321017E-02
(PID.TID 0000.0001) %MON dynstat_uvel_del2            =   5.4465068780453E-05
(PID.TID 0000.0001) %MON dynstat_vvel_max             =   3.1354500763372E-01
(PID.TID 0000.0001) %MON dynstat_vvel_min             =  -2.5765803855898E-01
(PID.TID 0000.0001) %MON dynstat_vvel_mean            =  -4.1694360546995E-04
(PID.TID 0000.0001) %MON dynstat_vvel_sd              =   1.3360834528796E-02
(PID.TID 0000.0001) %MON dynstat_vvel_del2            =   5.5483719115387E-05
(PID.TID 0000.0001) %MON dynstat_wvel_max             =   1.0035266713489E-04
(PID.TID 0000.0001) %MON dynstat_wvel_min             =  -2.0995313341361E-04
(PID.TID 0000.0001) %MON dynstat_wvel_mean            =  -9.2832497753116E-23
(PID.TID 0000.0001) %MON dynstat_wvel_sd              =   4.7668719804568E-06
(PID.TID 0000.0001) %MON dynstat_wvel_del2            =   3.3420269711176E-08
(PID.TID 0000.0001) %MON dynstat_theta_max            =   3.2426538794659E+01
(PID.TID 0000.0001) %MON dynstat_theta_min            =  -6.8114153142868E+00
(PID.TID 0000.0001) %MON dynstat_theta_mean           =   3.6043239539013E+00
(PID.TID 0000.0001) %MON dynstat_theta_sd             =   4.4247545254923E+00
(PID.TID 0000.0001) %MON dynstat_theta_del2           =   2.8988673119476E-03
(PID.TID 0000.0001) %MON dynstat_salt_max             =   4.0763305555733E+01
(PID.TID 0000.0001) %MON dynstat_salt_min             =   1.8568759940432E+01
(PID.TID 0000.0001) %MON dynstat_salt_mean            =   3.4721086373911E+01
(PID.TID 0000.0001) %MON dynstat_salt_sd              =   4.9430309299640E-01
(PID.TID 0000.0001) %MON dynstat_salt_del2            =   9.2110447768952E-04
(PID.TID 0000.0001) %MON forcing_qnet_max             =   1.7226335228087E+02
(PID.TID 0000.0001) %MON forcing_qnet_min             =  -1.2167347573012E+02
(PID.TID 0000.0001) %MON forcing_qnet_mean            =  -5.4581290897012E+00
(PID.TID 0000.0001) %MON forcing_qnet_sd              =   4.6003165005274E+01
(PID.TID 0000.0001) %MON forcing_qnet_del2            =   3.6665444476665E-01
(PID.TID 0000.0001) %MON forcing_qsw_max              =   0.0000000000000E+00
(PID.TID 0000.0001) %MON forcing_qsw_min              =   0.0000000000000E+00
(PID.TID 0000.0001) %MON forcing_qsw_mean             =   0.0000000000000E+00
(PID.TID 0000.0001) %MON forcing_qsw_sd               =   0.0000000000000E+00
(PID.TID 0000.0001) %MON forcing_qsw_del2             =   0.0000000000000E+00
(PID.TID 0000.0001) %MON forcing_empmr_max            =   7.6494447208479E-05
(PID.TID 0000.0001) %MON forcing_empmr_min            =  -1.5362614137596E-04
(PID.TID 0000.0001) %MON forcing_empmr_mean           =  -2.7256318706594E-21
(PID.TID 0000.0001) %MON forcing_empmr_sd             =   2.4051723601802E-05
(PID.TID 0000.0001) %MON forcing_empmr_del2           =   1.2276157049243E-07
(PID.TID 0000.0001) %MON forcing_fu_max               =   3.2743992123322E-01
(PID.TID 0000.0001) %MON forcing_fu_min               =  -2.8385275945570E-01
(PID.TID 0000.0001) %MON forcing_fu_mean              =  -4.6229742049373E-03
(PID.TID 0000.0001) %MON forcing_fu_sd                =   7.7186806088874E-02
(PID.TID 0000.0001) %MON forcing_fu_del2              =   2.0806739202098E-04
(PID.TID 0000.0001) %MON forcing_fv_max               =   2.4905121089957E-01
(PID.TID 0000.0001) %MON forcing_fv_min               =  -3.3699518760212E-01
(PID.TID 0000.0001) %MON forcing_fv_mean              =  -8.2032430591580E-03
(PID.TID 0000.0001) %MON forcing_fv_sd                =   7.5566589024491E-02
(PID.TID 0000.0001) %MON forcing_fv_del2              =   2.1186363648930E-04
(PID.TID 0000.0001) %MON trAdv_CFL_u_max              =   9.9301547241505E-02
(PID.TID 0000.0001) %MON trAdv_CFL_v_max              =   8.9905280249435E-02
(PID.TID 0000.0001) %MON trAdv_CFL_w_max              =   1.0224871699811E-01
(PID.TID 0000.0001) %MON advcfl_uvel_max              =   8.0749353937765E-02
(PID.TID 0000.0001) %MON advcfl_vvel_max              =   9.0139137644766E-02
(PID.TID 0000.0001) %MON advcfl_wvel_max              =   6.8452644252587E-02
(PID.TID 0000.0001) %MON advcfl_W_hf_max              =   7.5583128028898E-02
(PID.TID 0000.0001) %MON pe_b_mean                    =   5.3991739645213E-04
(PID.TID 0000.0001) %MON ke_max                       =   6.3691127386073E-02
(PID.TID 0000.0001) %MON ke_mean                      =   1.6071816014315E-04
(PID.TID 0000.0001) %MON ke_vol                       =   1.3398024453628E+18
(PID.TID 0000.0001) %MON vort_r_min                   =  -1.0197006395828E-06
(PID.TID 0000.0001) %MON vort_r_max                   =   1.8413189885832E-06
(PID.TID 0000.0001) %MON vort_a_mean                  =  -2.0549865324846E-05
(PID.TID 0000.0001) %MON vort_a_sd                    =   7.5259644505979E-05
(PID.TID 0000.0001) %MON vort_p_mean                  =  -2.4783522345032E-05
(PID.TID 0000.0001) %MON vort_p_sd                    =   1.2810678125354E-04
(PID.TID 0000.0001) %MON surfExpan_theta_mean         =   4.0795609831016E-08
(PID.TID 0000.0001) %MON surfExpan_salt_mean          =   1.6838298518199E-08
(PID.TID 0000.0001) // =======================================================
(PID.TID 0000.0001) // End MONITOR dynamic field statistics
(PID.TID 0000.0001) // =======================================================
(PID.TID 0000.0001) // =======================================================
(PID.TID 0000.0001) // Begin MONITOR ptracer field statistics
(PID.TID 0000.0001) // =======================================================
(PID.TID 0000.0001) %MON trcstat_ptracer01_max        =   5.6394877378210E+07
(PID.TID 0000.0001) %MON trcstat_ptracer01_min        =  -5.8977735561854E+06
(PID.TID 0000.0001) %MON trcstat_ptracer01_mean       =   5.2972051988844E+07
(PID.TID 0000.0001) %MON trcstat_ptracer01_sd         =   7.0975433411648E+06
(PID.TID 0000.0001) %MON trcstat_ptracer01_del2       =   1.8607346707545E+04
(PID.TID 0000.0001) // =======================================================
(PID.TID 0000.0001) // End MONITOR ptracer field statistics
(PID.TID 0000.0001) // =======================================================
 Computing Diagnostic #    79 "DRHODR  " (list#  1) Parms "SM      LR      ", Count=      10
 Computing Diagnostic #    64 "RHOAnoma" (list#  1) Parms "SMR     MR      ", Count=      10
 Computing Diagnostic #    80 "CONVADJ " (list#  1) Parms "SMR     LR      ", Count=      10
 Computing Diagnostic #   210 "GM_Kwx  " (list#  1) Parms "UM      LR      ", Count=      10
             Vector  Mate for "GM_Kwx  " :  Diagnostic #    211 "GM_Kwy  " exists
 Computing Diagnostic #   211 "GM_Kwy  " (list#  1) Parms "VM      LR      ", Count=      10
             Vector  Mate for "GM_Kwy  " :  Diagnostic #    210 "GM_Kwx  " exists
 Computing Diagnostic #   212 "GM_Kwz  " (list#  1) Parms "WM P    LR      ", Count=      10
 Computing Diagnostic #   213 "GM_PsiX " (list#  1) Parms "UU      LR      ", Count=      10
             Vector  Mate for "GM_PsiX " :  Diagnostic #    214 "GM_PsiY " exists
 Computing Diagnostic #   214 "GM_PsiY " (list#  1) Parms "VV      LR      ", Count=      10
             Vector  Mate for "GM_PsiY " :  Diagnostic #    213 "GM_PsiX " exists
 EXTERNAL_FIELDS_LOAD,       630 : iP,iLd,i0,i1=    9   10    9   10 ; Wght=  0.5000000000  0.5000000000
 cg2d: Sum(rhs),rhsMax =  -2.84217094304040E-13  4.73278775560175E+00
 EXTERNAL_FIELDS_LOAD,       631 : iP,iLd,i0,i1=    9   10    9   10 ; Wght=  0.4666666667  0.5333333333
 cg2d: Sum(rhs),rhsMax =  -3.41060513164848E-13  4.73329131605777E+00
 EXTERNAL_FIELDS_LOAD,       632 : iP,iLd,i0,i1=    9   10    9   10 ; Wght=  0.4333333333  0.5666666667
 cg2d: Sum(rhs),rhsMax =  -5.68434188608080E-14  4.73343935128560E+00
 EXTERNAL_FIELDS_LOAD,       633 : iP,iLd,i0,i1=    9   10    9   10 ; Wght=  0.4000000000  0.6000000000
 cg2d: Sum(rhs),rhsMax =   8.52651282912120E-14  4.73325772188214E+00
 EXTERNAL_FIELDS_LOAD,       634 : iP,iLd,i0,i1=    9   10    9   10 ; Wght=  0.3666666667  0.6333333333
 cg2d: Sum(rhs),rhsMax =  -1.98951966012828E-13  4.73277173732456E+00
 EXTERNAL_FIELDS_LOAD,       635 : iP,iLd,i0,i1=    9   10    9   10 ; Wght=  0.3333333333  0.6666666667
 cg2d: Sum(rhs),rhsMax =  -2.84217094304040E-13  4.73200210467997E+00
 Compute Stats, Diag. #    23 "ETAN    " (list#  1) Parms "SM      M1      ", vol(  0 )= 3.639E+14
 Compute Stats, Diag. #    30 "UVEL    " (list#  1) Parms "UUR     MR      ", vol(  0 )= 1.231E+18
 Compute Stats, Diag. #    31 "VVEL    " (list#  1) Parms "VVR     MR      ", vol(  0 )= 1.243E+18
 Compute Stats, Diag. #    32 "WVEL    " (list#  1) Parms "WM      LR      ", vol(  0 )= 1.315E+18
 Compute Stats, Diag. #    26 "THETA   " (list#  1) Parms "SMR     MR      ", vol(  0 )= 1.340E+18
 EXTERNAL_FIELDS_LOAD,       636 : iP,iLd,i0,i1=    9   10    9   10 ; Wght=  0.3000000000  0.7000000000
 cg2d: Sum(rhs),rhsMax =  -1.13686837721616E-13  4.73091298953861E+00
 EXTERNAL_FIELDS_LOAD,       637 : iP,iLd,i0,i1=    9   10    9   10 ; Wght=  0.2666666667  0.7333333333
 cg2d: Sum(rhs),rhsMax =  -3.97903932025656E-13  4.72959007984412E+00
 EXTERNAL_FIELDS_LOAD,       638 : iP,iLd,i0,i1=    9   10    9   10 ; Wght=  0.2333333333  0.7666666667
 cg2d: Sum(rhs),rhsMax =  -2.84217094304040E-13  4.72827576481125E+00
 EXTERNAL_FIELDS_LOAD,       639 : iP,iLd,i0,i1=    9   10    9   10 ; Wght=  0.2000000000  0.8000000000
 cg2d: Sum(rhs),rhsMax =   1.42108547152020E-13  4.72708139162963E+00
 Computing Diagnostic #    79 "DRHODR  " (list#  1) Parms "SM      LR      ", Count=      10
 Computing Diagnostic #    64 "RHOAnoma" (list#  1) Parms "SMR     MR      ", Count=      10
 Computing Diagnostic #    80 "CONVADJ " (list#  1) Parms "SMR     LR      ", Count=      10
 Computing Diagnostic #   210 "GM_Kwx  " (list#  1) Parms "UM      LR      ", Count=      10
             Vector  Mate for "GM_Kwx  " :  Diagnostic #    211 "GM_Kwy  " exists
 Computing Diagnostic #   211 "GM_Kwy  " (list#  1) Parms "VM      LR      ", Count=      10
             Vector  Mate for "GM_Kwy  " :  Diagnostic #    210 "GM_Kwx  " exists
 Computing Diagnostic #   212 "GM_Kwz  " (list#  1) Parms "WM P    LR      ", Count=      10
 Computing Diagnostic #   213 "GM_PsiX " (list#  1) Parms "UU      LR      ", Count=      10
             Vector  Mate for "GM_PsiX " :  Diagnostic #    214 "GM_PsiY " exists
 Computing Diagnostic #   214 "GM_PsiY " (list#  1) Parms "VV      LR      ", Count=      10
             Vector  Mate for "GM_PsiY " :  Diagnostic #    213 "GM_PsiX " exists
 EXTERNAL_FIELDS_LOAD,       640 : iP,iLd,i0,i1=    9   10    9   10 ; Wght=  0.1666666667  0.8333333333
 cg2d: Sum(rhs),rhsMax =  -1.70530256582424E-13  4.72576439577484E+00
 EXTERNAL_FIELDS_LOAD,       641 : iP,iLd,i0,i1=    9   10    9   10 ; Wght=  0.1333333333  0.8666666667
 cg2d: Sum(rhs),rhsMax =  -2.27373675443232E-13  4.72436446577284E+00
 EXTERNAL_FIELDS_LOAD,       642 : iP,iLd,i0,i1=    9   10    9   10 ; Wght=  0.1000000000  0.9000000000
 cg2d: Sum(rhs),rhsMax =  -3.69482222595252E-13  4.72296187591424E+00
 EXTERNAL_FIELDS_LOAD,       643 : iP,iLd,i0,i1=    9   10    9   10 ; Wght=  0.0666666667  0.9333333333
 cg2d: Sum(rhs),rhsMax =  -1.98951966012828E-13  4.72165943539444E+00
 EXTERNAL_FIELDS_LOAD,       644 : iP,iLd,i0,i1=    9   10    9   10 ; Wght=  0.0333333333  0.9666666667
 cg2d: Sum(rhs),rhsMax =  -5.11590769747272E-13  4.72046685351406E+00
 EXTERNAL_FIELDS_LOAD,       645 : iP,iLd,i0,i1=    9   10   10   11 ; Wght=  1.0000000000  0.0000000000
 EXTERNAL_FIELDS_LOAD, it=       645 : Reading new data, i0,i1=   10   11 (prev=    9   10 )
(PID.TID 0000.0001)  MDS_READ_FIELD: opening global file: trenberth_taux.bin
(PID.TID 0000.0001)  MDS_READ_FIELD: opening global file: trenberth_taux.bin
(PID.TID 0000.0001)  MDS_READ_FIELD: opening global file: trenberth_tauy.bin
(PID.TID 0000.0001)  MDS_READ_FIELD: opening global file: trenberth_tauy.bin
(PID.TID 0000.0001)  MDS_READ_FIELD: opening global file: shiQnet_cs32.bin
(PID.TID 0000.0001)  MDS_READ_FIELD: opening global file: shiQnet_cs32.bin
(PID.TID 0000.0001)  MDS_READ_FIELD: opening global file: shiEmPR_cs32.bin
(PID.TID 0000.0001)  MDS_READ_FIELD: opening global file: shiEmPR_cs32.bin
(PID.TID 0000.0001)  MDS_READ_FIELD: opening global file: lev_surfT_cs_12m.bin
(PID.TID 0000.0001)  MDS_READ_FIELD: opening global file: lev_surfT_cs_12m.bin
(PID.TID 0000.0001)  MDS_READ_FIELD: opening global file: lev_surfS_cs_12m.bin
(PID.TID 0000.0001)  MDS_READ_FIELD: opening global file: lev_surfS_cs_12m.bin
 cg2d: Sum(rhs),rhsMax =  -1.13686837721616E-13  4.71943319327918E+00
 Compute Stats, Diag. #    23 "ETAN    " (list#  1) Parms "SM      M1      ", vol(  0 )= 3.639E+14
 Compute Stats, Diag. #    30 "UVEL    " (list#  1) Parms "UUR     MR      ", vol(  0 )= 1.231E+18
 Compute Stats, Diag. #    31 "VVEL    " (list#  1) Parms "VVR     MR      ", vol(  0 )= 1.243E+18
 Compute Stats, Diag. #    32 "WVEL    " (list#  1) Parms "WM      LR      ", vol(  0 )= 1.315E+18
 Compute Stats, Diag. #    26 "THETA   " (list#  1) Parms "SMR     MR      ", vol(  0 )= 1.340E+18
 EXTERNAL_FIELDS_LOAD,       646 : iP,iLd,i0,i1=   10   11   10   11 ; Wght=  0.9666666667  0.0333333333
 cg2d: Sum(rhs),rhsMax =  -2.55795384873636E-13  4.71855161202800E+00
 EXTERNAL_FIELDS_LOAD,       647 : iP,iLd,i0,i1=   10   11   10   11 ; Wght=  0.9333333333  0.0666666667
 cg2d: Sum(rhs),rhsMax =  -1.70530256582424E-13  4.71781379667926E+00
 EXTERNAL_FIELDS_LOAD,       648 : iP,iLd,i0,i1=   10   11   10   11 ; Wght=  0.9000000000  0.1000000000
 cg2d: Sum(rhs),rhsMax =  -3.97903932025656E-13  4.71724615199076E+00
 EXTERNAL_FIELDS_LOAD,       649 : iP,iLd,i0,i1=   10   11   10   11 ; Wght=  0.8666666667  0.1333333333
 cg2d: Sum(rhs),rhsMax =  -5.68434188608080E-14  4.71686826292044E+00
 Computing Diagnostic #    79 "DRHODR  " (list#  1) Parms "SM      LR      ", Count=      10
 Computing Diagnostic #    64 "RHOAnoma" (list#  1) Parms "SMR     MR      ", Count=      10
 Computing Diagnostic #    80 "CONVADJ " (list#  1) Parms "SMR     LR      ", Count=      10
 Computing Diagnostic #   210 "GM_Kwx  " (list#  1) Parms "UM      LR      ", Count=      10
             Vector  Mate for "GM_Kwx  " :  Diagnostic #    211 "GM_Kwy  " exists
 Computing Diagnostic #   211 "GM_Kwy  " (list#  1) Parms "VM      LR      ", Count=      10
             Vector  Mate for "GM_Kwy  " :  Diagnostic #    210 "GM_Kwx  " exists
 Computing Diagnostic #   212 "GM_Kwz  " (list#  1) Parms "WM P    LR      ", Count=      10
 Computing Diagnostic #   213 "GM_PsiX " (list#  1) Parms "UU      LR      ", Count=      10
             Vector  Mate for "GM_PsiX " :  Diagnostic #    214 "GM_PsiY " exists
 Computing Diagnostic #   214 "GM_PsiY " (list#  1) Parms "VV      LR      ", Count=      10
             Vector  Mate for "GM_PsiY " :  Diagnostic #    213 "GM_PsiX " exists
 EXTERNAL_FIELDS_LOAD,       650 : iP,iLd,i0,i1=   10   11   10   11 ; Wght=  0.8333333333  0.1666666667
 cg2d: Sum(rhs),rhsMax =  -8.52651282912120E-14  4.71668830603769E+00
 EXTERNAL_FIELDS_LOAD,       651 : iP,iLd,i0,i1=   10   11   10   11 ; Wght=  0.8000000000  0.2000000000
 cg2d: Sum(rhs),rhsMax =  -1.13686837721616E-13  4.71670829864235E+00
 EXTERNAL_FIELDS_LOAD,       652 : iP,iLd,i0,i1=   10   11   10   11 ; Wght=  0.7666666667  0.2333333333
 cg2d: Sum(rhs),rhsMax =  -1.98951966012828E-13  4.71692331234626E+00
 EXTERNAL_FIELDS_LOAD,       653 : iP,iLd,i0,i1=   10   11   10   11 ; Wght=  0.7333333333  0.2666666667
 cg2d: Sum(rhs),rhsMax =   1.70530256582424E-13  4.71732225849156E+00
 EXTERNAL_FIELDS_LOAD,       654 : iP,iLd,i0,i1=   10   11   10   11 ; Wght=  0.7000000000  0.3000000000
 cg2d: Sum(rhs),rhsMax =  -1.13686837721616E-13  4.71788877516872E+00
 EXTERNAL_FIELDS_LOAD,       655 : iP,iLd,i0,i1=   10   11   10   11 ; Wght=  0.6666666667  0.3333333333
 cg2d: Sum(rhs),rhsMax =  -1.13686837721616E-13  4.71860207349091E+00
 Compute Stats, Diag. #    23 "ETAN    " (list#  1) Parms "SM      M1      ", vol(  0 )= 3.639E+14
 Compute Stats, Diag. #    30 "UVEL    " (list#  1) Parms "UUR     MR      ", vol(  0 )= 1.231E+18
 Compute Stats, Diag. #    31 "VVEL    " (list#  1) Parms "VVR     MR      ", vol(  0 )= 1.243E+18
 Compute Stats, Diag. #    32 "WVEL    " (list#  1) Parms "WM      LR      ", vol(  0 )= 1.315E+18
 Compute Stats, Diag. #    26 "THETA   " (list#  1) Parms "SMR     MR      ", vol(  0 )= 1.340E+18
 EXTERNAL_FIELDS_LOAD,       656 : iP,iLd,i0,i1=   10   11   10   11 ; Wght=  0.6333333333  0.3666666667
 cg2d: Sum(rhs),rhsMax =  -1.70530256582424E-13  4.71943780307659E+00
 EXTERNAL_FIELDS_LOAD,       657 : iP,iLd,i0,i1=   10   11   10   11 ; Wght=  0.6000000000  0.4000000000
 cg2d: Sum(rhs),rhsMax =  -8.52651282912120E-14  4.72036887129785E+00
 EXTERNAL_FIELDS_LOAD,       658 : iP,iLd,i0,i1=   10   11   10   11 ; Wght=  0.5666666667  0.4333333333
 cg2d: Sum(rhs),rhsMax =  -5.68434188608080E-14  4.72136627460397E+00
 EXTERNAL_FIELDS_LOAD,       659 : iP,iLd,i0,i1=   10   11   10   11 ; Wght=  0.5333333333  0.4666666667
 cg2d: Sum(rhs),rhsMax =  -1.42108547152020E-13  4.72239989154983E+00
(PID.TID 0000.0001)      cg2d_init_res =   1.75952296633599E-01
(PID.TID 0000.0001)      cg2d_iters(min,last) =      -1      63
(PID.TID 0000.0001)      cg2d_last_res =   4.69191028065336E-07
(PID.TID 0000.0001) // =======================================================
(PID.TID 0000.0001) // Begin MONITOR dynamic field statistics
(PID.TID 0000.0001) // =======================================================
(PID.TID 0000.0001) %MON time_tsnumber                =                   660
(PID.TID 0000.0001) %MON time_secondsf                =   5.7024000000000E+07
(PID.TID 0000.0001) %MON dynstat_eta_max              =   9.9919514762819E-01
(PID.TID 0000.0001) %MON dynstat_eta_min              =  -1.8693901403635E+00
(PID.TID 0000.0001) %MON dynstat_eta_mean             =   3.2977294204714E-16
(PID.TID 0000.0001) %MON dynstat_eta_sd               =   6.3568155248469E-01
(PID.TID 0000.0001) %MON dynstat_eta_del2             =   8.1410490416884E-04
(PID.TID 0000.0001) %MON dynstat_uvel_max             =   1.8457267620613E-01
(PID.TID 0000.0001) %MON dynstat_uvel_min             =  -2.7377638467514E-01
(PID.TID 0000.0001) %MON dynstat_uvel_mean            =  -5.3244130434680E-04
(PID.TID 0000.0001) %MON dynstat_uvel_sd              =   1.2890136785193E-02
(PID.TID 0000.0001) %MON dynstat_uvel_del2            =   5.4248656814508E-05
(PID.TID 0000.0001) %MON dynstat_vvel_max             =   2.0464462810244E-01
(PID.TID 0000.0001) %MON dynstat_vvel_min             =  -2.3108499652385E-01
(PID.TID 0000.0001) %MON dynstat_vvel_mean            =  -4.2177652930971E-04
(PID.TID 0000.0001) %MON dynstat_vvel_sd              =   1.3145381355499E-02
(PID.TID 0000.0001) %MON dynstat_vvel_del2            =   5.5223200933867E-05
(PID.TID 0000.0001) %MON dynstat_wvel_max             =   1.1186210528967E-04
(PID.TID 0000.0001) %MON dynstat_wvel_min             =  -2.1121508377323E-04
(PID.TID 0000.0001) %MON dynstat_wvel_mean            =   1.3344671552010E-22
(PID.TID 0000.0001) %MON dynstat_wvel_sd              =   4.4072403370584E-06
(PID.TID 0000.0001) %MON dynstat_wvel_del2            =   3.3182720345538E-08
(PID.TID 0000.0001) %MON dynstat_theta_max            =   3.1329265647841E+01
(PID.TID 0000.0001) %MON dynstat_theta_min            =  -6.7669462757453E+00
(PID.TID 0000.0001) %MON dynstat_theta_mean           =   3.6052385786006E+00
(PID.TID 0000.0001) %MON dynstat_theta_sd             =   4.4250694638108E+00
(PID.TID 0000.0001) %MON dynstat_theta_del2           =   2.8435930404414E-03
(PID.TID 0000.0001) %MON dynstat_salt_max             =   4.0789350053883E+01
(PID.TID 0000.0001) %MON dynstat_salt_min             =   1.8579854430189E+01
(PID.TID 0000.0001) %MON dynstat_salt_mean            =   3.4721073913923E+01
(PID.TID 0000.0001) %MON dynstat_salt_sd              =   4.9460524901881E-01
(PID.TID 0000.0001) %MON dynstat_salt_del2            =   9.1591312508669E-04
(PID.TID 0000.0001) %MON forcing_qnet_max             =   2.9793704503360E+02
(PID.TID 0000.0001) %MON forcing_qnet_min             =  -1.5960049763274E+02
(PID.TID 0000.0001) %MON forcing_qnet_mean            =  -9.1500673756630E+00
(PID.TID 0000.0001) %MON forcing_qnet_sd              =   7.6297913186258E+01
(PID.TID 0000.0001) %MON forcing_qnet_del2            =   3.7237364511610E-01
(PID.TID 0000.0001) %MON forcing_qsw_max              =   0.0000000000000E+00
(PID.TID 0000.0001) %MON forcing_qsw_min              =   0.0000000000000E+00
(PID.TID 0000.0001) %MON forcing_qsw_mean             =   0.0000000000000E+00
(PID.TID 0000.0001) %MON forcing_qsw_sd               =   0.0000000000000E+00
(PID.TID 0000.0001) %MON forcing_qsw_del2             =   0.0000000000000E+00
(PID.TID 0000.0001) %MON forcing_empmr_max            =   7.6494447208479E-05
(PID.TID 0000.0001) %MON forcing_empmr_min            =  -1.5362614137596E-04
(PID.TID 0000.0001) %MON forcing_empmr_mean           =  -2.7256318706594E-21
(PID.TID 0000.0001) %MON forcing_empmr_sd             =   2.4051723601802E-05
(PID.TID 0000.0001) %MON forcing_empmr_del2           =   1.2276157049243E-07
(PID.TID 0000.0001) %MON forcing_fu_max               =   2.6915244895338E-01
(PID.TID 0000.0001) %MON forcing_fu_min               =  -2.7782947882907E-01
(PID.TID 0000.0001) %MON forcing_fu_mean              =  -6.4828803941406E-03
(PID.TID 0000.0001) %MON forcing_fu_sd                =   7.2811021444024E-02
(PID.TID 0000.0001) %MON forcing_fu_del2              =   1.9167538037379E-04
(PID.TID 0000.0001) %MON forcing_fv_max               =   2.2045225648718E-01
(PID.TID 0000.0001) %MON forcing_fv_min               =  -3.0184930756779E-01
(PID.TID 0000.0001) %MON forcing_fv_mean              =  -9.4338065170268E-03
(PID.TID 0000.0001) %MON forcing_fv_sd                =   7.6063126012394E-02
(PID.TID 0000.0001) %MON forcing_fv_del2              =   2.0735338434629E-04
(PID.TID 0000.0001) %MON trAdv_CFL_u_max              =   8.0094816818397E-02
(PID.TID 0000.0001) %MON trAdv_CFL_v_max              =   1.0609382427943E-01
(PID.TID 0000.0001) %MON trAdv_CFL_w_max              =   9.3174477804292E-02
(PID.TID 0000.0001) %MON advcfl_uvel_max              =   7.7648175872285E-02
(PID.TID 0000.0001) %MON advcfl_vvel_max              =   7.5001527816068E-02
(PID.TID 0000.0001) %MON advcfl_wvel_max              =   6.8864087690592E-02
(PID.TID 0000.0001) %MON advcfl_W_hf_max              =   7.6037430158362E-02
(PID.TID 0000.0001) %MON pe_b_mean                    =   5.3832393462137E-04
(PID.TID 0000.0001) %MON ke_max                       =   3.8762387049488E-02
(PID.TID 0000.0001) %MON ke_mean                      =   1.5671615146977E-04
(PID.TID 0000.0001) %MON ke_vol                       =   1.3398024453628E+18
(PID.TID 0000.0001) %MON vort_r_min                   =  -9.4628301424982E-07
(PID.TID 0000.0001) %MON vort_r_max                   =   1.3480838960611E-06
(PID.TID 0000.0001) %MON vort_a_mean                  =  -2.0549865324846E-05
(PID.TID 0000.0001) %MON vort_a_sd                    =   7.5259642380644E-05
(PID.TID 0000.0001) %MON vort_p_mean                  =  -2.4783522345032E-05
(PID.TID 0000.0001) %MON vort_p_sd                    =   1.2810675562839E-04
(PID.TID 0000.0001) %MON surfExpan_theta_mean         =   3.8578155838645E-08
(PID.TID 0000.0001) %MON surfExpan_salt_mean          =   1.6269729654279E-08
(PID.TID 0000.0001) // =======================================================
(PID.TID 0000.0001) // End MONITOR dynamic field statistics
(PID.TID 0000.0001) // =======================================================
(PID.TID 0000.0001) // =======================================================
(PID.TID 0000.0001) // Begin MONITOR ptracer field statistics
(PID.TID 0000.0001) // =======================================================
(PID.TID 0000.0001) %MON trcstat_ptracer01_max        =   5.9144762806397E+07
(PID.TID 0000.0001) %MON trcstat_ptracer01_min        =  -6.1025127417310E+06
(PID.TID 0000.0001) %MON trcstat_ptracer01_mean       =   5.5460360335890E+07
(PID.TID 0000.0001) %MON trcstat_ptracer01_sd         =   7.5306671164805E+06
(PID.TID 0000.0001) %MON trcstat_ptracer01_del2       =   1.7655082299704E+04
(PID.TID 0000.0001) // =======================================================
(PID.TID 0000.0001) // End MONITOR ptracer field statistics
(PID.TID 0000.0001) // =======================================================
 Computing Diagnostic #    79 "DRHODR  " (list#  1) Parms "SM      LR      ", Count=      10
 Computing Diagnostic #    64 "RHOAnoma" (list#  1) Parms "SMR     MR      ", Count=      10
 Computing Diagnostic #    80 "CONVADJ " (list#  1) Parms "SMR     LR      ", Count=      10
 Computing Diagnostic #   210 "GM_Kwx  " (list#  1) Parms "UM      LR      ", Count=      10
             Vector  Mate for "GM_Kwx  " :  Diagnostic #    211 "GM_Kwy  " exists
 Computing Diagnostic #   211 "GM_Kwy  " (list#  1) Parms "VM      LR      ", Count=      10
             Vector  Mate for "GM_Kwy  " :  Diagnostic #    210 "GM_Kwx  " exists
 Computing Diagnostic #   212 "GM_Kwz  " (list#  1) Parms "WM P    LR      ", Count=      10
 Computing Diagnostic #   213 "GM_PsiX " (list#  1) Parms "UU      LR      ", Count=      10
             Vector  Mate for "GM_PsiX " :  Diagnostic #    214 "GM_PsiY " exists
 Computing Diagnostic #   214 "GM_PsiY " (list#  1) Parms "VV      LR      ", Count=      10
             Vector  Mate for "GM_PsiY " :  Diagnostic #    213 "GM_PsiX " exists
 EXTERNAL_FIELDS_LOAD,       660 : iP,iLd,i0,i1=   10   11   10   11 ; Wght=  0.5000000000  0.5000000000
 cg2d: Sum(rhs),rhsMax =  -2.84217094304040E-13  4.72343938227498E+00
 EXTERNAL_FIELDS_LOAD,       661 : iP,iLd,i0,i1=   10   11   10   11 ; Wght=  0.4666666667  0.5333333333
 cg2d: Sum(rhs),rhsMax =   1.70530256582424E-13  4.72445480932494E+00
 EXTERNAL_FIELDS_LOAD,       662 : iP,iLd,i0,i1=   10   11   10   11 ; Wght=  0.4333333333  0.5666666667
 cg2d: Sum(rhs),rhsMax =  -8.52651282912120E-14  4.72541755375352E+00
 EXTERNAL_FIELDS_LOAD,       663 : iP,iLd,i0,i1=   10   11   10   11 ; Wght=  0.4000000000  0.6000000000
 cg2d: Sum(rhs),rhsMax =  -8.52651282912120E-14  4.72630102555966E+00
 EXTERNAL_FIELDS_LOAD,       664 : iP,iLd,i0,i1=   10   11   10   11 ; Wght=  0.3666666667  0.6333333333
 cg2d: Sum(rhs),rhsMax =  -2.55795384873636E-13  4.72708126259891E+00
 EXTERNAL_FIELDS_LOAD,       665 : iP,iLd,i0,i1=   10   11   10   11 ; Wght=  0.3333333333  0.6666666667
 cg2d: Sum(rhs),rhsMax =  -2.84217094304040E-14  4.72773752630788E+00
 Compute Stats, Diag. #    23 "ETAN    " (list#  1) Parms "SM      M1      ", vol(  0 )= 3.639E+14
 Compute Stats, Diag. #    30 "UVEL    " (list#  1) Parms "UUR     MR      ", vol(  0 )= 1.231E+18
 Compute Stats, Diag. #    31 "VVEL    " (list#  1) Parms "VVR     MR      ", vol(  0 )= 1.243E+18
 Compute Stats, Diag. #    32 "WVEL    " (list#  1) Parms "WM      LR      ", vol(  0 )= 1.315E+18
 Compute Stats, Diag. #    26 "THETA   " (list#  1) Parms "SMR     MR      ", vol(  0 )= 1.340E+18
 EXTERNAL_FIELDS_LOAD,       666 : iP,iLd,i0,i1=   10   11   10   11 ; Wght=  0.3000000000  0.7000000000
 cg2d: Sum(rhs),rhsMax =   1.70530256582424E-13  4.72825290893340E+00
 EXTERNAL_FIELDS_LOAD,       667 : iP,iLd,i0,i1=   10   11   10   11 ; Wght=  0.2666666667  0.7333333333
 cg2d: Sum(rhs),rhsMax =  -1.13686837721616E-13  4.72861478981325E+00
 EXTERNAL_FIELDS_LOAD,       668 : iP,iLd,i0,i1=   10   11   10   11 ; Wght=  0.2333333333  0.7666666667
 cg2d: Sum(rhs),rhsMax =  -3.69482222595252E-13  4.72881508787850E+00
 EXTERNAL_FIELDS_LOAD,       669 : iP,iLd,i0,i1=   10   11   10   11 ; Wght=  0.2000000000  0.8000000000
 cg2d: Sum(rhs),rhsMax =  -1.98951966012828E-13  4.72885042327158E+00
 Computing Diagnostic #    79 "DRHODR  " (list#  1) Parms "SM      LR      ", Count=      10
 Computing Diagnostic #    64 "RHOAnoma" (list#  1) Parms "SMR     MR      ", Count=      10
 Computing Diagnostic #    80 "CONVADJ " (list#  1) Parms "SMR     LR      ", Count=      10
 Computing Diagnostic #   210 "GM_Kwx  " (list#  1) Parms "UM      LR      ", Count=      10
             Vector  Mate for "GM_Kwx  " :  Diagnostic #    211 "GM_Kwy  " exists
 Computing Diagnostic #   211 "GM_Kwy  " (list#  1) Parms "VM      LR      ", Count=      10
             Vector  Mate for "GM_Kwy  " :  Diagnostic #    210 "GM_Kwx  " exists
 Computing Diagnostic #   212 "GM_Kwz  " (list#  1) Parms "WM P    LR      ", Count=      10
 Computing Diagnostic #   213 "GM_PsiX " (list#  1) Parms "UU      LR      ", Count=      10
             Vector  Mate for "GM_PsiX " :  Diagnostic #    214 "GM_PsiY " exists
 Computing Diagnostic #   214 "GM_PsiY " (list#  1) Parms "VV      LR      ", Count=      10
             Vector  Mate for "GM_PsiY " :  Diagnostic #    213 "GM_PsiX " exists
 EXTERNAL_FIELDS_LOAD,       670 : iP,iLd,i0,i1=   10   11   10   11 ; Wght=  0.1666666667  0.8333333333
 cg2d: Sum(rhs),rhsMax =  -2.27373675443232E-13  4.72872220783454E+00
 EXTERNAL_FIELDS_LOAD,       671 : iP,iLd,i0,i1=   10   11   10   11 ; Wght=  0.1333333333  0.8666666667
 cg2d: Sum(rhs),rhsMax =  -1.98951966012828E-13  4.72843656223858E+00
 EXTERNAL_FIELDS_LOAD,       672 : iP,iLd,i0,i1=   10   11   10   11 ; Wght=  0.1000000000  0.9000000000
 cg2d: Sum(rhs),rhsMax =  -1.42108547152020E-13  4.72800413996506E+00
 EXTERNAL_FIELDS_LOAD,       673 : iP,iLd,i0,i1=   10   11   10   11 ; Wght=  0.0666666667  0.9333333333
 cg2d: Sum(rhs),rhsMax =   5.68434188608080E-14  4.72743984351944E+00
 EXTERNAL_FIELDS_LOAD,       674 : iP,iLd,i0,i1=   10   11   10   11 ; Wght=  0.0333333333  0.9666666667
 cg2d: Sum(rhs),rhsMax =  -5.68434188608080E-14  4.72676244448447E+00
 EXTERNAL_FIELDS_LOAD,       675 : iP,iLd,i0,i1=   10   11   11   12 ; Wght=  1.0000000000  0.0000000000
 EXTERNAL_FIELDS_LOAD, it=       675 : Reading new data, i0,i1=   11   12 (prev=   10   11 )
(PID.TID 0000.0001)  MDS_READ_FIELD: opening global file: trenberth_taux.bin
(PID.TID 0000.0001)  MDS_READ_FIELD: opening global file: trenberth_taux.bin
(PID.TID 0000.0001)  MDS_READ_FIELD: opening global file: trenberth_tauy.bin
(PID.TID 0000.0001)  MDS_READ_FIELD: opening global file: trenberth_tauy.bin
(PID.TID 0000.0001)  MDS_READ_FIELD: opening global file: shiQnet_cs32.bin
(PID.TID 0000.0001)  MDS_READ_FIELD: opening global file: shiQnet_cs32.bin
(PID.TID 0000.0001)  MDS_READ_FIELD: opening global file: shiEmPR_cs32.bin
(PID.TID 0000.0001)  MDS_READ_FIELD: opening global file: shiEmPR_cs32.bin
(PID.TID 0000.0001)  MDS_READ_FIELD: opening global file: lev_surfT_cs_12m.bin
(PID.TID 0000.0001)  MDS_READ_FIELD: opening global file: lev_surfT_cs_12m.bin
(PID.TID 0000.0001)  MDS_READ_FIELD: opening global file: lev_surfS_cs_12m.bin
(PID.TID 0000.0001)  MDS_READ_FIELD: opening global file: lev_surfS_cs_12m.bin
 cg2d: Sum(rhs),rhsMax =  -5.11590769747272E-13  4.72599413380601E+00
 Compute Stats, Diag. #    23 "ETAN    " (list#  1) Parms "SM      M1      ", vol(  0 )= 3.639E+14
 Compute Stats, Diag. #    30 "UVEL    " (list#  1) Parms "UUR     MR      ", vol(  0 )= 1.231E+18
 Compute Stats, Diag. #    31 "VVEL    " (list#  1) Parms "VVR     MR      ", vol(  0 )= 1.243E+18
 Compute Stats, Diag. #    32 "WVEL    " (list#  1) Parms "WM      LR      ", vol(  0 )= 1.315E+18
 Compute Stats, Diag. #    26 "THETA   " (list#  1) Parms "SMR     MR      ", vol(  0 )= 1.340E+18
 EXTERNAL_FIELDS_LOAD,       676 : iP,iLd,i0,i1=   11   12   11   12 ; Wght=  0.9666666667  0.0333333333
 cg2d: Sum(rhs),rhsMax =  -1.42108547152020E-13  4.72515814078742E+00
 EXTERNAL_FIELDS_LOAD,       677 : iP,iLd,i0,i1=   11   12   11   12 ; Wght=  0.9333333333  0.0666666667
 cg2d: Sum(rhs),rhsMax =  -1.70530256582424E-13  4.72447714107891E+00
 EXTERNAL_FIELDS_LOAD,       678 : iP,iLd,i0,i1=   11   12   11   12 ; Wght=  0.9000000000  0.1000000000
 cg2d: Sum(rhs),rhsMax =   1.42108547152020E-13  4.72394580568945E+00
 EXTERNAL_FIELDS_LOAD,       679 : iP,iLd,i0,i1=   11   12   11   12 ; Wght=  0.8666666667  0.1333333333
 cg2d: Sum(rhs),rhsMax =  -5.68434188608080E-14  4.72357909402860E+00
 Computing Diagnostic #    79 "DRHODR  " (list#  1) Parms "SM      LR      ", Count=      10
 Computing Diagnostic #    64 "RHOAnoma" (list#  1) Parms "SMR     MR      ", Count=      10
 Computing Diagnostic #    80 "CONVADJ " (list#  1) Parms "SMR     LR      ", Count=      10
 Computing Diagnostic #   210 "GM_Kwx  " (list#  1) Parms "UM      LR      ", Count=      10
             Vector  Mate for "GM_Kwx  " :  Diagnostic #    211 "GM_Kwy  " exists
 Computing Diagnostic #   211 "GM_Kwy  " (list#  1) Parms "VM      LR      ", Count=      10
             Vector  Mate for "GM_Kwy  " :  Diagnostic #    210 "GM_Kwx  " exists
 Computing Diagnostic #   212 "GM_Kwz  " (list#  1) Parms "WM P    LR      ", Count=      10
 Computing Diagnostic #   213 "GM_PsiX " (list#  1) Parms "UU      LR      ", Count=      10
             Vector  Mate for "GM_PsiX " :  Diagnostic #    214 "GM_PsiY " exists
 Computing Diagnostic #   214 "GM_PsiY " (list#  1) Parms "VV      LR      ", Count=      10
             Vector  Mate for "GM_PsiY " :  Diagnostic #    213 "GM_PsiX " exists
 EXTERNAL_FIELDS_LOAD,       680 : iP,iLd,i0,i1=   11   12   11   12 ; Wght=  0.8333333333  0.1666666667
 cg2d: Sum(rhs),rhsMax =  -8.52651282912120E-14  4.72339768611667E+00
 EXTERNAL_FIELDS_LOAD,       681 : iP,iLd,i0,i1=   11   12   11   12 ; Wght=  0.8000000000  0.2000000000
 cg2d: Sum(rhs),rhsMax =  -3.69482222595252E-13  4.72342166578792E+00
 EXTERNAL_FIELDS_LOAD,       682 : iP,iLd,i0,i1=   11   12   11   12 ; Wght=  0.7666666667  0.2333333333
 cg2d: Sum(rhs),rhsMax =  -5.68434188608080E-14  4.72367195087424E+00
 EXTERNAL_FIELDS_LOAD,       683 : iP,iLd,i0,i1=   11   12   11   12 ; Wght=  0.7333333333  0.2666666667
 cg2d: Sum(rhs),rhsMax =  -3.41060513164848E-13  4.72417021448867E+00
 EXTERNAL_FIELDS_LOAD,       684 : iP,iLd,i0,i1=   11   12   11   12 ; Wght=  0.7000000000  0.3000000000
 cg2d: Sum(rhs),rhsMax =  -8.52651282912120E-14  4.72493772922775E+00
 EXTERNAL_FIELDS_LOAD,       685 : iP,iLd,i0,i1=   11   12   11   12 ; Wght=  0.6666666667  0.3333333333
 cg2d: Sum(rhs),rhsMax =  -1.42108547152020E-13  4.72599403581877E+00
 Compute Stats, Diag. #    23 "ETAN    " (list#  1) Parms "SM      M1      ", vol(  0 )= 3.639E+14
 Compute Stats, Diag. #    30 "UVEL    " (list#  1) Parms "UUR     MR      ", vol(  0 )= 1.231E+18
 Compute Stats, Diag. #    31 "VVEL    " (list#  1) Parms "VVR     MR      ", vol(  0 )= 1.243E+18
 Compute Stats, Diag. #    32 "WVEL    " (list#  1) Parms "WM      LR      ", vol(  0 )= 1.315E+18
 Compute Stats, Diag. #    26 "THETA   " (list#  1) Parms "SMR     MR      ", vol(  0 )= 1.340E+18
 EXTERNAL_FIELDS_LOAD,       686 : iP,iLd,i0,i1=   11   12   11   12 ; Wght=  0.6333333333  0.3666666667
 cg2d: Sum(rhs),rhsMax =  -8.52651282912120E-14  4.72735593892103E+00
 EXTERNAL_FIELDS_LOAD,       687 : iP,iLd,i0,i1=   11   12   11   12 ; Wght=  0.6000000000  0.4000000000
 cg2d: Sum(rhs),rhsMax =  -2.84217094304040E-14  4.72903680589518E+00
 EXTERNAL_FIELDS_LOAD,       688 : iP,iLd,i0,i1=   11   12   11   12 ; Wght=  0.5666666667  0.4333333333
 cg2d: Sum(rhs),rhsMax =  -1.70530256582424E-13  4.73104617652014E+00
 EXTERNAL_FIELDS_LOAD,       689 : iP,iLd,i0,i1=   11   12   11   12 ; Wght=  0.5333333333  0.4666666667
 cg2d: Sum(rhs),rhsMax =  -1.13686837721616E-13  4.73338957156224E+00
(PID.TID 0000.0001)      cg2d_init_res =   1.86278417256248E-01
(PID.TID 0000.0001)      cg2d_iters(min,last) =      -1      63
(PID.TID 0000.0001)      cg2d_last_res =   5.27072393345978E-07
(PID.TID 0000.0001) // =======================================================
(PID.TID 0000.0001) // Begin MONITOR dynamic field statistics
(PID.TID 0000.0001) // =======================================================
(PID.TID 0000.0001) %MON time_tsnumber                =                   690
(PID.TID 0000.0001) %MON time_secondsf                =   5.9616000000000E+07
(PID.TID 0000.0001) %MON dynstat_eta_max              =   9.6352340324761E-01
(PID.TID 0000.0001) %MON dynstat_eta_min              =  -1.8617300951667E+00
(PID.TID 0000.0001) %MON dynstat_eta_mean             =   2.3358916728339E-16
(PID.TID 0000.0001) %MON dynstat_eta_sd               =   6.3135550541823E-01
(PID.TID 0000.0001) %MON dynstat_eta_del2             =   8.1716956831718E-04
(PID.TID 0000.0001) %MON dynstat_uvel_max             =   1.6007350961789E-01
(PID.TID 0000.0001) %MON dynstat_uvel_min             =  -2.8232230300875E-01
(PID.TID 0000.0001) %MON dynstat_uvel_mean            =  -5.3415718658588E-04
(PID.TID 0000.0001) %MON dynstat_uvel_sd              =   1.2840874114363E-02
(PID.TID 0000.0001) %MON dynstat_uvel_del2            =   5.3865313312624E-05
(PID.TID 0000.0001) %MON dynstat_vvel_max             =   1.9745767181842E-01
(PID.TID 0000.0001) %MON dynstat_vvel_min             =  -1.9331628516334E-01
(PID.TID 0000.0001) %MON dynstat_vvel_mean            =  -4.2759936267728E-04
(PID.TID 0000.0001) %MON dynstat_vvel_sd              =   1.3059086758340E-02
(PID.TID 0000.0001) %MON dynstat_vvel_del2            =   5.3981002764393E-05
(PID.TID 0000.0001) %MON dynstat_wvel_max             =   1.1604889342519E-04
(PID.TID 0000.0001) %MON dynstat_wvel_min             =  -2.1208957447923E-04
(PID.TID 0000.0001) %MON dynstat_wvel_mean            =   5.2218279986128E-23
(PID.TID 0000.0001) %MON dynstat_wvel_sd              =   4.6364039058043E-06
(PID.TID 0000.0001) %MON dynstat_wvel_del2            =   3.2742692916891E-08
(PID.TID 0000.0001) %MON dynstat_theta_max            =   3.0635213799688E+01
(PID.TID 0000.0001) %MON dynstat_theta_min            =  -6.6742640963226E+00
(PID.TID 0000.0001) %MON dynstat_theta_mean           =   3.6060010506231E+00
(PID.TID 0000.0001) %MON dynstat_theta_sd             =   4.4203346552713E+00
(PID.TID 0000.0001) %MON dynstat_theta_del2           =   2.7977397962833E-03
(PID.TID 0000.0001) %MON dynstat_salt_max             =   4.0811247117010E+01
(PID.TID 0000.0001) %MON dynstat_salt_min             =   1.8595018996848E+01
(PID.TID 0000.0001) %MON dynstat_salt_mean            =   3.4721070248090E+01
(PID.TID 0000.0001) %MON dynstat_salt_sd              =   4.9489189381086E-01
(PID.TID 0000.0001) %MON dynstat_salt_del2            =   9.0689662930664E-04
(PID.TID 0000.0001) %MON forcing_qnet_max             =   4.1021578966536E+02
(PID.TID 0000.0001) %MON forcing_qnet_min             =  -2.0313383788713E+02
(PID.TID 0000.0001) %MON forcing_qnet_mean            =  -1.0624545108288E+01
(PID.TID 0000.0001) %MON forcing_qnet_sd              =   1.0684693269585E+02
(PID.TID 0000.0001) %MON forcing_qnet_del2            =   3.8956089286157E-01
(PID.TID 0000.0001) %MON forcing_qsw_max              =   0.0000000000000E+00
(PID.TID 0000.0001) %MON forcing_qsw_min              =   0.0000000000000E+00
(PID.TID 0000.0001) %MON forcing_qsw_mean             =   0.0000000000000E+00
(PID.TID 0000.0001) %MON forcing_qsw_sd               =   0.0000000000000E+00
(PID.TID 0000.0001) %MON forcing_qsw_del2             =   0.0000000000000E+00
(PID.TID 0000.0001) %MON forcing_empmr_max            =   7.6494447208479E-05
(PID.TID 0000.0001) %MON forcing_empmr_min            =  -1.5362614137596E-04
(PID.TID 0000.0001) %MON forcing_empmr_mean           =  -2.7256318706594E-21
(PID.TID 0000.0001) %MON forcing_empmr_sd             =   2.4051723601802E-05
(PID.TID 0000.0001) %MON forcing_empmr_del2           =   1.2276157049243E-07
(PID.TID 0000.0001) %MON forcing_fu_max               =   2.4675984841684E-01
(PID.TID 0000.0001) %MON forcing_fu_min               =  -2.2485491038058E-01
(PID.TID 0000.0001) %MON forcing_fu_mean              =  -6.1037608420371E-03
(PID.TID 0000.0001) %MON forcing_fu_sd                =   6.6859781268308E-02
(PID.TID 0000.0001) %MON forcing_fu_del2              =   1.9769316319051E-04
(PID.TID 0000.0001) %MON forcing_fv_max               =   2.2502206352242E-01
(PID.TID 0000.0001) %MON forcing_fv_min               =  -2.7065648191206E-01
(PID.TID 0000.0001) %MON forcing_fv_mean              =  -1.1140659213460E-02
(PID.TID 0000.0001) %MON forcing_fv_sd                =   7.4511506960852E-02
(PID.TID 0000.0001) %MON forcing_fv_del2              =   2.1923078472871E-04
(PID.TID 0000.0001) %MON trAdv_CFL_u_max              =   8.2416371098852E-02
(PID.TID 0000.0001) %MON trAdv_CFL_v_max              =   9.3234211569048E-02
(PID.TID 0000.0001) %MON trAdv_CFL_w_max              =   8.1165255560500E-02
(PID.TID 0000.0001) %MON advcfl_uvel_max              =   8.0071960416545E-02
(PID.TID 0000.0001) %MON advcfl_vvel_max              =   8.6069017319676E-02
(PID.TID 0000.0001) %MON advcfl_wvel_max              =   6.9149204660396E-02
(PID.TID 0000.0001) %MON advcfl_W_hf_max              =   7.6352246812521E-02
(PID.TID 0000.0001) %MON pe_b_mean                    =   5.3102188079161E-04
(PID.TID 0000.0001) %MON ke_max                       =   4.0212821984233E-02
(PID.TID 0000.0001) %MON ke_mean                      =   1.5508758678831E-04
(PID.TID 0000.0001) %MON ke_vol                       =   1.3398024453628E+18
(PID.TID 0000.0001) %MON vort_r_min                   =  -1.0162793264906E-06
(PID.TID 0000.0001) %MON vort_r_max                   =   1.3256996232901E-06
(PID.TID 0000.0001) %MON vort_a_mean                  =  -2.0549865324846E-05
(PID.TID 0000.0001) %MON vort_a_sd                    =   7.5259636219925E-05
(PID.TID 0000.0001) %MON vort_p_mean                  =  -2.4783522345032E-05
(PID.TID 0000.0001) %MON vort_p_sd                    =   1.2810676275225E-04
(PID.TID 0000.0001) %MON surfExpan_theta_mean         =   3.2331154886687E-08
(PID.TID 0000.0001) %MON surfExpan_salt_mean          =   1.5135506988429E-08
(PID.TID 0000.0001) // =======================================================
(PID.TID 0000.0001) // End MONITOR dynamic field statistics
(PID.TID 0000.0001) // =======================================================
(PID.TID 0000.0001) // =======================================================
(PID.TID 0000.0001) // Begin MONITOR ptracer field statistics
(PID.TID 0000.0001) // =======================================================
(PID.TID 0000.0001) %MON trcstat_ptracer01_max        =   6.1626527652969E+07
(PID.TID 0000.0001) %MON trcstat_ptracer01_min        =  -5.4083771212541E+06
(PID.TID 0000.0001) %MON trcstat_ptracer01_mean       =   5.7963786997207E+07
(PID.TID 0000.0001) %MON trcstat_ptracer01_sd         =   7.9132545079377E+06
(PID.TID 0000.0001) %MON trcstat_ptracer01_del2       =   1.6685155098719E+04
(PID.TID 0000.0001) // =======================================================
(PID.TID 0000.0001) // End MONITOR ptracer field statistics
(PID.TID 0000.0001) // =======================================================
 Computing Diagnostic #    79 "DRHODR  " (list#  1) Parms "SM      LR      ", Count=      10
 Computing Diagnostic #    64 "RHOAnoma" (list#  1) Parms "SMR     MR      ", Count=      10
 Computing Diagnostic #    80 "CONVADJ " (list#  1) Parms "SMR     LR      ", Count=      10
 Computing Diagnostic #   210 "GM_Kwx  " (list#  1) Parms "UM      LR      ", Count=      10
             Vector  Mate for "GM_Kwx  " :  Diagnostic #    211 "GM_Kwy  " exists
 Computing Diagnostic #   211 "GM_Kwy  " (list#  1) Parms "VM      LR      ", Count=      10
             Vector  Mate for "GM_Kwy  " :  Diagnostic #    210 "GM_Kwx  " exists
 Computing Diagnostic #   212 "GM_Kwz  " (list#  1) Parms "WM P    LR      ", Count=      10
 Computing Diagnostic #   213 "GM_PsiX " (list#  1) Parms "UU      LR      ", Count=      10
             Vector  Mate for "GM_PsiX " :  Diagnostic #    214 "GM_PsiY " exists
 Computing Diagnostic #   214 "GM_PsiY " (list#  1) Parms "VV      LR      ", Count=      10
             Vector  Mate for "GM_PsiY " :  Diagnostic #    213 "GM_PsiX " exists
 EXTERNAL_FIELDS_LOAD,       690 : iP,iLd,i0,i1=   11   12   11   12 ; Wght=  0.5000000000  0.5000000000
 cg2d: Sum(rhs),rhsMax =  -2.55795384873636E-13  4.73606842763386E+00
 EXTERNAL_FIELDS_LOAD,       691 : iP,iLd,i0,i1=   11   12   11   12 ; Wght=  0.4666666667  0.5333333333
 cg2d: Sum(rhs),rhsMax =  -1.70530256582424E-13  4.73908010204981E+00
 EXTERNAL_FIELDS_LOAD,       692 : iP,iLd,i0,i1=   11   12   11   12 ; Wght=  0.4333333333  0.5666666667
 cg2d: Sum(rhs),rhsMax =  -1.13686837721616E-13  4.74241792955813E+00
 EXTERNAL_FIELDS_LOAD,       693 : iP,iLd,i0,i1=   11   12   11   12 ; Wght=  0.4000000000  0.6000000000
 cg2d: Sum(rhs),rhsMax =  -8.52651282912120E-14  4.74607133870041E+00
 EXTERNAL_FIELDS_LOAD,       694 : iP,iLd,i0,i1=   11   12   11   12 ; Wght=  0.3666666667  0.6333333333
 cg2d: Sum(rhs),rhsMax =  -1.13686837721616E-13  4.75002601933854E+00
 EXTERNAL_FIELDS_LOAD,       695 : iP,iLd,i0,i1=   11   12   11   12 ; Wght=  0.3333333333  0.6666666667
 cg2d: Sum(rhs),rhsMax =   0.00000000000000E+00  4.75426413618038E+00
 Compute Stats, Diag. #    23 "ETAN    " (list#  1) Parms "SM      M1      ", vol(  0 )= 3.639E+14
 Compute Stats, Diag. #    30 "UVEL    " (list#  1) Parms "UUR     MR      ", vol(  0 )= 1.231E+18
 Compute Stats, Diag. #    31 "VVEL    " (list#  1) Parms "VVR     MR      ", vol(  0 )= 1.243E+18
 Compute Stats, Diag. #    32 "WVEL    " (list#  1) Parms "WM      LR      ", vol(  0 )= 1.315E+18
 Compute Stats, Diag. #    26 "THETA   " (list#  1) Parms "SMR     MR      ", vol(  0 )= 1.340E+18
 EXTERNAL_FIELDS_LOAD,       696 : iP,iLd,i0,i1=   11   12   11   12 ; Wght=  0.3000000000  0.7000000000
 cg2d: Sum(rhs),rhsMax =  -1.42108547152020E-13  4.75876460749384E+00
 EXTERNAL_FIELDS_LOAD,       697 : iP,iLd,i0,i1=   11   12   11   12 ; Wght=  0.2666666667  0.7333333333
 cg2d: Sum(rhs),rhsMax =   5.68434188608080E-14  4.76350343618418E+00
 EXTERNAL_FIELDS_LOAD,       698 : iP,iLd,i0,i1=   11   12   11   12 ; Wght=  0.2333333333  0.7666666667
 cg2d: Sum(rhs),rhsMax =   0.00000000000000E+00  4.76845414404676E+00
 EXTERNAL_FIELDS_LOAD,       699 : iP,iLd,i0,i1=   11   12   11   12 ; Wght=  0.2000000000  0.8000000000
 cg2d: Sum(rhs),rhsMax =  -5.68434188608080E-14  4.77358820171756E+00
 Computing Diagnostic #    79 "DRHODR  " (list#  1) Parms "SM      LR      ", Count=      10
 Computing Diagnostic #    64 "RHOAnoma" (list#  1) Parms "SMR     MR      ", Count=      10
 Computing Diagnostic #    80 "CONVADJ " (list#  1) Parms "SMR     LR      ", Count=      10
 Computing Diagnostic #   210 "GM_Kwx  " (list#  1) Parms "UM      LR      ", Count=      10
             Vector  Mate for "GM_Kwx  " :  Diagnostic #    211 "GM_Kwy  " exists
 Computing Diagnostic #   211 "GM_Kwy  " (list#  1) Parms "VM      LR      ", Count=      10
             Vector  Mate for "GM_Kwy  " :  Diagnostic #    210 "GM_Kwx  " exists
 Computing Diagnostic #   212 "GM_Kwz  " (list#  1) Parms "WM P    LR      ", Count=      10
 Computing Diagnostic #   213 "GM_PsiX " (list#  1) Parms "UU      LR      ", Count=      10
             Vector  Mate for "GM_PsiX " :  Diagnostic #    214 "GM_PsiY " exists
 Computing Diagnostic #   214 "GM_PsiY " (list#  1) Parms "VV      LR      ", Count=      10
             Vector  Mate for "GM_PsiY " :  Diagnostic #    213 "GM_PsiX " exists
 EXTERNAL_FIELDS_LOAD,       700 : iP,iLd,i0,i1=   11   12   11   12 ; Wght=  0.1666666667  0.8333333333
 cg2d: Sum(rhs),rhsMax =  -2.55795384873636E-13  4.77887553140771E+00
 EXTERNAL_FIELDS_LOAD,       701 : iP,iLd,i0,i1=   11   12   11   12 ; Wght=  0.1333333333  0.8666666667
 cg2d: Sum(rhs),rhsMax =  -1.98951966012828E-13  4.78428503089842E+00
 EXTERNAL_FIELDS_LOAD,       702 : iP,iLd,i0,i1=   11   12   11   12 ; Wght=  0.1000000000  0.9000000000
 cg2d: Sum(rhs),rhsMax =  -1.98951966012828E-13  4.78978512779310E+00
 EXTERNAL_FIELDS_LOAD,       703 : iP,iLd,i0,i1=   11   12   11   12 ; Wght=  0.0666666667  0.9333333333
 cg2d: Sum(rhs),rhsMax =   2.84217094304040E-14  4.79534435678999E+00
 EXTERNAL_FIELDS_LOAD,       704 : iP,iLd,i0,i1=   11   12   11   12 ; Wght=  0.0333333333  0.9666666667
 cg2d: Sum(rhs),rhsMax =   1.13686837721616E-13  4.80093190864198E+00
 EXTERNAL_FIELDS_LOAD,       705 : iP,iLd,i0,i1=   11   12   12    1 ; Wght=  1.0000000000  0.0000000000
 EXTERNAL_FIELDS_LOAD, it=       705 : Reading new data, i0,i1=   12    1 (prev=   11   12 )
(PID.TID 0000.0001)  MDS_READ_FIELD: opening global file: trenberth_taux.bin
(PID.TID 0000.0001)  MDS_READ_FIELD: opening global file: trenberth_taux.bin
(PID.TID 0000.0001)  MDS_READ_FIELD: opening global file: trenberth_tauy.bin
(PID.TID 0000.0001)  MDS_READ_FIELD: opening global file: trenberth_tauy.bin
(PID.TID 0000.0001)  MDS_READ_FIELD: opening global file: shiQnet_cs32.bin
(PID.TID 0000.0001)  MDS_READ_FIELD: opening global file: shiQnet_cs32.bin
(PID.TID 0000.0001)  MDS_READ_FIELD: opening global file: shiEmPR_cs32.bin
(PID.TID 0000.0001)  MDS_READ_FIELD: opening global file: shiEmPR_cs32.bin
(PID.TID 0000.0001)  MDS_READ_FIELD: opening global file: lev_surfT_cs_12m.bin
(PID.TID 0000.0001)  MDS_READ_FIELD: opening global file: lev_surfT_cs_12m.bin
(PID.TID 0000.0001)  MDS_READ_FIELD: opening global file: lev_surfS_cs_12m.bin
(PID.TID 0000.0001)  MDS_READ_FIELD: opening global file: lev_surfS_cs_12m.bin
 cg2d: Sum(rhs),rhsMax =  -1.70530256582424E-13  4.80651818625019E+00
 Compute Stats, Diag. #    23 "ETAN    " (list#  1) Parms "SM      M1      ", vol(  0 )= 3.639E+14
 Compute Stats, Diag. #    30 "UVEL    " (list#  1) Parms "UUR     MR      ", vol(  0 )= 1.231E+18
 Compute Stats, Diag. #    31 "VVEL    " (list#  1) Parms "VVR     MR      ", vol(  0 )= 1.243E+18
 Compute Stats, Diag. #    32 "WVEL    " (list#  1) Parms "WM      LR      ", vol(  0 )= 1.315E+18
 Compute Stats, Diag. #    26 "THETA   " (list#  1) Parms "SMR     MR      ", vol(  0 )= 1.340E+18
 EXTERNAL_FIELDS_LOAD,       706 : iP,iLd,i0,i1=   12    1   12    1 ; Wght=  0.9666666667  0.0333333333
 cg2d: Sum(rhs),rhsMax =  -2.27373675443232E-13  4.81209465373189E+00
 EXTERNAL_FIELDS_LOAD,       707 : iP,iLd,i0,i1=   12    1   12    1 ; Wght=  0.9333333333  0.0666666667
 cg2d: Sum(rhs),rhsMax =  -1.13686837721616E-13  4.81746812784413E+00
 EXTERNAL_FIELDS_LOAD,       708 : iP,iLd,i0,i1=   12    1   12    1 ; Wght=  0.9000000000  0.1000000000
 cg2d: Sum(rhs),rhsMax =  -5.68434188608080E-14  4.82263873840865E+00
 EXTERNAL_FIELDS_LOAD,       709 : iP,iLd,i0,i1=   12    1   12    1 ; Wght=  0.8666666667  0.1333333333
 cg2d: Sum(rhs),rhsMax =  -2.55795384873636E-13  4.82759326122277E+00
 Computing Diagnostic #    79 "DRHODR  " (list#  1) Parms "SM      LR      ", Count=      10
 Computing Diagnostic #    64 "RHOAnoma" (list#  1) Parms "SMR     MR      ", Count=      10
 Computing Diagnostic #    80 "CONVADJ " (list#  1) Parms "SMR     LR      ", Count=      10
 Computing Diagnostic #   210 "GM_Kwx  " (list#  1) Parms "UM      LR      ", Count=      10
             Vector  Mate for "GM_Kwx  " :  Diagnostic #    211 "GM_Kwy  " exists
 Computing Diagnostic #   211 "GM_Kwy  " (list#  1) Parms "VM      LR      ", Count=      10
             Vector  Mate for "GM_Kwy  " :  Diagnostic #    210 "GM_Kwx  " exists
 Computing Diagnostic #   212 "GM_Kwz  " (list#  1) Parms "WM P    LR      ", Count=      10
 Computing Diagnostic #   213 "GM_PsiX " (list#  1) Parms "UU      LR      ", Count=      10
             Vector  Mate for "GM_PsiX " :  Diagnostic #    214 "GM_PsiY " exists
 Computing Diagnostic #   214 "GM_PsiY " (list#  1) Parms "VV      LR      ", Count=      10
             Vector  Mate for "GM_PsiY " :  Diagnostic #    213 "GM_PsiX " exists
 EXTERNAL_FIELDS_LOAD,       710 : iP,iLd,i0,i1=   12    1   12    1 ; Wght=  0.8333333333  0.1666666667
 cg2d: Sum(rhs),rhsMax =   8.52651282912120E-14  4.83232067599871E+00
 EXTERNAL_FIELDS_LOAD,       711 : iP,iLd,i0,i1=   12    1   12    1 ; Wght=  0.8000000000  0.2000000000
 cg2d: Sum(rhs),rhsMax =  -8.52651282912120E-14  4.83681441512496E+00
 EXTERNAL_FIELDS_LOAD,       712 : iP,iLd,i0,i1=   12    1   12    1 ; Wght=  0.7666666667  0.2333333333
 cg2d: Sum(rhs),rhsMax =  -1.42108547152020E-13  4.84107076026532E+00
 EXTERNAL_FIELDS_LOAD,       713 : iP,iLd,i0,i1=   12    1   12    1 ; Wght=  0.7333333333  0.2666666667
 cg2d: Sum(rhs),rhsMax =   0.00000000000000E+00  4.84508790924082E+00
 EXTERNAL_FIELDS_LOAD,       714 : iP,iLd,i0,i1=   12    1   12    1 ; Wght=  0.7000000000  0.3000000000
 cg2d: Sum(rhs),rhsMax =  -2.55795384873636E-13  4.84886600401985E+00
 EXTERNAL_FIELDS_LOAD,       715 : iP,iLd,i0,i1=   12    1   12    1 ; Wght=  0.6666666667  0.3333333333
 cg2d: Sum(rhs),rhsMax =  -1.42108547152020E-13  4.85240763675752E+00
 Compute Stats, Diag. #    23 "ETAN    " (list#  1) Parms "SM      M1      ", vol(  0 )= 3.639E+14
 Compute Stats, Diag. #    30 "UVEL    " (list#  1) Parms "UUR     MR      ", vol(  0 )= 1.231E+18
 Compute Stats, Diag. #    31 "VVEL    " (list#  1) Parms "VVR     MR      ", vol(  0 )= 1.243E+18
 Compute Stats, Diag. #    32 "WVEL    " (list#  1) Parms "WM      LR      ", vol(  0 )= 1.315E+18
 Compute Stats, Diag. #    26 "THETA   " (list#  1) Parms "SMR     MR      ", vol(  0 )= 1.340E+18
 EXTERNAL_FIELDS_LOAD,       716 : iP,iLd,i0,i1=   12    1   12    1 ; Wght=  0.6333333333  0.3666666667
 cg2d: Sum(rhs),rhsMax =  -2.84217094304040E-14  4.85571834307833E+00
 EXTERNAL_FIELDS_LOAD,       717 : iP,iLd,i0,i1=   12    1   12    1 ; Wght=  0.6000000000  0.4000000000
 cg2d: Sum(rhs),rhsMax =  -1.98951966012828E-13  4.85880686506048E+00
 EXTERNAL_FIELDS_LOAD,       718 : iP,iLd,i0,i1=   12    1   12    1 ; Wght=  0.5666666667  0.4333333333
 cg2d: Sum(rhs),rhsMax =  -2.84217094304040E-14  4.86168511929606E+00
 EXTERNAL_FIELDS_LOAD,       719 : iP,iLd,i0,i1=   12    1   12    1 ; Wght=  0.5333333333  0.4666666667
 cg2d: Sum(rhs),rhsMax =  -2.55795384873636E-13  4.86436793484760E+00
(PID.TID 0000.0001)      cg2d_init_res =   1.60091195847168E-01
(PID.TID 0000.0001)      cg2d_iters(min,last) =      -1      62
(PID.TID 0000.0001)      cg2d_last_res =   5.14246241076465E-07
(PID.TID 0000.0001) // =======================================================
(PID.TID 0000.0001) // Begin MONITOR dynamic field statistics
(PID.TID 0000.0001) // =======================================================
(PID.TID 0000.0001) %MON time_tsnumber                =                   720
(PID.TID 0000.0001) %MON time_secondsf                =   6.2208000000000E+07
(PID.TID 0000.0001) %MON dynstat_eta_max              =   9.2712432656429E-01
(PID.TID 0000.0001) %MON dynstat_eta_min              =  -1.8543762860552E+00
(PID.TID 0000.0001) %MON dynstat_eta_mean             =   4.1221617755892E-16
(PID.TID 0000.0001) %MON dynstat_eta_sd               =   6.2901685568523E-01
(PID.TID 0000.0001) %MON dynstat_eta_del2             =   8.2349619421794E-04
(PID.TID 0000.0001) %MON dynstat_uvel_max             =   1.5233337555193E-01
(PID.TID 0000.0001) %MON dynstat_uvel_min             =  -2.7964574262583E-01
(PID.TID 0000.0001) %MON dynstat_uvel_mean            =  -5.3998563727436E-04
(PID.TID 0000.0001) %MON dynstat_uvel_sd              =   1.2832103754856E-02
(PID.TID 0000.0001) %MON dynstat_uvel_del2            =   5.3499004657071E-05
(PID.TID 0000.0001) %MON dynstat_vvel_max             =   1.7437340100957E-01
(PID.TID 0000.0001) %MON dynstat_vvel_min             =  -2.0135545744662E-01
(PID.TID 0000.0001) %MON dynstat_vvel_mean            =  -4.3520678378393E-04
(PID.TID 0000.0001) %MON dynstat_vvel_sd              =   1.3058556172053E-02
(PID.TID 0000.0001) %MON dynstat_vvel_del2            =   5.3329020423894E-05
(PID.TID 0000.0001) %MON dynstat_wvel_max             =   1.1387245916613E-04
(PID.TID 0000.0001) %MON dynstat_wvel_min             =  -2.2731910208367E-04
(PID.TID 0000.0001) %MON dynstat_wvel_mean            =   6.9624373314837E-23
(PID.TID 0000.0001) %MON dynstat_wvel_sd              =   4.4930474315033E-06
(PID.TID 0000.0001) %MON dynstat_wvel_del2            =   3.2670608321800E-08
(PID.TID 0000.0001) %MON dynstat_theta_max            =   3.1052220640673E+01
(PID.TID 0000.0001) %MON dynstat_theta_min            =  -6.6662299980513E+00
(PID.TID 0000.0001) %MON dynstat_theta_mean           =   3.6076130955357E+00
(PID.TID 0000.0001) %MON dynstat_theta_sd             =   4.4175042278255E+00
(PID.TID 0000.0001) %MON dynstat_theta_del2           =   2.7944017709025E-03
(PID.TID 0000.0001) %MON dynstat_salt_max             =   4.0848871859651E+01
(PID.TID 0000.0001) %MON dynstat_salt_min             =   1.8615598452694E+01
(PID.TID 0000.0001) %MON dynstat_salt_mean            =   3.4721072449201E+01
(PID.TID 0000.0001) %MON dynstat_salt_sd              =   4.9514792033044E-01
(PID.TID 0000.0001) %MON dynstat_salt_del2            =   9.1582796286238E-04
(PID.TID 0000.0001) %MON forcing_qnet_max             =   4.5354272910296E+02
(PID.TID 0000.0001) %MON forcing_qnet_min             =  -2.1599809650417E+02
(PID.TID 0000.0001) %MON forcing_qnet_mean            =  -1.2133594023001E+01
(PID.TID 0000.0001) %MON forcing_qnet_sd              =   1.1586527760186E+02
(PID.TID 0000.0001) %MON forcing_qnet_del2            =   4.1554897025173E-01
(PID.TID 0000.0001) %MON forcing_qsw_max              =   0.0000000000000E+00
(PID.TID 0000.0001) %MON forcing_qsw_min              =   0.0000000000000E+00
(PID.TID 0000.0001) %MON forcing_qsw_mean             =   0.0000000000000E+00
(PID.TID 0000.0001) %MON forcing_qsw_sd               =   0.0000000000000E+00
(PID.TID 0000.0001) %MON forcing_qsw_del2             =   0.0000000000000E+00
(PID.TID 0000.0001) %MON forcing_empmr_max            =   7.6494447208479E-05
(PID.TID 0000.0001) %MON forcing_empmr_min            =  -1.5362614137596E-04
(PID.TID 0000.0001) %MON forcing_empmr_mean           =  -2.7256318706594E-21
(PID.TID 0000.0001) %MON forcing_empmr_sd             =   2.4051723601802E-05
(PID.TID 0000.0001) %MON forcing_empmr_del2           =   1.2276157049243E-07
(PID.TID 0000.0001) %MON forcing_fu_max               =   2.4765418498413E-01
(PID.TID 0000.0001) %MON forcing_fu_min               =  -1.9978611308685E-01
(PID.TID 0000.0001) %MON forcing_fu_mean              =  -4.5913596005962E-03
(PID.TID 0000.0001) %MON forcing_fu_sd                =   6.3941102540855E-02
(PID.TID 0000.0001) %MON forcing_fu_del2              =   2.0518848671462E-04
(PID.TID 0000.0001) %MON forcing_fv_max               =   2.5012773886324E-01
(PID.TID 0000.0001) %MON forcing_fv_min               =  -3.2613202008605E-01
(PID.TID 0000.0001) %MON forcing_fv_mean              =  -1.3680575972930E-02
(PID.TID 0000.0001) %MON forcing_fv_sd                =   7.5124443773282E-02
(PID.TID 0000.0001) %MON forcing_fv_del2              =   2.3375900006026E-04
(PID.TID 0000.0001) %MON trAdv_CFL_u_max              =   1.2102421720518E-01
(PID.TID 0000.0001) %MON trAdv_CFL_v_max              =   8.7669462547153E-02
(PID.TID 0000.0001) %MON trAdv_CFL_w_max              =   1.0836210894672E-01
(PID.TID 0000.0001) %MON advcfl_uvel_max              =   7.9312837121111E-02
(PID.TID 0000.0001) %MON advcfl_vvel_max              =   7.6006908890248E-02
(PID.TID 0000.0001) %MON advcfl_wvel_max              =   7.4114605358602E-02
(PID.TID 0000.0001) %MON advcfl_W_hf_max              =   8.1834876750123E-02
(PID.TID 0000.0001) %MON pe_b_mean                    =   5.2709517353723E-04
(PID.TID 0000.0001) %MON ke_max                       =   3.8720174844799E-02
(PID.TID 0000.0001) %MON ke_mean                      =   1.5498285510756E-04
(PID.TID 0000.0001) %MON ke_vol                       =   1.3398024453628E+18
(PID.TID 0000.0001) %MON vort_r_min                   =  -9.8431463160471E-07
(PID.TID 0000.0001) %MON vort_r_max                   =   1.1947241130364E-06
(PID.TID 0000.0001) %MON vort_a_mean                  =  -2.0549865324846E-05
(PID.TID 0000.0001) %MON vort_a_sd                    =   7.5259627418883E-05
(PID.TID 0000.0001) %MON vort_p_mean                  =  -2.4783522345032E-05
(PID.TID 0000.0001) %MON vort_p_sd                    =   1.2810664762955E-04
(PID.TID 0000.0001) %MON surfExpan_theta_mean         =   3.2902990109423E-08
(PID.TID 0000.0001) %MON surfExpan_salt_mean          =   1.3452348196382E-08
(PID.TID 0000.0001) // =======================================================
(PID.TID 0000.0001) // End MONITOR dynamic field statistics
(PID.TID 0000.0001) // =======================================================
(PID.TID 0000.0001) // =======================================================
(PID.TID 0000.0001) // Begin MONITOR ptracer field statistics
(PID.TID 0000.0001) // =======================================================
(PID.TID 0000.0001) %MON trcstat_ptracer01_max        =   6.4183846899933E+07
(PID.TID 0000.0001) %MON trcstat_ptracer01_min        =  -4.5771195283437E+06
(PID.TID 0000.0001) %MON trcstat_ptracer01_mean       =   6.0472788838313E+07
(PID.TID 0000.0001) %MON trcstat_ptracer01_sd         =   8.2663985396156E+06
(PID.TID 0000.0001) %MON trcstat_ptracer01_del2       =   1.6414418475099E+04
(PID.TID 0000.0001) // =======================================================
(PID.TID 0000.0001) // End MONITOR ptracer field statistics
(PID.TID 0000.0001) // =======================================================
 Computing Diagnostic #    79 "DRHODR  " (list#  1) Parms "SM      LR      ", Count=      10
 Computing Diagnostic #    64 "RHOAnoma" (list#  1) Parms "SMR     MR      ", Count=      10
 Computing Diagnostic #    80 "CONVADJ " (list#  1) Parms "SMR     LR      ", Count=      10
 Computing Diagnostic #   210 "GM_Kwx  " (list#  1) Parms "UM      LR      ", Count=      10
             Vector  Mate for "GM_Kwx  " :  Diagnostic #    211 "GM_Kwy  " exists
 Computing Diagnostic #   211 "GM_Kwy  " (list#  1) Parms "VM      LR      ", Count=      10
             Vector  Mate for "GM_Kwy  " :  Diagnostic #    210 "GM_Kwx  " exists
 Computing Diagnostic #   212 "GM_Kwz  " (list#  1) Parms "WM P    LR      ", Count=      10
 Computing Diagnostic #   213 "GM_PsiX " (list#  1) Parms "UU      LR      ", Count=      10
             Vector  Mate for "GM_PsiX " :  Diagnostic #    214 "GM_PsiY " exists
 Computing Diagnostic #   214 "GM_PsiY " (list#  1) Parms "VV      LR      ", Count=      10
             Vector  Mate for "GM_PsiY " :  Diagnostic #    213 "GM_PsiX " exists
(PID.TID 0000.0001) %CHECKPOINT       720 0000000720
 EXTERNAL_FIELDS_LOAD,       720 : iP,iLd,i0,i1=   12    1   12    1 ; Wght=  0.5000000000  0.5000000000
 cg2d: Sum(rhs),rhsMax =   0.00000000000000E+00  4.86687263977218E+00
 EXTERNAL_FIELDS_LOAD,       721 : iP,iLd,i0,i1=   12    1   12    1 ; Wght=  0.4666666667  0.5333333333
 cg2d: Sum(rhs),rhsMax =  -5.68434188608080E-14  4.86921855393700E+00
 EXTERNAL_FIELDS_LOAD,       722 : iP,iLd,i0,i1=   12    1   12    1 ; Wght=  0.4333333333  0.5666666667
 cg2d: Sum(rhs),rhsMax =  -1.70530256582424E-13  4.87142648121287E+00
 EXTERNAL_FIELDS_LOAD,       723 : iP,iLd,i0,i1=   12    1   12    1 ; Wght=  0.4000000000  0.6000000000
 cg2d: Sum(rhs),rhsMax =  -1.42108547152020E-13  4.87351817849938E+00
 EXTERNAL_FIELDS_LOAD,       724 : iP,iLd,i0,i1=   12    1   12    1 ; Wght=  0.3666666667  0.6333333333
 cg2d: Sum(rhs),rhsMax =   0.00000000000000E+00  4.87551584426771E+00
 EXTERNAL_FIELDS_LOAD,       725 : iP,iLd,i0,i1=   12    1   12    1 ; Wght=  0.3333333333  0.6666666667
 cg2d: Sum(rhs),rhsMax =   0.00000000000000E+00  4.87744164533107E+00
 Compute Stats, Diag. #    23 "ETAN    " (list#  1) Parms "SM      M1      ", vol(  0 )= 3.639E+14
 Compute Stats, Diag. #    30 "UVEL    " (list#  1) Parms "UUR     MR      ", vol(  0 )= 1.231E+18
 Compute Stats, Diag. #    31 "VVEL    " (list#  1) Parms "VVR     MR      ", vol(  0 )= 1.243E+18
 Compute Stats, Diag. #    32 "WVEL    " (list#  1) Parms "WM      LR      ", vol(  0 )= 1.315E+18
 Compute Stats, Diag. #    26 "THETA   " (list#  1) Parms "SMR     MR      ", vol(  0 )= 1.340E+18
 EXTERNAL_FIELDS_LOAD,       726 : iP,iLd,i0,i1=   12    1   12    1 ; Wght=  0.3000000000  0.7000000000
 cg2d: Sum(rhs),rhsMax =  -1.42108547152020E-13  4.87931728018265E+00
 EXTERNAL_FIELDS_LOAD,       727 : iP,iLd,i0,i1=   12    1   12    1 ; Wght=  0.2666666667  0.7333333333
 cg2d: Sum(rhs),rhsMax =  -1.13686837721616E-13  4.88116357934833E+00
 EXTERNAL_FIELDS_LOAD,       728 : iP,iLd,i0,i1=   12    1   12    1 ; Wght=  0.2333333333  0.7666666667
 cg2d: Sum(rhs),rhsMax =  -2.27373675443232E-13  4.88300013281941E+00
 EXTERNAL_FIELDS_LOAD,       729 : iP,iLd,i0,i1=   12    1   12    1 ; Wght=  0.2000000000  0.8000000000
 cg2d: Sum(rhs),rhsMax =  -2.27373675443232E-13  4.88484492380186E+00
 Computing Diagnostic #    79 "DRHODR  " (list#  1) Parms "SM      LR      ", Count=      10
 Computing Diagnostic #    64 "RHOAnoma" (list#  1) Parms "SMR     MR      ", Count=      10
 Computing Diagnostic #    80 "CONVADJ " (list#  1) Parms "SMR     LR      ", Count=      10
 Computing Diagnostic #   210 "GM_Kwx  " (list#  1) Parms "UM      LR      ", Count=      10
             Vector  Mate for "GM_Kwx  " :  Diagnostic #    211 "GM_Kwy  " exists
 Computing Diagnostic #   211 "GM_Kwy  " (list#  1) Parms "VM      LR      ", Count=      10
             Vector  Mate for "GM_Kwy  " :  Diagnostic #    210 "GM_Kwx  " exists
 Computing Diagnostic #   212 "GM_Kwz  " (list#  1) Parms "WM P    LR      ", Count=      10
 Computing Diagnostic #   213 "GM_PsiX " (list#  1) Parms "UU      LR      ", Count=      10
             Vector  Mate for "GM_PsiX " :  Diagnostic #    214 "GM_PsiY " exists
 Computing Diagnostic #   214 "GM_PsiY " (list#  1) Parms "VV      LR      ", Count=      10
             Vector  Mate for "GM_PsiY " :  Diagnostic #    213 "GM_PsiX " exists
 EXTERNAL_FIELDS_LOAD,       730 : iP,iLd,i0,i1=   12    1   12    1 ; Wght=  0.1666666667  0.8333333333
 cg2d: Sum(rhs),rhsMax =  -2.84217094304040E-14  4.88671400928091E+00
 EXTERNAL_FIELDS_LOAD,       731 : iP,iLd,i0,i1=   12    1   12    1 ; Wght=  0.1333333333  0.8666666667
 cg2d: Sum(rhs),rhsMax =  -1.13686837721616E-13  4.88862125122852E+00
 EXTERNAL_FIELDS_LOAD,       732 : iP,iLd,i0,i1=   12    1   12    1 ; Wght=  0.1000000000  0.9000000000
 cg2d: Sum(rhs),rhsMax =   0.00000000000000E+00  4.89057811309553E+00
 EXTERNAL_FIELDS_LOAD,       733 : iP,iLd,i0,i1=   12    1   12    1 ; Wght=  0.0666666667  0.9333333333
 cg2d: Sum(rhs),rhsMax =  -1.70530256582424E-13  4.89259353619827E+00
 EXTERNAL_FIELDS_LOAD,       734 : iP,iLd,i0,i1=   12    1   12    1 ; Wght=  0.0333333333  0.9666666667
 cg2d: Sum(rhs),rhsMax =  -2.84217094304040E-14  4.89467388903180E+00
 EXTERNAL_FIELDS_LOAD,       735 : iP,iLd,i0,i1=   12    1    1    2 ; Wght=  1.0000000000  0.0000000000
 EXTERNAL_FIELDS_LOAD, it=       735 : Reading new data, i0,i1=    1    2 (prev=   12    1 )
(PID.TID 0000.0001)  MDS_READ_FIELD: opening global file: trenberth_taux.bin
(PID.TID 0000.0001)  MDS_READ_FIELD: opening global file: trenberth_taux.bin
(PID.TID 0000.0001)  MDS_READ_FIELD: opening global file: trenberth_tauy.bin
(PID.TID 0000.0001)  MDS_READ_FIELD: opening global file: trenberth_tauy.bin
(PID.TID 0000.0001)  MDS_READ_FIELD: opening global file: shiQnet_cs32.bin
(PID.TID 0000.0001)  MDS_READ_FIELD: opening global file: shiQnet_cs32.bin
(PID.TID 0000.0001)  MDS_READ_FIELD: opening global file: shiEmPR_cs32.bin
(PID.TID 0000.0001)  MDS_READ_FIELD: opening global file: shiEmPR_cs32.bin
(PID.TID 0000.0001)  MDS_READ_FIELD: opening global file: lev_surfT_cs_12m.bin
(PID.TID 0000.0001)  MDS_READ_FIELD: opening global file: lev_surfT_cs_12m.bin
(PID.TID 0000.0001)  MDS_READ_FIELD: opening global file: lev_surfS_cs_12m.bin
(PID.TID 0000.0001)  MDS_READ_FIELD: opening global file: lev_surfS_cs_12m.bin
 cg2d: Sum(rhs),rhsMax =  -3.69482222595252E-13  4.89682301606402E+00
 Compute Stats, Diag. #    23 "ETAN    " (list#  1) Parms "SM      M1      ", vol(  0 )= 3.639E+14
 Compute Stats, Diag. #    30 "UVEL    " (list#  1) Parms "UUR     MR      ", vol(  0 )= 1.231E+18
 Compute Stats, Diag. #    31 "VVEL    " (list#  1) Parms "VVR     MR      ", vol(  0 )= 1.243E+18
 Compute Stats, Diag. #    32 "WVEL    " (list#  1) Parms "WM      LR      ", vol(  0 )= 1.315E+18
 Compute Stats, Diag. #    26 "THETA   " (list#  1) Parms "SMR     MR      ", vol(  0 )= 1.340E+18
 EXTERNAL_FIELDS_LOAD,       736 : iP,iLd,i0,i1=    1    2    1    2 ; Wght=  0.9666666667  0.0333333333
 cg2d: Sum(rhs),rhsMax =  -3.12638803734444E-13  4.89903170784973E+00
 EXTERNAL_FIELDS_LOAD,       737 : iP,iLd,i0,i1=    1    2    1    2 ; Wght=  0.9333333333  0.0666666667
 cg2d: Sum(rhs),rhsMax =  -3.12638803734444E-13  4.90133950726006E+00
 EXTERNAL_FIELDS_LOAD,       738 : iP,iLd,i0,i1=    1    2    1    2 ; Wght=  0.9000000000  0.1000000000
 cg2d: Sum(rhs),rhsMax =   2.84217094304040E-14  4.90371399759561E+00
 EXTERNAL_FIELDS_LOAD,       739 : iP,iLd,i0,i1=    1    2    1    2 ; Wght=  0.8666666667  0.1333333333
 cg2d: Sum(rhs),rhsMax =  -2.55795384873636E-13  4.90615596606501E+00
 Computing Diagnostic #    79 "DRHODR  " (list#  1) Parms "SM      LR      ", Count=      10
 Computing Diagnostic #    64 "RHOAnoma" (list#  1) Parms "SMR     MR      ", Count=      10
 Computing Diagnostic #    80 "CONVADJ " (list#  1) Parms "SMR     LR      ", Count=      10
 Computing Diagnostic #   210 "GM_Kwx  " (list#  1) Parms "UM      LR      ", Count=      10
             Vector  Mate for "GM_Kwx  " :  Diagnostic #    211 "GM_Kwy  " exists
 Computing Diagnostic #   211 "GM_Kwy  " (list#  1) Parms "VM      LR      ", Count=      10
             Vector  Mate for "GM_Kwy  " :  Diagnostic #    210 "GM_Kwx  " exists
 Computing Diagnostic #   212 "GM_Kwz  " (list#  1) Parms "WM P    LR      ", Count=      10
 Computing Diagnostic #   213 "GM_PsiX " (list#  1) Parms "UU      LR      ", Count=      10
             Vector  Mate for "GM_PsiX " :  Diagnostic #    214 "GM_PsiY " exists
 Computing Diagnostic #   214 "GM_PsiY " (list#  1) Parms "VV      LR      ", Count=      10
             Vector  Mate for "GM_PsiY " :  Diagnostic #    213 "GM_PsiX " exists
 EXTERNAL_FIELDS_LOAD,       740 : iP,iLd,i0,i1=    1    2    1    2 ; Wght=  0.8333333333  0.1666666667
 cg2d: Sum(rhs),rhsMax =   2.84217094304040E-14  4.90866595548764E+00
 EXTERNAL_FIELDS_LOAD,       741 : iP,iLd,i0,i1=    1    2    1    2 ; Wght=  0.8000000000  0.2000000000
 cg2d: Sum(rhs),rhsMax =  -1.13686837721616E-13  4.91124293190726E+00
 EXTERNAL_FIELDS_LOAD,       742 : iP,iLd,i0,i1=    1    2    1    2 ; Wght=  0.7666666667  0.2333333333
 cg2d: Sum(rhs),rhsMax =   2.84217094304040E-14  4.91388664248732E+00
 EXTERNAL_FIELDS_LOAD,       743 : iP,iLd,i0,i1=    1    2    1    2 ; Wght=  0.7333333333  0.2666666667
 cg2d: Sum(rhs),rhsMax =  -2.84217094304040E-14  4.91659868081144E+00
 EXTERNAL_FIELDS_LOAD,       744 : iP,iLd,i0,i1=    1    2    1    2 ; Wght=  0.7000000000  0.3000000000
 cg2d: Sum(rhs),rhsMax =  -3.41060513164848E-13  4.91938216509532E+00
 EXTERNAL_FIELDS_LOAD,       745 : iP,iLd,i0,i1=    1    2    1    2 ; Wght=  0.6666666667  0.3333333333
 cg2d: Sum(rhs),rhsMax =   0.00000000000000E+00  4.92224102254267E+00
 Compute Stats, Diag. #    23 "ETAN    " (list#  1) Parms "SM      M1      ", vol(  0 )= 3.639E+14
 Compute Stats, Diag. #    30 "UVEL    " (list#  1) Parms "UUR     MR      ", vol(  0 )= 1.231E+18
 Compute Stats, Diag. #    31 "VVEL    " (list#  1) Parms "VVR     MR      ", vol(  0 )= 1.243E+18
 Compute Stats, Diag. #    32 "WVEL    " (list#  1) Parms "WM      LR      ", vol(  0 )= 1.315E+18
 Compute Stats, Diag. #    26 "THETA   " (list#  1) Parms "SMR     MR      ", vol(  0 )= 1.340E+18
 EXTERNAL_FIELDS_LOAD,       746 : iP,iLd,i0,i1=    1    2    1    2 ; Wght=  0.6333333333  0.3666666667
 cg2d: Sum(rhs),rhsMax =  -3.12638803734444E-13  4.92517919499287E+00
 EXTERNAL_FIELDS_LOAD,       747 : iP,iLd,i0,i1=    1    2    1    2 ; Wght=  0.6000000000  0.4000000000
 cg2d: Sum(rhs),rhsMax =   2.84217094304040E-14  4.92819998609593E+00
 EXTERNAL_FIELDS_LOAD,       748 : iP,iLd,i0,i1=    1    2    1    2 ; Wght=  0.5666666667  0.4333333333
 cg2d: Sum(rhs),rhsMax =  -5.68434188608080E-14  4.93130599529122E+00
 EXTERNAL_FIELDS_LOAD,       749 : iP,iLd,i0,i1=    1    2    1    2 ; Wght=  0.5333333333  0.4666666667
 cg2d: Sum(rhs),rhsMax =   0.00000000000000E+00  4.93449895719805E+00
(PID.TID 0000.0001)      cg2d_init_res =   2.19928376024519E-01
(PID.TID 0000.0001)      cg2d_iters(min,last) =      -1      60
(PID.TID 0000.0001)      cg2d_last_res =   5.75777180651559E-07
(PID.TID 0000.0001) // =======================================================
(PID.TID 0000.0001) // Begin MONITOR dynamic field statistics
(PID.TID 0000.0001) // =======================================================
(PID.TID 0000.0001) %MON time_tsnumber                =                   750
(PID.TID 0000.0001) %MON time_secondsf                =   6.4800000000000E+07
(PID.TID 0000.0001) %MON dynstat_eta_max              =   8.9786723181894E-01
(PID.TID 0000.0001) %MON dynstat_eta_min              =  -1.8445231698107E+00
(PID.TID 0000.0001) %MON dynstat_eta_mean             =   2.6107024578732E-16
(PID.TID 0000.0001) %MON dynstat_eta_sd               =   6.2667187182317E-01
(PID.TID 0000.0001) %MON dynstat_eta_del2             =   8.3360730817604E-04
(PID.TID 0000.0001) %MON dynstat_uvel_max             =   1.5114763425972E-01
(PID.TID 0000.0001) %MON dynstat_uvel_min             =  -2.6648293803873E-01
(PID.TID 0000.0001) %MON dynstat_uvel_mean            =  -5.2536921954077E-04
(PID.TID 0000.0001) %MON dynstat_uvel_sd              =   1.2916292473691E-02
(PID.TID 0000.0001) %MON dynstat_uvel_del2            =   5.3982827360859E-05
(PID.TID 0000.0001) %MON dynstat_vvel_max             =   1.8304117634073E-01
(PID.TID 0000.0001) %MON dynstat_vvel_min             =  -1.9032467640148E-01
(PID.TID 0000.0001) %MON dynstat_vvel_mean            =  -4.2680449655561E-04
(PID.TID 0000.0001) %MON dynstat_vvel_sd              =   1.2986484532212E-02
(PID.TID 0000.0001) %MON dynstat_vvel_del2            =   5.3125304754359E-05
(PID.TID 0000.0001) %MON dynstat_wvel_max             =   1.2596272328074E-04
(PID.TID 0000.0001) %MON dynstat_wvel_min             =  -2.2833218549224E-04
(PID.TID 0000.0001) %MON dynstat_wvel_mean            =   1.3924874662967E-22
(PID.TID 0000.0001) %MON dynstat_wvel_sd              =   4.6066771555441E-06
(PID.TID 0000.0001) %MON dynstat_wvel_del2            =   3.3007258614959E-08
(PID.TID 0000.0001) %MON dynstat_theta_max            =   3.1114108142030E+01
(PID.TID 0000.0001) %MON dynstat_theta_min            =  -6.8370494716404E+00
(PID.TID 0000.0001) %MON dynstat_theta_mean           =   3.6095129483355E+00
(PID.TID 0000.0001) %MON dynstat_theta_sd             =   4.4210028868634E+00
(PID.TID 0000.0001) %MON dynstat_theta_del2           =   2.9039312252007E-03
(PID.TID 0000.0001) %MON dynstat_salt_max             =   4.0885668531991E+01
(PID.TID 0000.0001) %MON dynstat_salt_min             =   1.8609799268112E+01
(PID.TID 0000.0001) %MON dynstat_salt_mean            =   3.4721088809911E+01
(PID.TID 0000.0001) %MON dynstat_salt_sd              =   4.9521718208215E-01
(PID.TID 0000.0001) %MON dynstat_salt_del2            =   9.3678848473581E-04
(PID.TID 0000.0001) %MON forcing_qnet_max             =   4.2693997077631E+02
(PID.TID 0000.0001) %MON forcing_qnet_min             =  -1.9343616982889E+02
(PID.TID 0000.0001) %MON forcing_qnet_mean            =  -1.2968551416263E+01
(PID.TID 0000.0001) %MON forcing_qnet_sd              =   9.9492223300472E+01
(PID.TID 0000.0001) %MON forcing_qnet_del2            =   4.2364946540961E-01
(PID.TID 0000.0001) %MON forcing_qsw_max              =   0.0000000000000E+00
(PID.TID 0000.0001) %MON forcing_qsw_min              =   0.0000000000000E+00
(PID.TID 0000.0001) %MON forcing_qsw_mean             =   0.0000000000000E+00
(PID.TID 0000.0001) %MON forcing_qsw_sd               =   0.0000000000000E+00
(PID.TID 0000.0001) %MON forcing_qsw_del2             =   0.0000000000000E+00
(PID.TID 0000.0001) %MON forcing_empmr_max            =   7.6494447208479E-05
(PID.TID 0000.0001) %MON forcing_empmr_min            =  -1.5362614137596E-04
(PID.TID 0000.0001) %MON forcing_empmr_mean           =  -2.7256318706594E-21
(PID.TID 0000.0001) %MON forcing_empmr_sd             =   2.4051723601802E-05
(PID.TID 0000.0001) %MON forcing_empmr_del2           =   1.2276157049243E-07
(PID.TID 0000.0001) %MON forcing_fu_max               =   2.4203671674909E-01
(PID.TID 0000.0001) %MON forcing_fu_min               =  -1.9431438996982E-01
(PID.TID 0000.0001) %MON forcing_fu_mean              =  -4.3454983033901E-03
(PID.TID 0000.0001) %MON forcing_fu_sd                =   6.3991651081989E-02
(PID.TID 0000.0001) %MON forcing_fu_del2              =   2.0330644295017E-04
(PID.TID 0000.0001) %MON forcing_fv_max               =   2.8181226170264E-01
(PID.TID 0000.0001) %MON forcing_fv_min               =  -2.9135458178179E-01
(PID.TID 0000.0001) %MON forcing_fv_mean              =  -1.3718324798732E-02
(PID.TID 0000.0001) %MON forcing_fv_sd                =   7.4616601676114E-02
(PID.TID 0000.0001) %MON forcing_fv_del2              =   2.3832796041755E-04
(PID.TID 0000.0001) %MON trAdv_CFL_u_max              =   9.9547027148555E-02
(PID.TID 0000.0001) %MON trAdv_CFL_v_max              =   1.0962475548142E-01
(PID.TID 0000.0001) %MON trAdv_CFL_w_max              =   1.6875575625926E-01
(PID.TID 0000.0001) %MON advcfl_uvel_max              =   7.5579616059098E-02
(PID.TID 0000.0001) %MON advcfl_vvel_max              =   7.9785070043624E-02
(PID.TID 0000.0001) %MON advcfl_wvel_max              =   7.4444908779357E-02
(PID.TID 0000.0001) %MON advcfl_W_hf_max              =   8.2199586777207E-02
(PID.TID 0000.0001) %MON pe_b_mean                    =   5.2317246241629E-04
(PID.TID 0000.0001) %MON ke_max                       =   3.4647497376609E-02
(PID.TID 0000.0001) %MON ke_mean                      =   1.5509752078394E-04
(PID.TID 0000.0001) %MON ke_vol                       =   1.3398024453628E+18
(PID.TID 0000.0001) %MON vort_r_min                   =  -1.1218568314182E-06
(PID.TID 0000.0001) %MON vort_r_max                   =   1.1847597965533E-06
(PID.TID 0000.0001) %MON vort_a_mean                  =  -2.0549865324846E-05
(PID.TID 0000.0001) %MON vort_a_sd                    =   7.5259622378124E-05
(PID.TID 0000.0001) %MON vort_p_mean                  =  -2.4783522345032E-05
(PID.TID 0000.0001) %MON vort_p_sd                    =   1.2810651448341E-04
(PID.TID 0000.0001) %MON surfExpan_theta_mean         =   4.9849957640651E-08
(PID.TID 0000.0001) %MON surfExpan_salt_mean          =   1.5460331721883E-08
(PID.TID 0000.0001) // =======================================================
(PID.TID 0000.0001) // End MONITOR dynamic field statistics
(PID.TID 0000.0001) // =======================================================
(PID.TID 0000.0001) // =======================================================
(PID.TID 0000.0001) // Begin MONITOR ptracer field statistics
(PID.TID 0000.0001) // =======================================================
(PID.TID 0000.0001) %MON trcstat_ptracer01_max        =   6.6753565010940E+07
(PID.TID 0000.0001) %MON trcstat_ptracer01_min        =  -3.1787617237484E+06
(PID.TID 0000.0001) %MON trcstat_ptracer01_mean       =   6.2976492444072E+07
(PID.TID 0000.0001) %MON trcstat_ptracer01_sd         =   8.6198188689070E+06
(PID.TID 0000.0001) %MON trcstat_ptracer01_del2       =   1.7268289625967E+04
(PID.TID 0000.0001) // =======================================================
(PID.TID 0000.0001) // End MONITOR ptracer field statistics
(PID.TID 0000.0001) // =======================================================
 Computing Diagnostic #    79 "DRHODR  " (list#  1) Parms "SM      LR      ", Count=      10
 Computing Diagnostic #    64 "RHOAnoma" (list#  1) Parms "SMR     MR      ", Count=      10
 Computing Diagnostic #    80 "CONVADJ " (list#  1) Parms "SMR     LR      ", Count=      10
 Computing Diagnostic #   210 "GM_Kwx  " (list#  1) Parms "UM      LR      ", Count=      10
             Vector  Mate for "GM_Kwx  " :  Diagnostic #    211 "GM_Kwy  " exists
 Computing Diagnostic #   211 "GM_Kwy  " (list#  1) Parms "VM      LR      ", Count=      10
             Vector  Mate for "GM_Kwy  " :  Diagnostic #    210 "GM_Kwx  " exists
 Computing Diagnostic #   212 "GM_Kwz  " (list#  1) Parms "WM P    LR      ", Count=      10
 Computing Diagnostic #   213 "GM_PsiX " (list#  1) Parms "UU      LR      ", Count=      10
             Vector  Mate for "GM_PsiX " :  Diagnostic #    214 "GM_PsiY " exists
 Computing Diagnostic #   214 "GM_PsiY " (list#  1) Parms "VV      LR      ", Count=      10
             Vector  Mate for "GM_PsiY " :  Diagnostic #    213 "GM_PsiX " exists
 EXTERNAL_FIELDS_LOAD,       750 : iP,iLd,i0,i1=    1    2    1    2 ; Wght=  0.5000000000  0.5000000000
 cg2d: Sum(rhs),rhsMax =  -1.42108547152020E-13  4.93777969380789E+00
 EXTERNAL_FIELDS_LOAD,       751 : iP,iLd,i0,i1=    1    2    1    2 ; Wght=  0.4666666667  0.5333333333
 cg2d: Sum(rhs),rhsMax =  -2.27373675443232E-13  4.94114799828901E+00
 EXTERNAL_FIELDS_LOAD,       752 : iP,iLd,i0,i1=    1    2    1    2 ; Wght=  0.4333333333  0.5666666667
 cg2d: Sum(rhs),rhsMax =  -3.41060513164848E-13  4.94460231374172E+00
 EXTERNAL_FIELDS_LOAD,       753 : iP,iLd,i0,i1=    1    2    1    2 ; Wght=  0.4000000000  0.6000000000
 cg2d: Sum(rhs),rhsMax =  -1.70530256582424E-13  4.94813955577055E+00
 EXTERNAL_FIELDS_LOAD,       754 : iP,iLd,i0,i1=    1    2    1    2 ; Wght=  0.3666666667  0.6333333333
 cg2d: Sum(rhs),rhsMax =  -1.98951966012828E-13  4.95175463804985E+00
 EXTERNAL_FIELDS_LOAD,       755 : iP,iLd,i0,i1=    1    2    1    2 ; Wght=  0.3333333333  0.6666666667
 cg2d: Sum(rhs),rhsMax =  -2.55795384873636E-13  4.95544018896296E+00
 Compute Stats, Diag. #    23 "ETAN    " (list#  1) Parms "SM      M1      ", vol(  0 )= 3.639E+14
 Compute Stats, Diag. #    30 "UVEL    " (list#  1) Parms "UUR     MR      ", vol(  0 )= 1.231E+18
 Compute Stats, Diag. #    31 "VVEL    " (list#  1) Parms "VVR     MR      ", vol(  0 )= 1.243E+18
 Compute Stats, Diag. #    32 "WVEL    " (list#  1) Parms "WM      LR      ", vol(  0 )= 1.315E+18
 Compute Stats, Diag. #    26 "THETA   " (list#  1) Parms "SMR     MR      ", vol(  0 )= 1.340E+18
 EXTERNAL_FIELDS_LOAD,       756 : iP,iLd,i0,i1=    1    2    1    2 ; Wght=  0.3000000000  0.7000000000
 cg2d: Sum(rhs),rhsMax =  -1.13686837721616E-13  4.95918626621578E+00
 EXTERNAL_FIELDS_LOAD,       757 : iP,iLd,i0,i1=    1    2    1    2 ; Wght=  0.2666666667  0.7333333333
 cg2d: Sum(rhs),rhsMax =   1.98951966012828E-13  4.96298024915044E+00
 EXTERNAL_FIELDS_LOAD,       758 : iP,iLd,i0,i1=    1    2    1    2 ; Wght=  0.2333333333  0.7666666667
 cg2d: Sum(rhs),rhsMax =  -1.42108547152020E-13  4.96680681301572E+00
 EXTERNAL_FIELDS_LOAD,       759 : iP,iLd,i0,i1=    1    2    1    2 ; Wght=  0.2000000000  0.8000000000
 cg2d: Sum(rhs),rhsMax =  -1.42108547152020E-13  4.97064790614913E+00
 Computing Diagnostic #    79 "DRHODR  " (list#  1) Parms "SM      LR      ", Count=      10
 Computing Diagnostic #    64 "RHOAnoma" (list#  1) Parms "SMR     MR      ", Count=      10
 Computing Diagnostic #    80 "CONVADJ " (list#  1) Parms "SMR     LR      ", Count=      10
 Computing Diagnostic #   210 "GM_Kwx  " (list#  1) Parms "UM      LR      ", Count=      10
             Vector  Mate for "GM_Kwx  " :  Diagnostic #    211 "GM_Kwy  " exists
 Computing Diagnostic #   211 "GM_Kwy  " (list#  1) Parms "VM      LR      ", Count=      10
             Vector  Mate for "GM_Kwy  " :  Diagnostic #    210 "GM_Kwx  " exists
 Computing Diagnostic #   212 "GM_Kwz  " (list#  1) Parms "WM P    LR      ", Count=      10
 Computing Diagnostic #   213 "GM_PsiX " (list#  1) Parms "UU      LR      ", Count=      10
             Vector  Mate for "GM_PsiX " :  Diagnostic #    214 "GM_PsiY " exists
 Computing Diagnostic #   214 "GM_PsiY " (list#  1) Parms "VV      LR      ", Count=      10
             Vector  Mate for "GM_PsiY " :  Diagnostic #    213 "GM_PsiX " exists
 EXTERNAL_FIELDS_LOAD,       760 : iP,iLd,i0,i1=    1    2    1    2 ; Wght=  0.1666666667  0.8333333333
 cg2d: Sum(rhs),rhsMax =  -2.84217094304040E-14  4.97448305822395E+00
 EXTERNAL_FIELDS_LOAD,       761 : iP,iLd,i0,i1=    1    2    1    2 ; Wght=  0.1333333333  0.8666666667
 cg2d: Sum(rhs),rhsMax =   8.52651282912120E-14  4.97828963327920E+00
 EXTERNAL_FIELDS_LOAD,       762 : iP,iLd,i0,i1=    1    2    1    2 ; Wght=  0.1000000000  0.9000000000
 cg2d: Sum(rhs),rhsMax =  -1.98951966012828E-13  4.98204323227252E+00
 EXTERNAL_FIELDS_LOAD,       763 : iP,iLd,i0,i1=    1    2    1    2 ; Wght=  0.0666666667  0.9333333333
 cg2d: Sum(rhs),rhsMax =  -8.52651282912120E-14  4.98571816967159E+00
 EXTERNAL_FIELDS_LOAD,       764 : iP,iLd,i0,i1=    1    2    1    2 ; Wght=  0.0333333333  0.9666666667
 cg2d: Sum(rhs),rhsMax =  -2.27373675443232E-13  4.98928799949074E+00
 EXTERNAL_FIELDS_LOAD,       765 : iP,iLd,i0,i1=    1    2    2    3 ; Wght=  1.0000000000  0.0000000000
 EXTERNAL_FIELDS_LOAD, it=       765 : Reading new data, i0,i1=    2    3 (prev=    1    2 )
(PID.TID 0000.0001)  MDS_READ_FIELD: opening global file: trenberth_taux.bin
(PID.TID 0000.0001)  MDS_READ_FIELD: opening global file: trenberth_taux.bin
(PID.TID 0000.0001)  MDS_READ_FIELD: opening global file: trenberth_tauy.bin
(PID.TID 0000.0001)  MDS_READ_FIELD: opening global file: trenberth_tauy.bin
(PID.TID 0000.0001)  MDS_READ_FIELD: opening global file: shiQnet_cs32.bin
(PID.TID 0000.0001)  MDS_READ_FIELD: opening global file: shiQnet_cs32.bin
(PID.TID 0000.0001)  MDS_READ_FIELD: opening global file: shiEmPR_cs32.bin
(PID.TID 0000.0001)  MDS_READ_FIELD: opening global file: shiEmPR_cs32.bin
(PID.TID 0000.0001)  MDS_READ_FIELD: opening global file: lev_surfT_cs_12m.bin
(PID.TID 0000.0001)  MDS_READ_FIELD: opening global file: lev_surfT_cs_12m.bin
(PID.TID 0000.0001)  MDS_READ_FIELD: opening global file: lev_surfS_cs_12m.bin
(PID.TID 0000.0001)  MDS_READ_FIELD: opening global file: lev_surfS_cs_12m.bin
 cg2d: Sum(rhs),rhsMax =  -1.13686837721616E-13  4.99272608188284E+00
 Compute Stats, Diag. #    23 "ETAN    " (list#  1) Parms "SM      M1      ", vol(  0 )= 3.639E+14
 Compute Stats, Diag. #    30 "UVEL    " (list#  1) Parms "UUR     MR      ", vol(  0 )= 1.231E+18
 Compute Stats, Diag. #    31 "VVEL    " (list#  1) Parms "VVR     MR      ", vol(  0 )= 1.243E+18
 Compute Stats, Diag. #    32 "WVEL    " (list#  1) Parms "WM      LR      ", vol(  0 )= 1.315E+18
 Compute Stats, Diag. #    26 "THETA   " (list#  1) Parms "SMR     MR      ", vol(  0 )= 1.340E+18
 EXTERNAL_FIELDS_LOAD,       766 : iP,iLd,i0,i1=    2    3    2    3 ; Wght=  0.9666666667  0.0333333333
 cg2d: Sum(rhs),rhsMax =  -3.41060513164848E-13  4.99601485260169E+00
 EXTERNAL_FIELDS_LOAD,       767 : iP,iLd,i0,i1=    2    3    2    3 ; Wght=  0.9333333333  0.0666666667
 cg2d: Sum(rhs),rhsMax =  -5.68434188608080E-14  4.99908710608454E+00
 EXTERNAL_FIELDS_LOAD,       768 : iP,iLd,i0,i1=    2    3    2    3 ; Wght=  0.9000000000  0.1000000000
 cg2d: Sum(rhs),rhsMax =  -4.54747350886464E-13  5.00192276679009E+00
 EXTERNAL_FIELDS_LOAD,       769 : iP,iLd,i0,i1=    2    3    2    3 ; Wght=  0.8666666667  0.1333333333
 cg2d: Sum(rhs),rhsMax =  -2.84217094304040E-13  5.00449764852498E+00
 Computing Diagnostic #    79 "DRHODR  " (list#  1) Parms "SM      LR      ", Count=      10
 Computing Diagnostic #    64 "RHOAnoma" (list#  1) Parms "SMR     MR      ", Count=      10
 Computing Diagnostic #    80 "CONVADJ " (list#  1) Parms "SMR     LR      ", Count=      10
 Computing Diagnostic #   210 "GM_Kwx  " (list#  1) Parms "UM      LR      ", Count=      10
             Vector  Mate for "GM_Kwx  " :  Diagnostic #    211 "GM_Kwy  " exists
 Computing Diagnostic #   211 "GM_Kwy  " (list#  1) Parms "VM      LR      ", Count=      10
             Vector  Mate for "GM_Kwy  " :  Diagnostic #    210 "GM_Kwx  " exists
 Computing Diagnostic #   212 "GM_Kwz  " (list#  1) Parms "WM P    LR      ", Count=      10
 Computing Diagnostic #   213 "GM_PsiX " (list#  1) Parms "UU      LR      ", Count=      10
             Vector  Mate for "GM_PsiX " :  Diagnostic #    214 "GM_PsiY " exists
 Computing Diagnostic #   214 "GM_PsiY " (list#  1) Parms "VV      LR      ", Count=      10
             Vector  Mate for "GM_PsiY " :  Diagnostic #    213 "GM_PsiX " exists
 EXTERNAL_FIELDS_LOAD,       770 : iP,iLd,i0,i1=    2    3    2    3 ; Wght=  0.8333333333  0.1666666667
 cg2d: Sum(rhs),rhsMax =   8.52651282912120E-14  5.00678982758536E+00
 EXTERNAL_FIELDS_LOAD,       771 : iP,iLd,i0,i1=    2    3    2    3 ; Wght=  0.8000000000  0.2000000000
 cg2d: Sum(rhs),rhsMax =  -2.84217094304040E-13  5.00877873717747E+00
 EXTERNAL_FIELDS_LOAD,       772 : iP,iLd,i0,i1=    2    3    2    3 ; Wght=  0.7666666667  0.2333333333
 cg2d: Sum(rhs),rhsMax =  -1.13686837721616E-13  5.01044686309867E+00
 EXTERNAL_FIELDS_LOAD,       773 : iP,iLd,i0,i1=    2    3    2    3 ; Wght=  0.7333333333  0.2666666667
 cg2d: Sum(rhs),rhsMax =  -1.42108547152020E-13  5.01178011326228E+00
 EXTERNAL_FIELDS_LOAD,       774 : iP,iLd,i0,i1=    2    3    2    3 ; Wght=  0.7000000000  0.3000000000
 cg2d: Sum(rhs),rhsMax =  -2.84217094304040E-14  5.01276762355573E+00
 EXTERNAL_FIELDS_LOAD,       775 : iP,iLd,i0,i1=    2    3    2    3 ; Wght=  0.6666666667  0.3333333333
 cg2d: Sum(rhs),rhsMax =  -1.13686837721616E-13  5.01340160718013E+00
 Compute Stats, Diag. #    23 "ETAN    " (list#  1) Parms "SM      M1      ", vol(  0 )= 3.639E+14
 Compute Stats, Diag. #    30 "UVEL    " (list#  1) Parms "UUR     MR      ", vol(  0 )= 1.231E+18
 Compute Stats, Diag. #    31 "VVEL    " (list#  1) Parms "VVR     MR      ", vol(  0 )= 1.243E+18
 Compute Stats, Diag. #    32 "WVEL    " (list#  1) Parms "WM      LR      ", vol(  0 )= 1.315E+18
 Compute Stats, Diag. #    26 "THETA   " (list#  1) Parms "SMR     MR      ", vol(  0 )= 1.340E+18
 EXTERNAL_FIELDS_LOAD,       776 : iP,iLd,i0,i1=    2    3    2    3 ; Wght=  0.6333333333  0.3666666667
 cg2d: Sum(rhs),rhsMax =   0.00000000000000E+00  5.01367737688778E+00
 EXTERNAL_FIELDS_LOAD,       777 : iP,iLd,i0,i1=    2    3    2    3 ; Wght=  0.6000000000  0.4000000000
 cg2d: Sum(rhs),rhsMax =  -4.54747350886464E-13  5.01359328502021E+00
 EXTERNAL_FIELDS_LOAD,       778 : iP,iLd,i0,i1=    2    3    2    3 ; Wght=  0.5666666667  0.4333333333
 cg2d: Sum(rhs),rhsMax =  -2.55795384873636E-13  5.01315101542345E+00
 EXTERNAL_FIELDS_LOAD,       779 : iP,iLd,i0,i1=    2    3    2    3 ; Wght=  0.5333333333  0.4666666667
 cg2d: Sum(rhs),rhsMax =  -2.84217094304040E-14  5.01235512484002E+00
(PID.TID 0000.0001)      cg2d_init_res =   1.44216733823296E-01
(PID.TID 0000.0001)      cg2d_iters(min,last) =      -1      60
(PID.TID 0000.0001)      cg2d_last_res =   5.47585166999087E-07
(PID.TID 0000.0001) // =======================================================
(PID.TID 0000.0001) // Begin MONITOR dynamic field statistics
(PID.TID 0000.0001) // =======================================================
(PID.TID 0000.0001) %MON time_tsnumber                =                   780
(PID.TID 0000.0001) %MON time_secondsf                =   6.7392000000000E+07
(PID.TID 0000.0001) %MON dynstat_eta_max              =   8.9129531277759E-01
(PID.TID 0000.0001) %MON dynstat_eta_min              =  -1.8418339255435E+00
(PID.TID 0000.0001) %MON dynstat_eta_mean             =   1.6488647102357E-16
(PID.TID 0000.0001) %MON dynstat_eta_sd               =   6.2577703180055E-01
(PID.TID 0000.0001) %MON dynstat_eta_del2             =   8.4731241036450E-04
(PID.TID 0000.0001) %MON dynstat_uvel_max             =   1.5092022424650E-01
(PID.TID 0000.0001) %MON dynstat_uvel_min             =  -2.4680446335767E-01
(PID.TID 0000.0001) %MON dynstat_uvel_mean            =  -5.0266149147455E-04
(PID.TID 0000.0001) %MON dynstat_uvel_sd              =   1.2829287310157E-02
(PID.TID 0000.0001) %MON dynstat_uvel_del2            =   5.4504001803552E-05
(PID.TID 0000.0001) %MON dynstat_vvel_max             =   1.7269820951479E-01
(PID.TID 0000.0001) %MON dynstat_vvel_min             =  -1.9205755953040E-01
(PID.TID 0000.0001) %MON dynstat_vvel_mean            =  -4.0415079868176E-04
(PID.TID 0000.0001) %MON dynstat_vvel_sd              =   1.2918430619768E-02
(PID.TID 0000.0001) %MON dynstat_vvel_del2            =   5.3590897703310E-05
(PID.TID 0000.0001) %MON dynstat_wvel_max             =   1.2511280302419E-04
(PID.TID 0000.0001) %MON dynstat_wvel_min             =  -2.3666834075667E-04
(PID.TID 0000.0001) %MON dynstat_wvel_mean            =   9.5733513307901E-23
(PID.TID 0000.0001) %MON dynstat_wvel_sd              =   4.5030308151642E-06
(PID.TID 0000.0001) %MON dynstat_wvel_del2            =   3.3627619883353E-08
(PID.TID 0000.0001) %MON dynstat_theta_max            =   3.1194467377242E+01
(PID.TID 0000.0001) %MON dynstat_theta_min            =  -6.9585528316259E+00
(PID.TID 0000.0001) %MON dynstat_theta_mean           =   3.6113295938268E+00
(PID.TID 0000.0001) %MON dynstat_theta_sd             =   4.4296643023244E+00
(PID.TID 0000.0001) %MON dynstat_theta_del2           =   3.0380030666427E-03
(PID.TID 0000.0001) %MON dynstat_salt_max             =   4.0927132681169E+01
(PID.TID 0000.0001) %MON dynstat_salt_min             =   1.8616657687355E+01
(PID.TID 0000.0001) %MON dynstat_salt_mean            =   3.4721116853891E+01
(PID.TID 0000.0001) %MON dynstat_salt_sd              =   4.9521732785916E-01
(PID.TID 0000.0001) %MON dynstat_salt_del2            =   9.6713201802962E-04
(PID.TID 0000.0001) %MON forcing_qnet_max             =   3.3042634335178E+02
(PID.TID 0000.0001) %MON forcing_qnet_min             =  -1.7660851259454E+02
(PID.TID 0000.0001) %MON forcing_qnet_mean            =  -1.0852729938019E+01
(PID.TID 0000.0001) %MON forcing_qnet_sd              =   7.0657056700312E+01
(PID.TID 0000.0001) %MON forcing_qnet_del2            =   4.2814957942894E-01
(PID.TID 0000.0001) %MON forcing_qsw_max              =   0.0000000000000E+00
(PID.TID 0000.0001) %MON forcing_qsw_min              =   0.0000000000000E+00
(PID.TID 0000.0001) %MON forcing_qsw_mean             =   0.0000000000000E+00
(PID.TID 0000.0001) %MON forcing_qsw_sd               =   0.0000000000000E+00
(PID.TID 0000.0001) %MON forcing_qsw_del2             =   0.0000000000000E+00
(PID.TID 0000.0001) %MON forcing_empmr_max            =   7.6494447208479E-05
(PID.TID 0000.0001) %MON forcing_empmr_min            =  -1.5362614137596E-04
(PID.TID 0000.0001) %MON forcing_empmr_mean           =  -2.7256318706594E-21
(PID.TID 0000.0001) %MON forcing_empmr_sd             =   2.4051723601802E-05
(PID.TID 0000.0001) %MON forcing_empmr_del2           =   1.2276157049243E-07
(PID.TID 0000.0001) %MON forcing_fu_max               =   2.5900680920623E-01
(PID.TID 0000.0001) %MON forcing_fu_min               =  -2.7674482002417E-01
(PID.TID 0000.0001) %MON forcing_fu_mean              =  -6.6071708361519E-03
(PID.TID 0000.0001) %MON forcing_fu_sd                =   6.6479507797018E-02
(PID.TID 0000.0001) %MON forcing_fu_del2              =   2.0283374775688E-04
(PID.TID 0000.0001) %MON forcing_fv_max               =   2.5607026525915E-01
(PID.TID 0000.0001) %MON forcing_fv_min               =  -3.1974616055058E-01
(PID.TID 0000.0001) %MON forcing_fv_mean              =  -1.3204626201289E-02
(PID.TID 0000.0001) %MON forcing_fv_sd                =   7.6035559339825E-02
(PID.TID 0000.0001) %MON forcing_fv_del2              =   2.3251705072657E-04
(PID.TID 0000.0001) %MON trAdv_CFL_u_max              =   8.6117636077170E-02
(PID.TID 0000.0001) %MON trAdv_CFL_v_max              =   1.0031518151567E-01
(PID.TID 0000.0001) %MON trAdv_CFL_w_max              =   1.4256703984454E-01
(PID.TID 0000.0001) %MON advcfl_uvel_max              =   6.9998427364731E-02
(PID.TID 0000.0001) %MON advcfl_vvel_max              =   7.3727084452880E-02
(PID.TID 0000.0001) %MON advcfl_wvel_max              =   7.7162809967458E-02
(PID.TID 0000.0001) %MON advcfl_W_hf_max              =   8.5200602672401E-02
(PID.TID 0000.0001) %MON pe_b_mean                    =   5.2167942775586E-04
(PID.TID 0000.0001) %MON ke_max                       =   3.3092222388606E-02
(PID.TID 0000.0001) %MON ke_mean                      =   1.5323085298851E-04
(PID.TID 0000.0001) %MON ke_vol                       =   1.3398024453628E+18
(PID.TID 0000.0001) %MON vort_r_min                   =  -1.1397612058314E-06
(PID.TID 0000.0001) %MON vort_r_max                   =   1.1446339443720E-06
(PID.TID 0000.0001) %MON vort_a_mean                  =  -2.0549865324846E-05
(PID.TID 0000.0001) %MON vort_a_sd                    =   7.5259627015735E-05
(PID.TID 0000.0001) %MON vort_p_mean                  =  -2.4783522345032E-05
(PID.TID 0000.0001) %MON vort_p_sd                    =   1.2810627544987E-04
(PID.TID 0000.0001) %MON surfExpan_theta_mean         =   7.6927816312415E-08
(PID.TID 0000.0001) %MON surfExpan_salt_mean          =   1.6852469524451E-08
(PID.TID 0000.0001) // =======================================================
(PID.TID 0000.0001) // End MONITOR dynamic field statistics
(PID.TID 0000.0001) // =======================================================
(PID.TID 0000.0001) // =======================================================
(PID.TID 0000.0001) // Begin MONITOR ptracer field statistics
(PID.TID 0000.0001) // =======================================================
(PID.TID 0000.0001) %MON trcstat_ptracer01_max        =   6.9235205551483E+07
(PID.TID 0000.0001) %MON trcstat_ptracer01_min        =  -3.7588187859994E+06
(PID.TID 0000.0001) %MON trcstat_ptracer01_mean       =   6.5470735496454E+07
(PID.TID 0000.0001) %MON trcstat_ptracer01_sd         =   9.0074809980411E+06
(PID.TID 0000.0001) %MON trcstat_ptracer01_del2       =   1.8641705028614E+04
(PID.TID 0000.0001) // =======================================================
(PID.TID 0000.0001) // End MONITOR ptracer field statistics
(PID.TID 0000.0001) // =======================================================
 Computing Diagnostic #    79 "DRHODR  " (list#  1) Parms "SM      LR      ", Count=      10
 Computing Diagnostic #    64 "RHOAnoma" (list#  1) Parms "SMR     MR      ", Count=      10
 Computing Diagnostic #    80 "CONVADJ " (list#  1) Parms "SMR     LR      ", Count=      10
 Computing Diagnostic #   210 "GM_Kwx  " (list#  1) Parms "UM      LR      ", Count=      10
             Vector  Mate for "GM_Kwx  " :  Diagnostic #    211 "GM_Kwy  " exists
 Computing Diagnostic #   211 "GM_Kwy  " (list#  1) Parms "VM      LR      ", Count=      10
             Vector  Mate for "GM_Kwy  " :  Diagnostic #    210 "GM_Kwx  " exists
 Computing Diagnostic #   212 "GM_Kwz  " (list#  1) Parms "WM P    LR      ", Count=      10
 Computing Diagnostic #   213 "GM_PsiX " (list#  1) Parms "UU      LR      ", Count=      10
             Vector  Mate for "GM_PsiX " :  Diagnostic #    214 "GM_PsiY " exists
 Computing Diagnostic #   214 "GM_PsiY " (list#  1) Parms "VV      LR      ", Count=      10
             Vector  Mate for "GM_PsiY " :  Diagnostic #    213 "GM_PsiX " exists
 EXTERNAL_FIELDS_LOAD,       780 : iP,iLd,i0,i1=    2    3    2    3 ; Wght=  0.5000000000  0.5000000000
 cg2d: Sum(rhs),rhsMax =  -1.42108547152020E-13  5.01121306654842E+00
 EXTERNAL_FIELDS_LOAD,       781 : iP,iLd,i0,i1=    2    3    2    3 ; Wght=  0.4666666667  0.5333333333
 cg2d: Sum(rhs),rhsMax =  -1.42108547152020E-13  5.00973480209065E+00
 EXTERNAL_FIELDS_LOAD,       782 : iP,iLd,i0,i1=    2    3    2    3 ; Wght=  0.4333333333  0.5666666667
 cg2d: Sum(rhs),rhsMax =  -2.27373675443232E-13  5.00793251686206E+00
 EXTERNAL_FIELDS_LOAD,       783 : iP,iLd,i0,i1=    2    3    2    3 ; Wght=  0.4000000000  0.6000000000
 cg2d: Sum(rhs),rhsMax =  -1.98951966012828E-13  5.00582035499537E+00
 EXTERNAL_FIELDS_LOAD,       784 : iP,iLd,i0,i1=    2    3    2    3 ; Wght=  0.3666666667  0.6333333333
 cg2d: Sum(rhs),rhsMax =  -5.68434188608080E-14  5.00341420842537E+00
 EXTERNAL_FIELDS_LOAD,       785 : iP,iLd,i0,i1=    2    3    2    3 ; Wght=  0.3333333333  0.6666666667
 cg2d: Sum(rhs),rhsMax =   2.84217094304040E-14  5.00073156592594E+00
 Compute Stats, Diag. #    23 "ETAN    " (list#  1) Parms "SM      M1      ", vol(  0 )= 3.639E+14
 Compute Stats, Diag. #    30 "UVEL    " (list#  1) Parms "UUR     MR      ", vol(  0 )= 1.231E+18
 Compute Stats, Diag. #    31 "VVEL    " (list#  1) Parms "VVR     MR      ", vol(  0 )= 1.243E+18
 Compute Stats, Diag. #    32 "WVEL    " (list#  1) Parms "WM      LR      ", vol(  0 )= 1.315E+18
 Compute Stats, Diag. #    26 "THETA   " (list#  1) Parms "SMR     MR      ", vol(  0 )= 1.340E+18
 EXTERNAL_FIELDS_LOAD,       786 : iP,iLd,i0,i1=    2    3    2    3 ; Wght=  0.3000000000  0.7000000000
 cg2d: Sum(rhs),rhsMax =  -5.68434188608080E-14  4.99779140573726E+00
 EXTERNAL_FIELDS_LOAD,       787 : iP,iLd,i0,i1=    2    3    2    3 ; Wght=  0.2666666667  0.7333333333
 cg2d: Sum(rhs),rhsMax =  -3.12638803734444E-13  4.99461412015197E+00
 EXTERNAL_FIELDS_LOAD,       788 : iP,iLd,i0,i1=    2    3    2    3 ; Wght=  0.2333333333  0.7666666667
 cg2d: Sum(rhs),rhsMax =  -1.13686837721616E-13  4.99122144390314E+00
 EXTERNAL_FIELDS_LOAD,       789 : iP,iLd,i0,i1=    2    3    2    3 ; Wght=  0.2000000000  0.8000000000
 cg2d: Sum(rhs),rhsMax =  -1.70530256582424E-13  4.98763638441256E+00
 Computing Diagnostic #    79 "DRHODR  " (list#  1) Parms "SM      LR      ", Count=      10
 Computing Diagnostic #    64 "RHOAnoma" (list#  1) Parms "SMR     MR      ", Count=      10
 Computing Diagnostic #    80 "CONVADJ " (list#  1) Parms "SMR     LR      ", Count=      10
 Computing Diagnostic #   210 "GM_Kwx  " (list#  1) Parms "UM      LR      ", Count=      10
             Vector  Mate for "GM_Kwx  " :  Diagnostic #    211 "GM_Kwy  " exists
 Computing Diagnostic #   211 "GM_Kwy  " (list#  1) Parms "VM      LR      ", Count=      10
             Vector  Mate for "GM_Kwy  " :  Diagnostic #    210 "GM_Kwx  " exists
 Computing Diagnostic #   212 "GM_Kwz  " (list#  1) Parms "WM P    LR      ", Count=      10
 Computing Diagnostic #   213 "GM_PsiX " (list#  1) Parms "UU      LR      ", Count=      10
             Vector  Mate for "GM_PsiX " :  Diagnostic #    214 "GM_PsiY " exists
 Computing Diagnostic #   214 "GM_PsiY " (list#  1) Parms "VV      LR      ", Count=      10
             Vector  Mate for "GM_PsiY " :  Diagnostic #    213 "GM_PsiX " exists
 EXTERNAL_FIELDS_LOAD,       790 : iP,iLd,i0,i1=    2    3    2    3 ; Wght=  0.1666666667  0.8333333333
 cg2d: Sum(rhs),rhsMax =  -3.12638803734444E-13  4.98388313345859E+00
 EXTERNAL_FIELDS_LOAD,       791 : iP,iLd,i0,i1=    2    3    2    3 ; Wght=  0.1333333333  0.8666666667
 cg2d: Sum(rhs),rhsMax =  -1.98951966012828E-13  4.97998696435285E+00
 EXTERNAL_FIELDS_LOAD,       792 : iP,iLd,i0,i1=    2    3    2    3 ; Wght=  0.1000000000  0.9000000000
 cg2d: Sum(rhs),rhsMax =  -3.41060513164848E-13  4.97597410606074E+00
 EXTERNAL_FIELDS_LOAD,       793 : iP,iLd,i0,i1=    2    3    2    3 ; Wght=  0.0666666667  0.9333333333
 cg2d: Sum(rhs),rhsMax =  -1.13686837721616E-13  4.97187161684063E+00
 EXTERNAL_FIELDS_LOAD,       794 : iP,iLd,i0,i1=    2    3    2    3 ; Wght=  0.0333333333  0.9666666667
 cg2d: Sum(rhs),rhsMax =  -1.70530256582424E-13  4.96770713903697E+00
 EXTERNAL_FIELDS_LOAD,       795 : iP,iLd,i0,i1=    2    3    3    4 ; Wght=  1.0000000000  0.0000000000
 EXTERNAL_FIELDS_LOAD, it=       795 : Reading new data, i0,i1=    3    4 (prev=    2    3 )
(PID.TID 0000.0001)  MDS_READ_FIELD: opening global file: trenberth_taux.bin
(PID.TID 0000.0001)  MDS_READ_FIELD: opening global file: trenberth_taux.bin
(PID.TID 0000.0001)  MDS_READ_FIELD: opening global file: trenberth_tauy.bin
(PID.TID 0000.0001)  MDS_READ_FIELD: opening global file: trenberth_tauy.bin
(PID.TID 0000.0001)  MDS_READ_FIELD: opening global file: shiQnet_cs32.bin
(PID.TID 0000.0001)  MDS_READ_FIELD: opening global file: shiQnet_cs32.bin
(PID.TID 0000.0001)  MDS_READ_FIELD: opening global file: shiEmPR_cs32.bin
(PID.TID 0000.0001)  MDS_READ_FIELD: opening global file: shiEmPR_cs32.bin
(PID.TID 0000.0001)  MDS_READ_FIELD: opening global file: lev_surfT_cs_12m.bin
(PID.TID 0000.0001)  MDS_READ_FIELD: opening global file: lev_surfT_cs_12m.bin
(PID.TID 0000.0001)  MDS_READ_FIELD: opening global file: lev_surfS_cs_12m.bin
(PID.TID 0000.0001)  MDS_READ_FIELD: opening global file: lev_surfS_cs_12m.bin
 cg2d: Sum(rhs),rhsMax =  -5.68434188608080E-14  4.96350875651912E+00
 Compute Stats, Diag. #    23 "ETAN    " (list#  1) Parms "SM      M1      ", vol(  0 )= 3.639E+14
 Compute Stats, Diag. #    30 "UVEL    " (list#  1) Parms "UUR     MR      ", vol(  0 )= 1.231E+18
 Compute Stats, Diag. #    31 "VVEL    " (list#  1) Parms "VVR     MR      ", vol(  0 )= 1.243E+18
 Compute Stats, Diag. #    32 "WVEL    " (list#  1) Parms "WM      LR      ", vol(  0 )= 1.315E+18
 Compute Stats, Diag. #    26 "THETA   " (list#  1) Parms "SMR     MR      ", vol(  0 )= 1.340E+18
 EXTERNAL_FIELDS_LOAD,       796 : iP,iLd,i0,i1=    3    4    3    4 ; Wght=  0.9666666667  0.0333333333
 cg2d: Sum(rhs),rhsMax =  -5.68434188608080E-14  4.95927167701973E+00
 EXTERNAL_FIELDS_LOAD,       797 : iP,iLd,i0,i1=    3    4    3    4 ; Wght=  0.9333333333  0.0666666667
 cg2d: Sum(rhs),rhsMax =  -1.98951966012828E-13  4.95507414124018E+00
 EXTERNAL_FIELDS_LOAD,       798 : iP,iLd,i0,i1=    3    4    3    4 ; Wght=  0.9000000000  0.1000000000
 cg2d: Sum(rhs),rhsMax =  -3.12638803734444E-13  4.95096275211424E+00
 EXTERNAL_FIELDS_LOAD,       799 : iP,iLd,i0,i1=    3    4    3    4 ; Wght=  0.8666666667  0.1333333333
 cg2d: Sum(rhs),rhsMax =   2.84217094304040E-14  4.94696640719254E+00
 Computing Diagnostic #    79 "DRHODR  " (list#  1) Parms "SM      LR      ", Count=      10
 Computing Diagnostic #    64 "RHOAnoma" (list#  1) Parms "SMR     MR      ", Count=      10
 Computing Diagnostic #    80 "CONVADJ " (list#  1) Parms "SMR     LR      ", Count=      10
 Computing Diagnostic #   210 "GM_Kwx  " (list#  1) Parms "UM      LR      ", Count=      10
             Vector  Mate for "GM_Kwx  " :  Diagnostic #    211 "GM_Kwy  " exists
 Computing Diagnostic #   211 "GM_Kwy  " (list#  1) Parms "VM      LR      ", Count=      10
             Vector  Mate for "GM_Kwy  " :  Diagnostic #    210 "GM_Kwx  " exists
 Computing Diagnostic #   212 "GM_Kwz  " (list#  1) Parms "WM P    LR      ", Count=      10
 Computing Diagnostic #   213 "GM_PsiX " (list#  1) Parms "UU      LR      ", Count=      10
             Vector  Mate for "GM_PsiX " :  Diagnostic #    214 "GM_PsiY " exists
 Computing Diagnostic #   214 "GM_PsiY " (list#  1) Parms "VV      LR      ", Count=      10
             Vector  Mate for "GM_PsiY " :  Diagnostic #    213 "GM_PsiX " exists
 EXTERNAL_FIELDS_LOAD,       800 : iP,iLd,i0,i1=    3    4    3    4 ; Wght=  0.8333333333  0.1666666667
 cg2d: Sum(rhs),rhsMax =   1.70530256582424E-13  4.94310829675081E+00
 EXTERNAL_FIELDS_LOAD,       801 : iP,iLd,i0,i1=    3    4    3    4 ; Wght=  0.8000000000  0.2000000000
 cg2d: Sum(rhs),rhsMax =  -3.69482222595252E-13  4.93941416999057E+00
 EXTERNAL_FIELDS_LOAD,       802 : iP,iLd,i0,i1=    3    4    3    4 ; Wght=  0.7666666667  0.2333333333
 cg2d: Sum(rhs),rhsMax =  -1.70530256582424E-13  4.93590956809291E+00
 EXTERNAL_FIELDS_LOAD,       803 : iP,iLd,i0,i1=    3    4    3    4 ; Wght=  0.7333333333  0.2666666667
 cg2d: Sum(rhs),rhsMax =   2.84217094304040E-14  4.93261755094622E+00
 EXTERNAL_FIELDS_LOAD,       804 : iP,iLd,i0,i1=    3    4    3    4 ; Wght=  0.7000000000  0.3000000000
 cg2d: Sum(rhs),rhsMax =  -8.52651282912120E-14  4.92955838802443E+00
 EXTERNAL_FIELDS_LOAD,       805 : iP,iLd,i0,i1=    3    4    3    4 ; Wght=  0.6666666667  0.3333333333
 cg2d: Sum(rhs),rhsMax =  -1.13686837721616E-13  4.92674885565832E+00
 Compute Stats, Diag. #    23 "ETAN    " (list#  1) Parms "SM      M1      ", vol(  0 )= 3.639E+14
 Compute Stats, Diag. #    30 "UVEL    " (list#  1) Parms "UUR     MR      ", vol(  0 )= 1.231E+18
 Compute Stats, Diag. #    31 "VVEL    " (list#  1) Parms "VVR     MR      ", vol(  0 )= 1.243E+18
 Compute Stats, Diag. #    32 "WVEL    " (list#  1) Parms "WM      LR      ", vol(  0 )= 1.315E+18
 Compute Stats, Diag. #    26 "THETA   " (list#  1) Parms "SMR     MR      ", vol(  0 )= 1.340E+18
 EXTERNAL_FIELDS_LOAD,       806 : iP,iLd,i0,i1=    3    4    3    4 ; Wght=  0.6333333333  0.3666666667
 cg2d: Sum(rhs),rhsMax =  -2.84217094304040E-14  4.92420216501512E+00
 EXTERNAL_FIELDS_LOAD,       807 : iP,iLd,i0,i1=    3    4    3    4 ; Wght=  0.6000000000  0.4000000000
 cg2d: Sum(rhs),rhsMax =   0.00000000000000E+00  4.92192727170888E+00
 EXTERNAL_FIELDS_LOAD,       808 : iP,iLd,i0,i1=    3    4    3    4 ; Wght=  0.5666666667  0.4333333333
 cg2d: Sum(rhs),rhsMax =  -3.41060513164848E-13  4.91992896282986E+00
 EXTERNAL_FIELDS_LOAD,       809 : iP,iLd,i0,i1=    3    4    3    4 ; Wght=  0.5333333333  0.4666666667
 cg2d: Sum(rhs),rhsMax =  -2.84217094304040E-14  4.91820750543048E+00
(PID.TID 0000.0001)      cg2d_init_res =   1.34870405612969E-01
(PID.TID 0000.0001)      cg2d_iters(min,last) =      -1      61
(PID.TID 0000.0001)      cg2d_last_res =   5.00108776819422E-07
(PID.TID 0000.0001) // =======================================================
(PID.TID 0000.0001) // Begin MONITOR dynamic field statistics
(PID.TID 0000.0001) // =======================================================
(PID.TID 0000.0001) %MON time_tsnumber                =                   810
(PID.TID 0000.0001) %MON time_secondsf                =   6.9984000000000E+07
(PID.TID 0000.0001) %MON dynstat_eta_max              =   9.0564929477705E-01
(PID.TID 0000.0001) %MON dynstat_eta_min              =  -1.8490136589650E+00
(PID.TID 0000.0001) %MON dynstat_eta_mean             =   2.4732970653535E-16
(PID.TID 0000.0001) %MON dynstat_eta_sd               =   6.2878384230822E-01
(PID.TID 0000.0001) %MON dynstat_eta_del2             =   8.5314130816939E-04
(PID.TID 0000.0001) %MON dynstat_uvel_max             =   1.6250867204030E-01
(PID.TID 0000.0001) %MON dynstat_uvel_min             =  -2.3852269252186E-01
(PID.TID 0000.0001) %MON dynstat_uvel_mean            =  -4.7145648316200E-04
(PID.TID 0000.0001) %MON dynstat_uvel_sd              =   1.2831726231778E-02
(PID.TID 0000.0001) %MON dynstat_uvel_del2            =   5.4786291324385E-05
(PID.TID 0000.0001) %MON dynstat_vvel_max             =   1.8214119902855E-01
(PID.TID 0000.0001) %MON dynstat_vvel_min             =  -1.8485085926087E-01
(PID.TID 0000.0001) %MON dynstat_vvel_mean            =  -3.6560511916598E-04
(PID.TID 0000.0001) %MON dynstat_vvel_sd              =   1.2996569252112E-02
(PID.TID 0000.0001) %MON dynstat_vvel_del2            =   5.4243878657440E-05
(PID.TID 0000.0001) %MON dynstat_wvel_max             =   1.2846165444439E-04
(PID.TID 0000.0001) %MON dynstat_wvel_min             =  -2.3669941325637E-04
(PID.TID 0000.0001) %MON dynstat_wvel_mean            =   2.3208124438279E-23
(PID.TID 0000.0001) %MON dynstat_wvel_sd              =   4.4474495948401E-06
(PID.TID 0000.0001) %MON dynstat_wvel_del2            =   3.4915522253608E-08
(PID.TID 0000.0001) %MON dynstat_theta_max            =   3.1458945747666E+01
(PID.TID 0000.0001) %MON dynstat_theta_min            =  -7.0354374499062E+00
(PID.TID 0000.0001) %MON dynstat_theta_mean           =   3.6118390771477E+00
(PID.TID 0000.0001) %MON dynstat_theta_sd             =   4.4362091367688E+00
(PID.TID 0000.0001) %MON dynstat_theta_del2           =   3.0679717152228E-03
(PID.TID 0000.0001) %MON dynstat_salt_max             =   4.0962577019811E+01
(PID.TID 0000.0001) %MON dynstat_salt_min             =   1.8593407070911E+01
(PID.TID 0000.0001) %MON dynstat_salt_mean            =   3.4721148488455E+01
(PID.TID 0000.0001) %MON dynstat_salt_sd              =   4.9522436965027E-01
(PID.TID 0000.0001) %MON dynstat_salt_del2            =   9.8219977828364E-04
(PID.TID 0000.0001) %MON forcing_qnet_max             =   2.5831548769935E+02
(PID.TID 0000.0001) %MON forcing_qnet_min             =  -1.7711183959068E+02
(PID.TID 0000.0001) %MON forcing_qnet_mean            =  -2.2000230223660E+00
(PID.TID 0000.0001) %MON forcing_qnet_sd              =   5.4013286575424E+01
(PID.TID 0000.0001) %MON forcing_qnet_del2            =   4.2321284728114E-01
(PID.TID 0000.0001) %MON forcing_qsw_max              =   0.0000000000000E+00
(PID.TID 0000.0001) %MON forcing_qsw_min              =   0.0000000000000E+00
(PID.TID 0000.0001) %MON forcing_qsw_mean             =   0.0000000000000E+00
(PID.TID 0000.0001) %MON forcing_qsw_sd               =   0.0000000000000E+00
(PID.TID 0000.0001) %MON forcing_qsw_del2             =   0.0000000000000E+00
(PID.TID 0000.0001) %MON forcing_empmr_max            =   7.6494447208479E-05
(PID.TID 0000.0001) %MON forcing_empmr_min            =  -1.5362614137596E-04
(PID.TID 0000.0001) %MON forcing_empmr_mean           =  -2.7256318706594E-21
(PID.TID 0000.0001) %MON forcing_empmr_sd             =   2.4051723601802E-05
(PID.TID 0000.0001) %MON forcing_empmr_del2           =   1.2276157049243E-07
(PID.TID 0000.0001) %MON forcing_fu_max               =   2.6643568027634E-01
(PID.TID 0000.0001) %MON forcing_fu_min               =  -3.2484514575530E-01
(PID.TID 0000.0001) %MON forcing_fu_mean              =  -8.6046156021580E-03
(PID.TID 0000.0001) %MON forcing_fu_sd                =   7.1623035383705E-02
(PID.TID 0000.0001) %MON forcing_fu_del2              =   2.0334094197389E-04
(PID.TID 0000.0001) %MON forcing_fv_max               =   2.0001411394083E-01
(PID.TID 0000.0001) %MON forcing_fv_min               =  -3.2442472981373E-01
(PID.TID 0000.0001) %MON forcing_fv_mean              =  -1.2827574480664E-02
(PID.TID 0000.0001) %MON forcing_fv_sd                =   7.4837413411441E-02
(PID.TID 0000.0001) %MON forcing_fv_del2              =   2.2208242510170E-04
(PID.TID 0000.0001) %MON trAdv_CFL_u_max              =   6.7920234035366E-02
(PID.TID 0000.0001) %MON trAdv_CFL_v_max              =   1.2620974804982E-01
(PID.TID 0000.0001) %MON trAdv_CFL_w_max              =   1.0439784601880E-01
(PID.TID 0000.0001) %MON advcfl_uvel_max              =   6.8213117395499E-02
(PID.TID 0000.0001) %MON advcfl_vvel_max              =   7.3563232549344E-02
(PID.TID 0000.0001) %MON advcfl_wvel_max              =   7.7172940774905E-02
(PID.TID 0000.0001) %MON advcfl_W_hf_max              =   8.5211788772291E-02
(PID.TID 0000.0001) %MON pe_b_mean                    =   5.2670473097125E-04
(PID.TID 0000.0001) %MON ke_max                       =   3.1897984337042E-02
(PID.TID 0000.0001) %MON ke_mean                      =   1.5417128937590E-04
(PID.TID 0000.0001) %MON ke_vol                       =   1.3398024453628E+18
(PID.TID 0000.0001) %MON vort_r_min                   =  -1.1203551201375E-06
(PID.TID 0000.0001) %MON vort_r_max                   =   1.2204228459475E-06
(PID.TID 0000.0001) %MON vort_a_mean                  =  -2.0549865324846E-05
(PID.TID 0000.0001) %MON vort_a_sd                    =   7.5259636835010E-05
(PID.TID 0000.0001) %MON vort_p_mean                  =  -2.4783522345032E-05
(PID.TID 0000.0001) %MON vort_p_sd                    =   1.2810619111322E-04
(PID.TID 0000.0001) %MON surfExpan_theta_mean         =   5.2530281554400E-08
(PID.TID 0000.0001) %MON surfExpan_salt_mean          =   1.5593288259962E-08
(PID.TID 0000.0001) // =======================================================
(PID.TID 0000.0001) // End MONITOR dynamic field statistics
(PID.TID 0000.0001) // =======================================================
(PID.TID 0000.0001) // =======================================================
(PID.TID 0000.0001) // Begin MONITOR ptracer field statistics
(PID.TID 0000.0001) // =======================================================
(PID.TID 0000.0001) %MON trcstat_ptracer01_max        =   7.1833668876571E+07
(PID.TID 0000.0001) %MON trcstat_ptracer01_min        =  -3.3714216650692E+06
(PID.TID 0000.0001) %MON trcstat_ptracer01_mean       =   6.7963104118930E+07
(PID.TID 0000.0001) %MON trcstat_ptracer01_sd         =   9.4162854421199E+06
(PID.TID 0000.0001) %MON trcstat_ptracer01_del2       =   1.8972837167520E+04
(PID.TID 0000.0001) // =======================================================
(PID.TID 0000.0001) // End MONITOR ptracer field statistics
(PID.TID 0000.0001) // =======================================================
 Computing Diagnostic #    79 "DRHODR  " (list#  1) Parms "SM      LR      ", Count=      10
 Computing Diagnostic #    64 "RHOAnoma" (list#  1) Parms "SMR     MR      ", Count=      10
 Computing Diagnostic #    80 "CONVADJ " (list#  1) Parms "SMR     LR      ", Count=      10
 Computing Diagnostic #   210 "GM_Kwx  " (list#  1) Parms "UM      LR      ", Count=      10
             Vector  Mate for "GM_Kwx  " :  Diagnostic #    211 "GM_Kwy  " exists
 Computing Diagnostic #   211 "GM_Kwy  " (list#  1) Parms "VM      LR      ", Count=      10
             Vector  Mate for "GM_Kwy  " :  Diagnostic #    210 "GM_Kwx  " exists
 Computing Diagnostic #   212 "GM_Kwz  " (list#  1) Parms "WM P    LR      ", Count=      10
 Computing Diagnostic #   213 "GM_PsiX " (list#  1) Parms "UU      LR      ", Count=      10
             Vector  Mate for "GM_PsiX " :  Diagnostic #    214 "GM_PsiY " exists
 Computing Diagnostic #   214 "GM_PsiY " (list#  1) Parms "VV      LR      ", Count=      10
             Vector  Mate for "GM_PsiY " :  Diagnostic #    213 "GM_PsiX " exists
 EXTERNAL_FIELDS_LOAD,       810 : iP,iLd,i0,i1=    3    4    3    4 ; Wght=  0.5000000000  0.5000000000
 cg2d: Sum(rhs),rhsMax =  -1.42108547152020E-13  4.91675893262893E+00
 EXTERNAL_FIELDS_LOAD,       811 : iP,iLd,i0,i1=    3    4    3    4 ; Wght=  0.4666666667  0.5333333333
 cg2d: Sum(rhs),rhsMax =  -5.68434188608080E-14  4.91557536998971E+00
 EXTERNAL_FIELDS_LOAD,       812 : iP,iLd,i0,i1=    3    4    3    4 ; Wght=  0.4333333333  0.5666666667
 cg2d: Sum(rhs),rhsMax =  -2.27373675443232E-13  4.91464507100563E+00
 EXTERNAL_FIELDS_LOAD,       813 : iP,iLd,i0,i1=    3    4    3    4 ; Wght=  0.4000000000  0.6000000000
 cg2d: Sum(rhs),rhsMax =   5.68434188608080E-14  4.91395269370645E+00
 EXTERNAL_FIELDS_LOAD,       814 : iP,iLd,i0,i1=    3    4    3    4 ; Wght=  0.3666666667  0.6333333333
 cg2d: Sum(rhs),rhsMax =  -3.41060513164848E-13  4.91347945358666E+00
 EXTERNAL_FIELDS_LOAD,       815 : iP,iLd,i0,i1=    3    4    3    4 ; Wght=  0.3333333333  0.6666666667
 cg2d: Sum(rhs),rhsMax =   5.68434188608080E-14  4.91320326714280E+00
 Compute Stats, Diag. #    23 "ETAN    " (list#  1) Parms "SM      M1      ", vol(  0 )= 3.639E+14
 Compute Stats, Diag. #    30 "UVEL    " (list#  1) Parms "UUR     MR      ", vol(  0 )= 1.231E+18
 Compute Stats, Diag. #    31 "VVEL    " (list#  1) Parms "VVR     MR      ", vol(  0 )= 1.243E+18
 Compute Stats, Diag. #    32 "WVEL    " (list#  1) Parms "WM      LR      ", vol(  0 )= 1.315E+18
 Compute Stats, Diag. #    26 "THETA   " (list#  1) Parms "SMR     MR      ", vol(  0 )= 1.340E+18
 EXTERNAL_FIELDS_LOAD,       816 : iP,iLd,i0,i1=    3    4    3    4 ; Wght=  0.3000000000  0.7000000000
 cg2d: Sum(rhs),rhsMax =   0.00000000000000E+00  4.91309879057624E+00
 EXTERNAL_FIELDS_LOAD,       817 : iP,iLd,i0,i1=    3    4    3    4 ; Wght=  0.2666666667  0.7333333333
 cg2d: Sum(rhs),rhsMax =  -4.54747350886464E-13  4.91313773525786E+00
 EXTERNAL_FIELDS_LOAD,       818 : iP,iLd,i0,i1=    3    4    3    4 ; Wght=  0.2333333333  0.7666666667
 cg2d: Sum(rhs),rhsMax =  -2.84217094304040E-14  4.91328902724189E+00
 EXTERNAL_FIELDS_LOAD,       819 : iP,iLd,i0,i1=    3    4    3    4 ; Wght=  0.2000000000  0.8000000000
 cg2d: Sum(rhs),rhsMax =  -2.55795384873636E-13  4.91351827258407E+00
 Computing Diagnostic #    79 "DRHODR  " (list#  1) Parms "SM      LR      ", Count=      10
 Computing Diagnostic #    64 "RHOAnoma" (list#  1) Parms "SMR     MR      ", Count=      10
 Computing Diagnostic #    80 "CONVADJ " (list#  1) Parms "SMR     LR      ", Count=      10
 Computing Diagnostic #   210 "GM_Kwx  " (list#  1) Parms "UM      LR      ", Count=      10
             Vector  Mate for "GM_Kwx  " :  Diagnostic #    211 "GM_Kwy  " exists
 Computing Diagnostic #   211 "GM_Kwy  " (list#  1) Parms "VM      LR      ", Count=      10
             Vector  Mate for "GM_Kwy  " :  Diagnostic #    210 "GM_Kwx  " exists
 Computing Diagnostic #   212 "GM_Kwz  " (list#  1) Parms "WM P    LR      ", Count=      10
 Computing Diagnostic #   213 "GM_PsiX " (list#  1) Parms "UU      LR      ", Count=      10
             Vector  Mate for "GM_PsiX " :  Diagnostic #    214 "GM_PsiY " exists
 Computing Diagnostic #   214 "GM_PsiY " (list#  1) Parms "VV      LR      ", Count=      10
             Vector  Mate for "GM_PsiY " :  Diagnostic #    213 "GM_PsiX " exists
 EXTERNAL_FIELDS_LOAD,       820 : iP,iLd,i0,i1=    3    4    3    4 ; Wght=  0.1666666667  0.8333333333
 cg2d: Sum(rhs),rhsMax =  -2.27373675443232E-13  4.91378862533424E+00
 EXTERNAL_FIELDS_LOAD,       821 : iP,iLd,i0,i1=    3    4    3    4 ; Wght=  0.1333333333  0.8666666667
 cg2d: Sum(rhs),rhsMax =   2.84217094304040E-14  4.91406070177308E+00
 EXTERNAL_FIELDS_LOAD,       822 : iP,iLd,i0,i1=    3    4    3    4 ; Wght=  0.1000000000  0.9000000000
 cg2d: Sum(rhs),rhsMax =  -2.84217094304040E-14  4.91429270748311E+00
 EXTERNAL_FIELDS_LOAD,       823 : iP,iLd,i0,i1=    3    4    3    4 ; Wght=  0.0666666667  0.9333333333
 cg2d: Sum(rhs),rhsMax =  -2.84217094304040E-14  4.91444069042715E+00
 EXTERNAL_FIELDS_LOAD,       824 : iP,iLd,i0,i1=    3    4    3    4 ; Wght=  0.0333333333  0.9666666667
 cg2d: Sum(rhs),rhsMax =  -2.84217094304040E-14  4.91445937879368E+00
 EXTERNAL_FIELDS_LOAD,       825 : iP,iLd,i0,i1=    3    4    4    5 ; Wght=  1.0000000000  0.0000000000
 EXTERNAL_FIELDS_LOAD, it=       825 : Reading new data, i0,i1=    4    5 (prev=    3    4 )
(PID.TID 0000.0001)  MDS_READ_FIELD: opening global file: trenberth_taux.bin
(PID.TID 0000.0001)  MDS_READ_FIELD: opening global file: trenberth_taux.bin
(PID.TID 0000.0001)  MDS_READ_FIELD: opening global file: trenberth_tauy.bin
(PID.TID 0000.0001)  MDS_READ_FIELD: opening global file: trenberth_tauy.bin
(PID.TID 0000.0001)  MDS_READ_FIELD: opening global file: shiQnet_cs32.bin
(PID.TID 0000.0001)  MDS_READ_FIELD: opening global file: shiQnet_cs32.bin
(PID.TID 0000.0001)  MDS_READ_FIELD: opening global file: shiEmPR_cs32.bin
(PID.TID 0000.0001)  MDS_READ_FIELD: opening global file: shiEmPR_cs32.bin
(PID.TID 0000.0001)  MDS_READ_FIELD: opening global file: lev_surfT_cs_12m.bin
(PID.TID 0000.0001)  MDS_READ_FIELD: opening global file: lev_surfT_cs_12m.bin
(PID.TID 0000.0001)  MDS_READ_FIELD: opening global file: lev_surfS_cs_12m.bin
(PID.TID 0000.0001)  MDS_READ_FIELD: opening global file: lev_surfS_cs_12m.bin
 cg2d: Sum(rhs),rhsMax =  -2.84217094304040E-13  4.91430328871249E+00
 Compute Stats, Diag. #    23 "ETAN    " (list#  1) Parms "SM      M1      ", vol(  0 )= 3.639E+14
 Compute Stats, Diag. #    30 "UVEL    " (list#  1) Parms "UUR     MR      ", vol(  0 )= 1.231E+18
 Compute Stats, Diag. #    31 "VVEL    " (list#  1) Parms "VVR     MR      ", vol(  0 )= 1.243E+18
 Compute Stats, Diag. #    32 "WVEL    " (list#  1) Parms "WM      LR      ", vol(  0 )= 1.315E+18
 Compute Stats, Diag. #    26 "THETA   " (list#  1) Parms "SMR     MR      ", vol(  0 )= 1.340E+18
 EXTERNAL_FIELDS_LOAD,       826 : iP,iLd,i0,i1=    4    5    4    5 ; Wght=  0.9666666667  0.0333333333
 cg2d: Sum(rhs),rhsMax =  -8.52651282912120E-14  4.91400626964450E+00
 EXTERNAL_FIELDS_LOAD,       827 : iP,iLd,i0,i1=    4    5    4    5 ; Wght=  0.9333333333  0.0666666667
 cg2d: Sum(rhs),rhsMax =  -1.98951966012828E-13  4.91344444691651E+00
 EXTERNAL_FIELDS_LOAD,       828 : iP,iLd,i0,i1=    4    5    4    5 ; Wght=  0.9000000000  0.1000000000
 cg2d: Sum(rhs),rhsMax =  -2.84217094304040E-14  4.91257552759685E+00
 EXTERNAL_FIELDS_LOAD,       829 : iP,iLd,i0,i1=    4    5    4    5 ; Wght=  0.8666666667  0.1333333333
 cg2d: Sum(rhs),rhsMax =  -2.84217094304040E-13  4.91140567562766E+00
 Computing Diagnostic #    79 "DRHODR  " (list#  1) Parms "SM      LR      ", Count=      10
 Computing Diagnostic #    64 "RHOAnoma" (list#  1) Parms "SMR     MR      ", Count=      10
 Computing Diagnostic #    80 "CONVADJ " (list#  1) Parms "SMR     LR      ", Count=      10
 Computing Diagnostic #   210 "GM_Kwx  " (list#  1) Parms "UM      LR      ", Count=      10
             Vector  Mate for "GM_Kwx  " :  Diagnostic #    211 "GM_Kwy  " exists
 Computing Diagnostic #   211 "GM_Kwy  " (list#  1) Parms "VM      LR      ", Count=      10
             Vector  Mate for "GM_Kwy  " :  Diagnostic #    210 "GM_Kwx  " exists
 Computing Diagnostic #   212 "GM_Kwz  " (list#  1) Parms "WM P    LR      ", Count=      10
 Computing Diagnostic #   213 "GM_PsiX " (list#  1) Parms "UU      LR      ", Count=      10
             Vector  Mate for "GM_PsiX " :  Diagnostic #    214 "GM_PsiY " exists
 Computing Diagnostic #   214 "GM_PsiY " (list#  1) Parms "VV      LR      ", Count=      10
             Vector  Mate for "GM_PsiY " :  Diagnostic #    213 "GM_PsiX " exists
 EXTERNAL_FIELDS_LOAD,       830 : iP,iLd,i0,i1=    4    5    4    5 ; Wght=  0.8333333333  0.1666666667
 cg2d: Sum(rhs),rhsMax =  -8.52651282912120E-14  4.90999167381176E+00
 EXTERNAL_FIELDS_LOAD,       831 : iP,iLd,i0,i1=    4    5    4    5 ; Wght=  0.8000000000  0.2000000000
 cg2d: Sum(rhs),rhsMax =  -5.68434188608080E-14  4.90844759878079E+00
 EXTERNAL_FIELDS_LOAD,       832 : iP,iLd,i0,i1=    4    5    4    5 ; Wght=  0.7666666667  0.2333333333
 cg2d: Sum(rhs),rhsMax =  -1.13686837721616E-13  4.90691785605502E+00
 EXTERNAL_FIELDS_LOAD,       833 : iP,iLd,i0,i1=    4    5    4    5 ; Wght=  0.7333333333  0.2666666667
 cg2d: Sum(rhs),rhsMax =  -1.70530256582424E-13  4.90547270977387E+00
 EXTERNAL_FIELDS_LOAD,       834 : iP,iLd,i0,i1=    4    5    4    5 ; Wght=  0.7000000000  0.3000000000
 cg2d: Sum(rhs),rhsMax =  -2.27373675443232E-13  4.90401540732667E+00
 EXTERNAL_FIELDS_LOAD,       835 : iP,iLd,i0,i1=    4    5    4    5 ; Wght=  0.6666666667  0.3333333333
 cg2d: Sum(rhs),rhsMax =  -3.41060513164848E-13  4.90240401480705E+00
 Compute Stats, Diag. #    23 "ETAN    " (list#  1) Parms "SM      M1      ", vol(  0 )= 3.639E+14
 Compute Stats, Diag. #    30 "UVEL    " (list#  1) Parms "UUR     MR      ", vol(  0 )= 1.231E+18
 Compute Stats, Diag. #    31 "VVEL    " (list#  1) Parms "VVR     MR      ", vol(  0 )= 1.243E+18
 Compute Stats, Diag. #    32 "WVEL    " (list#  1) Parms "WM      LR      ", vol(  0 )= 1.315E+18
 Compute Stats, Diag. #    26 "THETA   " (list#  1) Parms "SMR     MR      ", vol(  0 )= 1.340E+18
 EXTERNAL_FIELDS_LOAD,       836 : iP,iLd,i0,i1=    4    5    4    5 ; Wght=  0.6333333333  0.3666666667
 cg2d: Sum(rhs),rhsMax =  -2.84217094304040E-13  4.90066476352627E+00
 EXTERNAL_FIELDS_LOAD,       837 : iP,iLd,i0,i1=    4    5    4    5 ; Wght=  0.6000000000  0.4000000000
 cg2d: Sum(rhs),rhsMax =  -3.97903932025656E-13  4.89885199709730E+00
 EXTERNAL_FIELDS_LOAD,       838 : iP,iLd,i0,i1=    4    5    4    5 ; Wght=  0.5666666667  0.4333333333
 cg2d: Sum(rhs),rhsMax =  -3.12638803734444E-13  4.89701758385641E+00
 EXTERNAL_FIELDS_LOAD,       839 : iP,iLd,i0,i1=    4    5    4    5 ; Wght=  0.5333333333  0.4666666667
 cg2d: Sum(rhs),rhsMax =  -1.70530256582424E-13  4.89522326678253E+00
(PID.TID 0000.0001)      cg2d_init_res =   1.42780021474163E-01
(PID.TID 0000.0001)      cg2d_iters(min,last) =      -1      63
(PID.TID 0000.0001)      cg2d_last_res =   4.97910049916245E-07
(PID.TID 0000.0001) // =======================================================
(PID.TID 0000.0001) // Begin MONITOR dynamic field statistics
(PID.TID 0000.0001) // =======================================================
(PID.TID 0000.0001) %MON time_tsnumber                =                   840
(PID.TID 0000.0001) %MON time_secondsf                =   7.2576000000000E+07
(PID.TID 0000.0001) %MON dynstat_eta_max              =   9.2905951914917E-01
(PID.TID 0000.0001) %MON dynstat_eta_min              =  -1.8521970053120E+00
(PID.TID 0000.0001) %MON dynstat_eta_mean             =   4.1221617755892E-17
(PID.TID 0000.0001) %MON dynstat_eta_sd               =   6.3037693506992E-01
(PID.TID 0000.0001) %MON dynstat_eta_del2             =   8.5499457422271E-04
(PID.TID 0000.0001) %MON dynstat_uvel_max             =   1.6924000539299E-01
(PID.TID 0000.0001) %MON dynstat_uvel_min             =  -2.2806031872200E-01
(PID.TID 0000.0001) %MON dynstat_uvel_mean            =  -4.5633663328107E-04
(PID.TID 0000.0001) %MON dynstat_uvel_sd              =   1.2830512527632E-02
(PID.TID 0000.0001) %MON dynstat_uvel_del2            =   5.3847392742126E-05
(PID.TID 0000.0001) %MON dynstat_vvel_max             =   1.9316697525466E-01
(PID.TID 0000.0001) %MON dynstat_vvel_min             =  -1.7294107923044E-01
(PID.TID 0000.0001) %MON dynstat_vvel_mean            =  -3.5484310699277E-04
(PID.TID 0000.0001) %MON dynstat_vvel_sd              =   1.3128969949081E-02
(PID.TID 0000.0001) %MON dynstat_vvel_del2            =   5.4161963758361E-05
(PID.TID 0000.0001) %MON dynstat_wvel_max             =   1.3918283397609E-04
(PID.TID 0000.0001) %MON dynstat_wvel_min             =  -2.3338399117814E-04
(PID.TID 0000.0001) %MON dynstat_wvel_mean            =  -5.2943533874824E-23
(PID.TID 0000.0001) %MON dynstat_wvel_sd              =   4.5006106474305E-06
(PID.TID 0000.0001) %MON dynstat_wvel_del2            =   3.4705899945975E-08
(PID.TID 0000.0001) %MON dynstat_theta_max            =   3.1405423406729E+01
(PID.TID 0000.0001) %MON dynstat_theta_min            =  -7.0680770183808E+00
(PID.TID 0000.0001) %MON dynstat_theta_mean           =   3.6108891274219E+00
(PID.TID 0000.0001) %MON dynstat_theta_sd             =   4.4363305475086E+00
(PID.TID 0000.0001) %MON dynstat_theta_del2           =   2.9661246439008E-03
(PID.TID 0000.0001) %MON dynstat_salt_max             =   4.0989431573529E+01
(PID.TID 0000.0001) %MON dynstat_salt_min             =   1.8598756327146E+01
(PID.TID 0000.0001) %MON dynstat_salt_mean            =   3.4721186993029E+01
(PID.TID 0000.0001) %MON dynstat_salt_sd              =   4.9519013995894E-01
(PID.TID 0000.0001) %MON dynstat_salt_del2            =   9.7863619848733E-04
(PID.TID 0000.0001) %MON forcing_qnet_max             =   2.1934515500016E+02
(PID.TID 0000.0001) %MON forcing_qnet_min             =  -1.6486040907681E+02
(PID.TID 0000.0001) %MON forcing_qnet_mean            =   8.9314966133584E+00
(PID.TID 0000.0001) %MON forcing_qnet_sd              =   6.7768604997073E+01
(PID.TID 0000.0001) %MON forcing_qnet_del2            =   3.9934967955079E-01
(PID.TID 0000.0001) %MON forcing_qsw_max              =   0.0000000000000E+00
(PID.TID 0000.0001) %MON forcing_qsw_min              =   0.0000000000000E+00
(PID.TID 0000.0001) %MON forcing_qsw_mean             =   0.0000000000000E+00
(PID.TID 0000.0001) %MON forcing_qsw_sd               =   0.0000000000000E+00
(PID.TID 0000.0001) %MON forcing_qsw_del2             =   0.0000000000000E+00
(PID.TID 0000.0001) %MON forcing_empmr_max            =   7.6494447208479E-05
(PID.TID 0000.0001) %MON forcing_empmr_min            =  -1.5362614137596E-04
(PID.TID 0000.0001) %MON forcing_empmr_mean           =  -2.7256318706594E-21
(PID.TID 0000.0001) %MON forcing_empmr_sd             =   2.4051723601802E-05
(PID.TID 0000.0001) %MON forcing_empmr_del2           =   1.2276157049243E-07
(PID.TID 0000.0001) %MON forcing_fu_max               =   2.6376707634895E-01
(PID.TID 0000.0001) %MON forcing_fu_min               =  -3.5181701991123E-01
(PID.TID 0000.0001) %MON forcing_fu_mean              =  -9.1725361907261E-03
(PID.TID 0000.0001) %MON forcing_fu_sd                =   7.3147688306408E-02
(PID.TID 0000.0001) %MON forcing_fu_del2              =   2.0151832318310E-04
(PID.TID 0000.0001) %MON forcing_fv_max               =   2.3362458312789E-01
(PID.TID 0000.0001) %MON forcing_fv_min               =  -3.0178655558957E-01
(PID.TID 0000.0001) %MON forcing_fv_mean              =  -1.1987018747997E-02
(PID.TID 0000.0001) %MON forcing_fv_sd                =   7.0322777084510E-02
(PID.TID 0000.0001) %MON forcing_fv_del2              =   2.0736000433565E-04
(PID.TID 0000.0001) %MON trAdv_CFL_u_max              =   7.3608486809187E-02
(PID.TID 0000.0001) %MON trAdv_CFL_v_max              =   9.0123737599752E-02
(PID.TID 0000.0001) %MON trAdv_CFL_w_max              =   8.9711849836156E-02
(PID.TID 0000.0001) %MON advcfl_uvel_max              =   6.7159305642412E-02
(PID.TID 0000.0001) %MON advcfl_vvel_max              =   8.4198763135784E-02
(PID.TID 0000.0001) %MON advcfl_wvel_max              =   7.6091988067138E-02
(PID.TID 0000.0001) %MON advcfl_W_hf_max              =   8.4018236824132E-02
(PID.TID 0000.0001) %MON pe_b_mean                    =   5.2937704027859E-04
(PID.TID 0000.0001) %MON ke_max                       =   2.9780033576045E-02
(PID.TID 0000.0001) %MON ke_mean                      =   1.5575172866013E-04
(PID.TID 0000.0001) %MON ke_vol                       =   1.3398024453628E+18
(PID.TID 0000.0001) %MON vort_r_min                   =  -1.0589746084446E-06
(PID.TID 0000.0001) %MON vort_r_max                   =   1.2999135481992E-06
(PID.TID 0000.0001) %MON vort_a_mean                  =  -2.0549865324846E-05
(PID.TID 0000.0001) %MON vort_a_sd                    =   7.5259644577180E-05
(PID.TID 0000.0001) %MON vort_p_mean                  =  -2.4783522345032E-05
(PID.TID 0000.0001) %MON vort_p_sd                    =   1.2810620515220E-04
(PID.TID 0000.0001) %MON surfExpan_theta_mean         =   6.1978586369864E-08
(PID.TID 0000.0001) %MON surfExpan_salt_mean          =   1.5129947620349E-08
(PID.TID 0000.0001) // =======================================================
(PID.TID 0000.0001) // End MONITOR dynamic field statistics
(PID.TID 0000.0001) // =======================================================
(PID.TID 0000.0001) // =======================================================
(PID.TID 0000.0001) // Begin MONITOR ptracer field statistics
(PID.TID 0000.0001) // =======================================================
(PID.TID 0000.0001) %MON trcstat_ptracer01_max        =   7.4325734468048E+07
(PID.TID 0000.0001) %MON trcstat_ptracer01_min        =  -4.0381420081836E+06
(PID.TID 0000.0001) %MON trcstat_ptracer01_mean       =   7.0459738906718E+07
(PID.TID 0000.0001) %MON trcstat_ptracer01_sd         =   9.8164950935869E+06
(PID.TID 0000.0001) %MON trcstat_ptracer01_del2       =   1.9316387040432E+04
(PID.TID 0000.0001) // =======================================================
(PID.TID 0000.0001) // End MONITOR ptracer field statistics
(PID.TID 0000.0001) // =======================================================
 Computing Diagnostic #    79 "DRHODR  " (list#  1) Parms "SM      LR      ", Count=      10
 Computing Diagnostic #    64 "RHOAnoma" (list#  1) Parms "SMR     MR      ", Count=      10
 Computing Diagnostic #    80 "CONVADJ " (list#  1) Parms "SMR     LR      ", Count=      10
 Computing Diagnostic #   210 "GM_Kwx  " (list#  1) Parms "UM      LR      ", Count=      10
             Vector  Mate for "GM_Kwx  " :  Diagnostic #    211 "GM_Kwy  " exists
 Computing Diagnostic #   211 "GM_Kwy  " (list#  1) Parms "VM      LR      ", Count=      10
             Vector  Mate for "GM_Kwy  " :  Diagnostic #    210 "GM_Kwx  " exists
 Computing Diagnostic #   212 "GM_Kwz  " (list#  1) Parms "WM P    LR      ", Count=      10
 Computing Diagnostic #   213 "GM_PsiX " (list#  1) Parms "UU      LR      ", Count=      10
             Vector  Mate for "GM_PsiX " :  Diagnostic #    214 "GM_PsiY " exists
 Computing Diagnostic #   214 "GM_PsiY " (list#  1) Parms "VV      LR      ", Count=      10
             Vector  Mate for "GM_PsiY " :  Diagnostic #    213 "GM_PsiX " exists
 EXTERNAL_FIELDS_LOAD,       840 : iP,iLd,i0,i1=    4    5    4    5 ; Wght=  0.5000000000  0.5000000000
 cg2d: Sum(rhs),rhsMax =  -3.97903932025656E-13  4.89353145124636E+00
 EXTERNAL_FIELDS_LOAD,       841 : iP,iLd,i0,i1=    4    5    4    5 ; Wght=  0.4666666667  0.5333333333
 cg2d: Sum(rhs),rhsMax =  -2.27373675443232E-13  4.89197343075720E+00
 EXTERNAL_FIELDS_LOAD,       842 : iP,iLd,i0,i1=    4    5    4    5 ; Wght=  0.4333333333  0.5666666667
 cg2d: Sum(rhs),rhsMax =  -8.52651282912120E-14  4.89070127226926E+00
 EXTERNAL_FIELDS_LOAD,       843 : iP,iLd,i0,i1=    4    5    4    5 ; Wght=  0.4000000000  0.6000000000
 cg2d: Sum(rhs),rhsMax =  -2.55795384873636E-13  4.88960390815493E+00
 EXTERNAL_FIELDS_LOAD,       844 : iP,iLd,i0,i1=    4    5    4    5 ; Wght=  0.3666666667  0.6333333333
 cg2d: Sum(rhs),rhsMax =   2.84217094304040E-14  4.88878735211667E+00
 EXTERNAL_FIELDS_LOAD,       845 : iP,iLd,i0,i1=    4    5    4    5 ; Wght=  0.3333333333  0.6666666667
 cg2d: Sum(rhs),rhsMax =   5.68434188608080E-14  4.88836834206836E+00
 Compute Stats, Diag. #    23 "ETAN    " (list#  1) Parms "SM      M1      ", vol(  0 )= 3.639E+14
 Compute Stats, Diag. #    30 "UVEL    " (list#  1) Parms "UUR     MR      ", vol(  0 )= 1.231E+18
 Compute Stats, Diag. #    31 "VVEL    " (list#  1) Parms "VVR     MR      ", vol(  0 )= 1.243E+18
 Compute Stats, Diag. #    32 "WVEL    " (list#  1) Parms "WM      LR      ", vol(  0 )= 1.315E+18
 Compute Stats, Diag. #    26 "THETA   " (list#  1) Parms "SMR     MR      ", vol(  0 )= 1.340E+18
 EXTERNAL_FIELDS_LOAD,       846 : iP,iLd,i0,i1=    4    5    4    5 ; Wght=  0.3000000000  0.7000000000
 cg2d: Sum(rhs),rhsMax =  -1.70530256582424E-13  4.88828286774884E+00
 EXTERNAL_FIELDS_LOAD,       847 : iP,iLd,i0,i1=    4    5    4    5 ; Wght=  0.2666666667  0.7333333333
 cg2d: Sum(rhs),rhsMax =  -1.13686837721616E-13  4.88847676282506E+00
 EXTERNAL_FIELDS_LOAD,       848 : iP,iLd,i0,i1=    4    5    4    5 ; Wght=  0.2333333333  0.7666666667
 cg2d: Sum(rhs),rhsMax =  -1.70530256582424E-13  4.88891967318811E+00
 EXTERNAL_FIELDS_LOAD,       849 : iP,iLd,i0,i1=    4    5    4    5 ; Wght=  0.2000000000  0.8000000000
 cg2d: Sum(rhs),rhsMax =   2.84217094304040E-14  4.88960093810860E+00
 Computing Diagnostic #    79 "DRHODR  " (list#  1) Parms "SM      LR      ", Count=      10
 Computing Diagnostic #    64 "RHOAnoma" (list#  1) Parms "SMR     MR      ", Count=      10
 Computing Diagnostic #    80 "CONVADJ " (list#  1) Parms "SMR     LR      ", Count=      10
 Computing Diagnostic #   210 "GM_Kwx  " (list#  1) Parms "UM      LR      ", Count=      10
             Vector  Mate for "GM_Kwx  " :  Diagnostic #    211 "GM_Kwy  " exists
 Computing Diagnostic #   211 "GM_Kwy  " (list#  1) Parms "VM      LR      ", Count=      10
             Vector  Mate for "GM_Kwy  " :  Diagnostic #    210 "GM_Kwx  " exists
 Computing Diagnostic #   212 "GM_Kwz  " (list#  1) Parms "WM P    LR      ", Count=      10
 Computing Diagnostic #   213 "GM_PsiX " (list#  1) Parms "UU      LR      ", Count=      10
             Vector  Mate for "GM_PsiX " :  Diagnostic #    214 "GM_PsiY " exists
 Computing Diagnostic #   214 "GM_PsiY " (list#  1) Parms "VV      LR      ", Count=      10
             Vector  Mate for "GM_PsiY " :  Diagnostic #    213 "GM_PsiX " exists
 EXTERNAL_FIELDS_LOAD,       850 : iP,iLd,i0,i1=    4    5    4    5 ; Wght=  0.1666666667  0.8333333333
 cg2d: Sum(rhs),rhsMax =  -4.83169060316868E-13  4.89042140823253E+00
 EXTERNAL_FIELDS_LOAD,       851 : iP,iLd,i0,i1=    4    5    4    5 ; Wght=  0.1333333333  0.8666666667
 cg2d: Sum(rhs),rhsMax =  -3.41060513164848E-13  4.89130504295282E+00
 EXTERNAL_FIELDS_LOAD,       852 : iP,iLd,i0,i1=    4    5    4    5 ; Wght=  0.1000000000  0.9000000000
 cg2d: Sum(rhs),rhsMax =   2.84217094304040E-14  4.89223256053179E+00
 EXTERNAL_FIELDS_LOAD,       853 : iP,iLd,i0,i1=    4    5    4    5 ; Wght=  0.0666666667  0.9333333333
 cg2d: Sum(rhs),rhsMax =  -5.68434188608080E-14  4.89322581543170E+00
 EXTERNAL_FIELDS_LOAD,       854 : iP,iLd,i0,i1=    4    5    4    5 ; Wght=  0.0333333333  0.9666666667
 cg2d: Sum(rhs),rhsMax =  -1.13686837721616E-13  4.89430566454017E+00
 EXTERNAL_FIELDS_LOAD,       855 : iP,iLd,i0,i1=    4    5    5    6 ; Wght=  1.0000000000  0.0000000000
 EXTERNAL_FIELDS_LOAD, it=       855 : Reading new data, i0,i1=    5    6 (prev=    4    5 )
(PID.TID 0000.0001)  MDS_READ_FIELD: opening global file: trenberth_taux.bin
(PID.TID 0000.0001)  MDS_READ_FIELD: opening global file: trenberth_taux.bin
(PID.TID 0000.0001)  MDS_READ_FIELD: opening global file: trenberth_tauy.bin
(PID.TID 0000.0001)  MDS_READ_FIELD: opening global file: trenberth_tauy.bin
(PID.TID 0000.0001)  MDS_READ_FIELD: opening global file: shiQnet_cs32.bin
(PID.TID 0000.0001)  MDS_READ_FIELD: opening global file: shiQnet_cs32.bin
(PID.TID 0000.0001)  MDS_READ_FIELD: opening global file: shiEmPR_cs32.bin
(PID.TID 0000.0001)  MDS_READ_FIELD: opening global file: shiEmPR_cs32.bin
(PID.TID 0000.0001)  MDS_READ_FIELD: opening global file: lev_surfT_cs_12m.bin
(PID.TID 0000.0001)  MDS_READ_FIELD: opening global file: lev_surfT_cs_12m.bin
(PID.TID 0000.0001)  MDS_READ_FIELD: opening global file: lev_surfS_cs_12m.bin
(PID.TID 0000.0001)  MDS_READ_FIELD: opening global file: lev_surfS_cs_12m.bin
 cg2d: Sum(rhs),rhsMax =  -2.55795384873636E-13  4.89549622373767E+00
 Compute Stats, Diag. #    23 "ETAN    " (list#  1) Parms "SM      M1      ", vol(  0 )= 3.639E+14
 Compute Stats, Diag. #    30 "UVEL    " (list#  1) Parms "UUR     MR      ", vol(  0 )= 1.231E+18
 Compute Stats, Diag. #    31 "VVEL    " (list#  1) Parms "VVR     MR      ", vol(  0 )= 1.243E+18
 Compute Stats, Diag. #    32 "WVEL    " (list#  1) Parms "WM      LR      ", vol(  0 )= 1.315E+18
 Compute Stats, Diag. #    26 "THETA   " (list#  1) Parms "SMR     MR      ", vol(  0 )= 1.340E+18
 EXTERNAL_FIELDS_LOAD,       856 : iP,iLd,i0,i1=    5    6    5    6 ; Wght=  0.9666666667  0.0333333333
 cg2d: Sum(rhs),rhsMax =  -2.84217094304040E-13  4.89672714558122E+00
 EXTERNAL_FIELDS_LOAD,       857 : iP,iLd,i0,i1=    5    6    5    6 ; Wght=  0.9333333333  0.0666666667
 cg2d: Sum(rhs),rhsMax =  -3.69482222595252E-13  4.89808336239334E+00
 EXTERNAL_FIELDS_LOAD,       858 : iP,iLd,i0,i1=    5    6    5    6 ; Wght=  0.9000000000  0.1000000000
 cg2d: Sum(rhs),rhsMax =  -2.84217094304040E-13  4.89958778674178E+00
 EXTERNAL_FIELDS_LOAD,       859 : iP,iLd,i0,i1=    5    6    5    6 ; Wght=  0.8666666667  0.1333333333
 cg2d: Sum(rhs),rhsMax =  -2.27373675443232E-13  4.90123405397305E+00
 Computing Diagnostic #    79 "DRHODR  " (list#  1) Parms "SM      LR      ", Count=      10
 Computing Diagnostic #    64 "RHOAnoma" (list#  1) Parms "SMR     MR      ", Count=      10
 Computing Diagnostic #    80 "CONVADJ " (list#  1) Parms "SMR     LR      ", Count=      10
 Computing Diagnostic #   210 "GM_Kwx  " (list#  1) Parms "UM      LR      ", Count=      10
             Vector  Mate for "GM_Kwx  " :  Diagnostic #    211 "GM_Kwy  " exists
 Computing Diagnostic #   211 "GM_Kwy  " (list#  1) Parms "VM      LR      ", Count=      10
             Vector  Mate for "GM_Kwy  " :  Diagnostic #    210 "GM_Kwx  " exists
 Computing Diagnostic #   212 "GM_Kwz  " (list#  1) Parms "WM P    LR      ", Count=      10
 Computing Diagnostic #   213 "GM_PsiX " (list#  1) Parms "UU      LR      ", Count=      10
             Vector  Mate for "GM_PsiX " :  Diagnostic #    214 "GM_PsiY " exists
 Computing Diagnostic #   214 "GM_PsiY " (list#  1) Parms "VV      LR      ", Count=      10
             Vector  Mate for "GM_PsiY " :  Diagnostic #    213 "GM_PsiX " exists
 EXTERNAL_FIELDS_LOAD,       860 : iP,iLd,i0,i1=    5    6    5    6 ; Wght=  0.8333333333  0.1666666667
 cg2d: Sum(rhs),rhsMax =  -1.98951966012828E-13  4.90299225176869E+00
 EXTERNAL_FIELDS_LOAD,       861 : iP,iLd,i0,i1=    5    6    5    6 ; Wght=  0.8000000000  0.2000000000
 cg2d: Sum(rhs),rhsMax =  -8.52651282912120E-14  4.90487124794946E+00
 EXTERNAL_FIELDS_LOAD,       862 : iP,iLd,i0,i1=    5    6    5    6 ; Wght=  0.7666666667  0.2333333333
 cg2d: Sum(rhs),rhsMax =  -3.12638803734444E-13  4.90682902619544E+00
 EXTERNAL_FIELDS_LOAD,       863 : iP,iLd,i0,i1=    5    6    5    6 ; Wght=  0.7333333333  0.2666666667
 cg2d: Sum(rhs),rhsMax =  -1.70530256582424E-13  4.90886267095294E+00
 EXTERNAL_FIELDS_LOAD,       864 : iP,iLd,i0,i1=    5    6    5    6 ; Wght=  0.7000000000  0.3000000000
 cg2d: Sum(rhs),rhsMax =  -2.27373675443232E-13  4.91092195421755E+00
 EXTERNAL_FIELDS_LOAD,       865 : iP,iLd,i0,i1=    5    6    5    6 ; Wght=  0.6666666667  0.3333333333
 cg2d: Sum(rhs),rhsMax =  -1.98951966012828E-13  4.91297213862340E+00
 Compute Stats, Diag. #    23 "ETAN    " (list#  1) Parms "SM      M1      ", vol(  0 )= 3.639E+14
 Compute Stats, Diag. #    30 "UVEL    " (list#  1) Parms "UUR     MR      ", vol(  0 )= 1.231E+18
 Compute Stats, Diag. #    31 "VVEL    " (list#  1) Parms "VVR     MR      ", vol(  0 )= 1.243E+18
 Compute Stats, Diag. #    32 "WVEL    " (list#  1) Parms "WM      LR      ", vol(  0 )= 1.315E+18
 Compute Stats, Diag. #    26 "THETA   " (list#  1) Parms "SMR     MR      ", vol(  0 )= 1.340E+18
 EXTERNAL_FIELDS_LOAD,       866 : iP,iLd,i0,i1=    5    6    5    6 ; Wght=  0.6333333333  0.3666666667
 cg2d: Sum(rhs),rhsMax =   5.68434188608080E-14  4.91487030779805E+00
 EXTERNAL_FIELDS_LOAD,       867 : iP,iLd,i0,i1=    5    6    5    6 ; Wght=  0.6000000000  0.4000000000
 cg2d: Sum(rhs),rhsMax =  -2.27373675443232E-13  4.91681250123121E+00
 EXTERNAL_FIELDS_LOAD,       868 : iP,iLd,i0,i1=    5    6    5    6 ; Wght=  0.5666666667  0.4333333333
 cg2d: Sum(rhs),rhsMax =  -5.68434188608080E-14  4.91858486733810E+00
 EXTERNAL_FIELDS_LOAD,       869 : iP,iLd,i0,i1=    5    6    5    6 ; Wght=  0.5333333333  0.4666666667
 cg2d: Sum(rhs),rhsMax =  -3.69482222595252E-13  4.92024338503542E+00
(PID.TID 0000.0001)      cg2d_init_res =   1.48026788466773E-01
(PID.TID 0000.0001)      cg2d_iters(min,last) =      -1      62
(PID.TID 0000.0001)      cg2d_last_res =   5.73311756648828E-07
(PID.TID 0000.0001) // =======================================================
(PID.TID 0000.0001) // Begin MONITOR dynamic field statistics
(PID.TID 0000.0001) // =======================================================
(PID.TID 0000.0001) %MON time_tsnumber                =                   870
(PID.TID 0000.0001) %MON time_secondsf                =   7.5168000000000E+07
(PID.TID 0000.0001) %MON dynstat_eta_max              =   9.5723582493274E-01
(PID.TID 0000.0001) %MON dynstat_eta_min              =  -1.8571863556697E+00
(PID.TID 0000.0001) %MON dynstat_eta_mean             =   2.0610808877946E-16
(PID.TID 0000.0001) %MON dynstat_eta_sd               =   6.2982697669783E-01
(PID.TID 0000.0001) %MON dynstat_eta_del2             =   8.5185891910598E-04
(PID.TID 0000.0001) %MON dynstat_uvel_max             =   1.7260019450634E-01
(PID.TID 0000.0001) %MON dynstat_uvel_min             =  -2.2222925953121E-01
(PID.TID 0000.0001) %MON dynstat_uvel_mean            =  -4.5369358195465E-04
(PID.TID 0000.0001) %MON dynstat_uvel_sd              =   1.2936795537645E-02
(PID.TID 0000.0001) %MON dynstat_uvel_del2            =   5.3816317510873E-05
(PID.TID 0000.0001) %MON dynstat_vvel_max             =   1.8432283882051E-01
(PID.TID 0000.0001) %MON dynstat_vvel_min             =  -1.7262492872989E-01
(PID.TID 0000.0001) %MON dynstat_vvel_mean            =  -3.5129527699652E-04
(PID.TID 0000.0001) %MON dynstat_vvel_sd              =   1.3027420956496E-02
(PID.TID 0000.0001) %MON dynstat_vvel_del2            =   5.3277624116172E-05
(PID.TID 0000.0001) %MON dynstat_wvel_max             =   1.3226068300036E-04
(PID.TID 0000.0001) %MON dynstat_wvel_min             =  -2.3699283632608E-04
(PID.TID 0000.0001) %MON dynstat_wvel_mean            =   1.4867704718272E-22
(PID.TID 0000.0001) %MON dynstat_wvel_sd              =   4.5030863504500E-06
(PID.TID 0000.0001) %MON dynstat_wvel_del2            =   3.3695444454627E-08
(PID.TID 0000.0001) %MON dynstat_theta_max            =   3.1744834182609E+01
(PID.TID 0000.0001) %MON dynstat_theta_min            =  -7.0801268710912E+00
(PID.TID 0000.0001) %MON dynstat_theta_mean           =   3.6088657386763E+00
(PID.TID 0000.0001) %MON dynstat_theta_sd             =   4.4287099608315E+00
(PID.TID 0000.0001) %MON dynstat_theta_del2           =   2.9164048754814E-03
(PID.TID 0000.0001) %MON dynstat_salt_max             =   4.1018001600775E+01
(PID.TID 0000.0001) %MON dynstat_salt_min             =   1.8621228979830E+01
(PID.TID 0000.0001) %MON dynstat_salt_mean            =   3.4721222888999E+01
(PID.TID 0000.0001) %MON dynstat_salt_sd              =   4.9514756879265E-01
(PID.TID 0000.0001) %MON dynstat_salt_del2            =   9.7154012616442E-04
(PID.TID 0000.0001) %MON forcing_qnet_max             =   2.1306198854283E+02
(PID.TID 0000.0001) %MON forcing_qnet_min             =  -1.8612587055834E+02
(PID.TID 0000.0001) %MON forcing_qnet_mean            =   1.7779209533326E+01
(PID.TID 0000.0001) %MON forcing_qnet_sd              =   8.6039549543257E+01
(PID.TID 0000.0001) %MON forcing_qnet_del2            =   3.9274976073871E-01
(PID.TID 0000.0001) %MON forcing_qsw_max              =   0.0000000000000E+00
(PID.TID 0000.0001) %MON forcing_qsw_min              =   0.0000000000000E+00
(PID.TID 0000.0001) %MON forcing_qsw_mean             =   0.0000000000000E+00
(PID.TID 0000.0001) %MON forcing_qsw_sd               =   0.0000000000000E+00
(PID.TID 0000.0001) %MON forcing_qsw_del2             =   0.0000000000000E+00
(PID.TID 0000.0001) %MON forcing_empmr_max            =   7.6494447208479E-05
(PID.TID 0000.0001) %MON forcing_empmr_min            =  -1.5362614137596E-04
(PID.TID 0000.0001) %MON forcing_empmr_mean           =  -2.7256318706594E-21
(PID.TID 0000.0001) %MON forcing_empmr_sd             =   2.4051723601802E-05
(PID.TID 0000.0001) %MON forcing_empmr_del2           =   1.2276157049243E-07
(PID.TID 0000.0001) %MON forcing_fu_max               =   2.7087502733075E-01
(PID.TID 0000.0001) %MON forcing_fu_min               =  -3.1157384005291E-01
(PID.TID 0000.0001) %MON forcing_fu_mean              =  -5.9802452710338E-03
(PID.TID 0000.0001) %MON forcing_fu_sd                =   7.3367932669566E-02
(PID.TID 0000.0001) %MON forcing_fu_del2              =   2.0043372226090E-04
(PID.TID 0000.0001) %MON forcing_fv_max               =   2.7394949129489E-01
(PID.TID 0000.0001) %MON forcing_fv_min               =  -2.9997476765686E-01
(PID.TID 0000.0001) %MON forcing_fv_mean              =  -8.5312903702452E-03
(PID.TID 0000.0001) %MON forcing_fv_sd                =   6.8612871399238E-02
(PID.TID 0000.0001) %MON forcing_fv_del2              =   2.1212490881227E-04
(PID.TID 0000.0001) %MON trAdv_CFL_u_max              =   8.4623640403286E-02
(PID.TID 0000.0001) %MON trAdv_CFL_v_max              =   1.1439541116409E-01
(PID.TID 0000.0001) %MON trAdv_CFL_w_max              =   1.2556576245592E-01
(PID.TID 0000.0001) %MON advcfl_uvel_max              =   6.8492725404225E-02
(PID.TID 0000.0001) %MON advcfl_vvel_max              =   7.4888213828583E-02
(PID.TID 0000.0001) %MON advcfl_wvel_max              =   7.7268607768200E-02
(PID.TID 0000.0001) %MON advcfl_W_hf_max              =   8.5317421077388E-02
(PID.TID 0000.0001) %MON pe_b_mean                    =   5.2845375669436E-04
(PID.TID 0000.0001) %MON ke_max                       =   2.8941447539868E-02
(PID.TID 0000.0001) %MON ke_mean                      =   1.5577491588696E-04
(PID.TID 0000.0001) %MON ke_vol                       =   1.3398024453628E+18
(PID.TID 0000.0001) %MON vort_r_min                   =  -9.6828197974197E-07
(PID.TID 0000.0001) %MON vort_r_max                   =   1.3034311664571E-06
(PID.TID 0000.0001) %MON vort_a_mean                  =  -2.0549865324846E-05
(PID.TID 0000.0001) %MON vort_a_sd                    =   7.5259644690227E-05
(PID.TID 0000.0001) %MON vort_p_mean                  =  -2.4783522345032E-05
(PID.TID 0000.0001) %MON vort_p_sd                    =   1.2810624481919E-04
(PID.TID 0000.0001) %MON surfExpan_theta_mean         =   5.2792289614134E-08
(PID.TID 0000.0001) %MON surfExpan_salt_mean          =   1.4501422354234E-08
(PID.TID 0000.0001) // =======================================================
(PID.TID 0000.0001) // End MONITOR dynamic field statistics
(PID.TID 0000.0001) // =======================================================
(PID.TID 0000.0001) // =======================================================
(PID.TID 0000.0001) // Begin MONITOR ptracer field statistics
(PID.TID 0000.0001) // =======================================================
(PID.TID 0000.0001) %MON trcstat_ptracer01_max        =   7.6810811906265E+07
(PID.TID 0000.0001) %MON trcstat_ptracer01_min        =  -3.3668780356596E+06
(PID.TID 0000.0001) %MON trcstat_ptracer01_mean       =   7.2961234729282E+07
(PID.TID 0000.0001) %MON trcstat_ptracer01_sd         =   1.0185223710862E+07
(PID.TID 0000.0001) %MON trcstat_ptracer01_del2       =   2.0952972304646E+04
(PID.TID 0000.0001) // =======================================================
(PID.TID 0000.0001) // End MONITOR ptracer field statistics
(PID.TID 0000.0001) // =======================================================
 Computing Diagnostic #    79 "DRHODR  " (list#  1) Parms "SM      LR      ", Count=      10
 Computing Diagnostic #    64 "RHOAnoma" (list#  1) Parms "SMR     MR      ", Count=      10
 Computing Diagnostic #    80 "CONVADJ " (list#  1) Parms "SMR     LR      ", Count=      10
 Computing Diagnostic #   210 "GM_Kwx  " (list#  1) Parms "UM      LR      ", Count=      10
             Vector  Mate for "GM_Kwx  " :  Diagnostic #    211 "GM_Kwy  " exists
 Computing Diagnostic #   211 "GM_Kwy  " (list#  1) Parms "VM      LR      ", Count=      10
             Vector  Mate for "GM_Kwy  " :  Diagnostic #    210 "GM_Kwx  " exists
 Computing Diagnostic #   212 "GM_Kwz  " (list#  1) Parms "WM P    LR      ", Count=      10
 Computing Diagnostic #   213 "GM_PsiX " (list#  1) Parms "UU      LR      ", Count=      10
             Vector  Mate for "GM_PsiX " :  Diagnostic #    214 "GM_PsiY " exists
 Computing Diagnostic #   214 "GM_PsiY " (list#  1) Parms "VV      LR      ", Count=      10
             Vector  Mate for "GM_PsiY " :  Diagnostic #    213 "GM_PsiX " exists
 EXTERNAL_FIELDS_LOAD,       870 : iP,iLd,i0,i1=    5    6    5    6 ; Wght=  0.5000000000  0.5000000000
 cg2d: Sum(rhs),rhsMax =  -2.84217094304040E-13  4.92170979574213E+00
 EXTERNAL_FIELDS_LOAD,       871 : iP,iLd,i0,i1=    5    6    5    6 ; Wght=  0.4666666667  0.5333333333
 cg2d: Sum(rhs),rhsMax =  -1.98951966012828E-13  4.92299861959750E+00
 EXTERNAL_FIELDS_LOAD,       872 : iP,iLd,i0,i1=    5    6    5    6 ; Wght=  0.4333333333  0.5666666667
 cg2d: Sum(rhs),rhsMax =   5.68434188608080E-14  4.92405106032306E+00
 EXTERNAL_FIELDS_LOAD,       873 : iP,iLd,i0,i1=    5    6    5    6 ; Wght=  0.4000000000  0.6000000000
 cg2d: Sum(rhs),rhsMax =  -1.42108547152020E-13  4.92489716644484E+00
 EXTERNAL_FIELDS_LOAD,       874 : iP,iLd,i0,i1=    5    6    5    6 ; Wght=  0.3666666667  0.6333333333
 cg2d: Sum(rhs),rhsMax =   1.13686837721616E-13  4.92550221449170E+00
 EXTERNAL_FIELDS_LOAD,       875 : iP,iLd,i0,i1=    5    6    5    6 ; Wght=  0.3333333333  0.6666666667
 cg2d: Sum(rhs),rhsMax =  -2.55795384873636E-13  4.92587617133203E+00
 Compute Stats, Diag. #    23 "ETAN    " (list#  1) Parms "SM      M1      ", vol(  0 )= 3.639E+14
 Compute Stats, Diag. #    30 "UVEL    " (list#  1) Parms "UUR     MR      ", vol(  0 )= 1.231E+18
 Compute Stats, Diag. #    31 "VVEL    " (list#  1) Parms "VVR     MR      ", vol(  0 )= 1.243E+18
 Compute Stats, Diag. #    32 "WVEL    " (list#  1) Parms "WM      LR      ", vol(  0 )= 1.315E+18
 Compute Stats, Diag. #    26 "THETA   " (list#  1) Parms "SMR     MR      ", vol(  0 )= 1.340E+18
 EXTERNAL_FIELDS_LOAD,       876 : iP,iLd,i0,i1=    5    6    5    6 ; Wght=  0.3000000000  0.7000000000
 cg2d: Sum(rhs),rhsMax =  -1.13686837721616E-13  4.92599845315074E+00
 EXTERNAL_FIELDS_LOAD,       877 : iP,iLd,i0,i1=    5    6    5    6 ; Wght=  0.2666666667  0.7333333333
 cg2d: Sum(rhs),rhsMax =  -2.55795384873636E-13  4.92588156900370E+00
 EXTERNAL_FIELDS_LOAD,       878 : iP,iLd,i0,i1=    5    6    5    6 ; Wght=  0.2333333333  0.7666666667
 cg2d: Sum(rhs),rhsMax =  -3.12638803734444E-13  4.92552271168886E+00
 EXTERNAL_FIELDS_LOAD,       879 : iP,iLd,i0,i1=    5    6    5    6 ; Wght=  0.2000000000  0.8000000000
 cg2d: Sum(rhs),rhsMax =   5.68434188608080E-14  4.92492828428991E+00
 Computing Diagnostic #    79 "DRHODR  " (list#  1) Parms "SM      LR      ", Count=      10
 Computing Diagnostic #    64 "RHOAnoma" (list#  1) Parms "SMR     MR      ", Count=      10
 Computing Diagnostic #    80 "CONVADJ " (list#  1) Parms "SMR     LR      ", Count=      10
 Computing Diagnostic #   210 "GM_Kwx  " (list#  1) Parms "UM      LR      ", Count=      10
             Vector  Mate for "GM_Kwx  " :  Diagnostic #    211 "GM_Kwy  " exists
 Computing Diagnostic #   211 "GM_Kwy  " (list#  1) Parms "VM      LR      ", Count=      10
             Vector  Mate for "GM_Kwy  " :  Diagnostic #    210 "GM_Kwx  " exists
 Computing Diagnostic #   212 "GM_Kwz  " (list#  1) Parms "WM P    LR      ", Count=      10
 Computing Diagnostic #   213 "GM_PsiX " (list#  1) Parms "UU      LR      ", Count=      10
             Vector  Mate for "GM_PsiX " :  Diagnostic #    214 "GM_PsiY " exists
 Computing Diagnostic #   214 "GM_PsiY " (list#  1) Parms "VV      LR      ", Count=      10
             Vector  Mate for "GM_PsiY " :  Diagnostic #    213 "GM_PsiX " exists
 EXTERNAL_FIELDS_LOAD,       880 : iP,iLd,i0,i1=    5    6    5    6 ; Wght=  0.1666666667  0.8333333333
 cg2d: Sum(rhs),rhsMax =  -3.69482222595252E-13  4.92411374940315E+00
 EXTERNAL_FIELDS_LOAD,       881 : iP,iLd,i0,i1=    5    6    5    6 ; Wght=  0.1333333333  0.8666666667
 cg2d: Sum(rhs),rhsMax =   8.52651282912120E-14  4.92309148836526E+00
 EXTERNAL_FIELDS_LOAD,       882 : iP,iLd,i0,i1=    5    6    5    6 ; Wght=  0.1000000000  0.9000000000
 cg2d: Sum(rhs),rhsMax =  -1.98951966012828E-13  4.92186880440695E+00
 EXTERNAL_FIELDS_LOAD,       883 : iP,iLd,i0,i1=    5    6    5    6 ; Wght=  0.0666666667  0.9333333333
 cg2d: Sum(rhs),rhsMax =  -1.98951966012828E-13  4.92047699426733E+00
 EXTERNAL_FIELDS_LOAD,       884 : iP,iLd,i0,i1=    5    6    5    6 ; Wght=  0.0333333333  0.9666666667
 cg2d: Sum(rhs),rhsMax =  -1.42108547152020E-13  4.91892922678849E+00
 EXTERNAL_FIELDS_LOAD,       885 : iP,iLd,i0,i1=    5    6    6    7 ; Wght=  1.0000000000  0.0000000000
 EXTERNAL_FIELDS_LOAD, it=       885 : Reading new data, i0,i1=    6    7 (prev=    5    6 )
(PID.TID 0000.0001)  MDS_READ_FIELD: opening global file: trenberth_taux.bin
(PID.TID 0000.0001)  MDS_READ_FIELD: opening global file: trenberth_taux.bin
(PID.TID 0000.0001)  MDS_READ_FIELD: opening global file: trenberth_tauy.bin
(PID.TID 0000.0001)  MDS_READ_FIELD: opening global file: trenberth_tauy.bin
(PID.TID 0000.0001)  MDS_READ_FIELD: opening global file: shiQnet_cs32.bin
(PID.TID 0000.0001)  MDS_READ_FIELD: opening global file: shiQnet_cs32.bin
(PID.TID 0000.0001)  MDS_READ_FIELD: opening global file: shiEmPR_cs32.bin
(PID.TID 0000.0001)  MDS_READ_FIELD: opening global file: shiEmPR_cs32.bin
(PID.TID 0000.0001)  MDS_READ_FIELD: opening global file: lev_surfT_cs_12m.bin
(PID.TID 0000.0001)  MDS_READ_FIELD: opening global file: lev_surfT_cs_12m.bin
(PID.TID 0000.0001)  MDS_READ_FIELD: opening global file: lev_surfS_cs_12m.bin
(PID.TID 0000.0001)  MDS_READ_FIELD: opening global file: lev_surfS_cs_12m.bin
 cg2d: Sum(rhs),rhsMax =  -1.42108547152020E-13  4.91725941734895E+00
 Compute Stats, Diag. #    23 "ETAN    " (list#  1) Parms "SM      M1      ", vol(  0 )= 3.639E+14
 Compute Stats, Diag. #    30 "UVEL    " (list#  1) Parms "UUR     MR      ", vol(  0 )= 1.231E+18
 Compute Stats, Diag. #    31 "VVEL    " (list#  1) Parms "VVR     MR      ", vol(  0 )= 1.243E+18
 Compute Stats, Diag. #    32 "WVEL    " (list#  1) Parms "WM      LR      ", vol(  0 )= 1.315E+18
 Compute Stats, Diag. #    26 "THETA   " (list#  1) Parms "SMR     MR      ", vol(  0 )= 1.340E+18
 EXTERNAL_FIELDS_LOAD,       886 : iP,iLd,i0,i1=    6    7    6    7 ; Wght=  0.9666666667  0.0333333333
 cg2d: Sum(rhs),rhsMax =  -8.52651282912120E-14  4.91545894612582E+00
 EXTERNAL_FIELDS_LOAD,       887 : iP,iLd,i0,i1=    6    7    6    7 ; Wght=  0.9333333333  0.0666666667
 cg2d: Sum(rhs),rhsMax =  -3.69482222595252E-13  4.91367188457164E+00
 EXTERNAL_FIELDS_LOAD,       888 : iP,iLd,i0,i1=    6    7    6    7 ; Wght=  0.9000000000  0.1000000000
 cg2d: Sum(rhs),rhsMax =  -4.54747350886464E-13  4.91187852711465E+00
 EXTERNAL_FIELDS_LOAD,       889 : iP,iLd,i0,i1=    6    7    6    7 ; Wght=  0.8666666667  0.1333333333
 cg2d: Sum(rhs),rhsMax =  -3.69482222595252E-13  4.91012082196854E+00
 Computing Diagnostic #    79 "DRHODR  " (list#  1) Parms "SM      LR      ", Count=      10
 Computing Diagnostic #    64 "RHOAnoma" (list#  1) Parms "SMR     MR      ", Count=      10
 Computing Diagnostic #    80 "CONVADJ " (list#  1) Parms "SMR     LR      ", Count=      10
 Computing Diagnostic #   210 "GM_Kwx  " (list#  1) Parms "UM      LR      ", Count=      10
             Vector  Mate for "GM_Kwx  " :  Diagnostic #    211 "GM_Kwy  " exists
 Computing Diagnostic #   211 "GM_Kwy  " (list#  1) Parms "VM      LR      ", Count=      10
             Vector  Mate for "GM_Kwy  " :  Diagnostic #    210 "GM_Kwx  " exists
 Computing Diagnostic #   212 "GM_Kwz  " (list#  1) Parms "WM P    LR      ", Count=      10
 Computing Diagnostic #   213 "GM_PsiX " (list#  1) Parms "UU      LR      ", Count=      10
             Vector  Mate for "GM_PsiX " :  Diagnostic #    214 "GM_PsiY " exists
 Computing Diagnostic #   214 "GM_PsiY " (list#  1) Parms "VV      LR      ", Count=      10
             Vector  Mate for "GM_PsiY " :  Diagnostic #    213 "GM_PsiX " exists
 EXTERNAL_FIELDS_LOAD,       890 : iP,iLd,i0,i1=    6    7    6    7 ; Wght=  0.8333333333  0.1666666667
 cg2d: Sum(rhs),rhsMax =  -2.84217094304040E-13  4.90842702113866E+00
 EXTERNAL_FIELDS_LOAD,       891 : iP,iLd,i0,i1=    6    7    6    7 ; Wght=  0.8000000000  0.2000000000
 cg2d: Sum(rhs),rhsMax =  -5.68434188608080E-14  4.90682808716658E+00
 EXTERNAL_FIELDS_LOAD,       892 : iP,iLd,i0,i1=    6    7    6    7 ; Wght=  0.7666666667  0.2333333333
 cg2d: Sum(rhs),rhsMax =  -8.52651282912120E-14  4.90536783877704E+00
 EXTERNAL_FIELDS_LOAD,       893 : iP,iLd,i0,i1=    6    7    6    7 ; Wght=  0.7333333333  0.2666666667
 cg2d: Sum(rhs),rhsMax =  -3.41060513164848E-13  4.90406280461939E+00
 EXTERNAL_FIELDS_LOAD,       894 : iP,iLd,i0,i1=    6    7    6    7 ; Wght=  0.7000000000  0.3000000000
 cg2d: Sum(rhs),rhsMax =  -1.98951966012828E-13  4.90293173989703E+00
 EXTERNAL_FIELDS_LOAD,       895 : iP,iLd,i0,i1=    6    7    6    7 ; Wght=  0.6666666667  0.3333333333
 cg2d: Sum(rhs),rhsMax =  -1.70530256582424E-13  4.90200026913489E+00
 Compute Stats, Diag. #    23 "ETAN    " (list#  1) Parms "SM      M1      ", vol(  0 )= 3.639E+14
 Compute Stats, Diag. #    30 "UVEL    " (list#  1) Parms "UUR     MR      ", vol(  0 )= 1.231E+18
 Compute Stats, Diag. #    31 "VVEL    " (list#  1) Parms "VVR     MR      ", vol(  0 )= 1.243E+18
 Compute Stats, Diag. #    32 "WVEL    " (list#  1) Parms "WM      LR      ", vol(  0 )= 1.315E+18
 Compute Stats, Diag. #    26 "THETA   " (list#  1) Parms "SMR     MR      ", vol(  0 )= 1.340E+18
 EXTERNAL_FIELDS_LOAD,       896 : iP,iLd,i0,i1=    6    7    6    7 ; Wght=  0.6333333333  0.3666666667
 cg2d: Sum(rhs),rhsMax =  -8.52651282912120E-14  4.90128394170288E+00
 EXTERNAL_FIELDS_LOAD,       897 : iP,iLd,i0,i1=    6    7    6    7 ; Wght=  0.6000000000  0.4000000000
 cg2d: Sum(rhs),rhsMax =  -5.68434188608080E-14  4.90080959928308E+00
 EXTERNAL_FIELDS_LOAD,       898 : iP,iLd,i0,i1=    6    7    6    7 ; Wght=  0.5666666667  0.4333333333
 cg2d: Sum(rhs),rhsMax =  -3.12638803734444E-13  4.90058202147552E+00
 EXTERNAL_FIELDS_LOAD,       899 : iP,iLd,i0,i1=    6    7    6    7 ; Wght=  0.5333333333  0.4666666667
 cg2d: Sum(rhs),rhsMax =   0.00000000000000E+00  4.90061498023922E+00
(PID.TID 0000.0001)      cg2d_init_res =   1.67940195067335E-01
(PID.TID 0000.0001)      cg2d_iters(min,last) =      -1      63
(PID.TID 0000.0001)      cg2d_last_res =   4.57046721062770E-07
(PID.TID 0000.0001) // =======================================================
(PID.TID 0000.0001) // Begin MONITOR dynamic field statistics
(PID.TID 0000.0001) // =======================================================
(PID.TID 0000.0001) %MON time_tsnumber                =                   900
(PID.TID 0000.0001) %MON time_secondsf                =   7.7760000000000E+07
(PID.TID 0000.0001) %MON dynstat_eta_max              =   9.9932875844251E-01
(PID.TID 0000.0001) %MON dynstat_eta_min              =  -1.8620423642640E+00
(PID.TID 0000.0001) %MON dynstat_eta_mean             =   1.9236754952750E-16
(PID.TID 0000.0001) %MON dynstat_eta_sd               =   6.2997297135052E-01
(PID.TID 0000.0001) %MON dynstat_eta_del2             =   8.5006678051750E-04
(PID.TID 0000.0001) %MON dynstat_uvel_max             =   2.4986596060801E-01
(PID.TID 0000.0001) %MON dynstat_uvel_min             =  -2.2435947658667E-01
(PID.TID 0000.0001) %MON dynstat_uvel_mean            =  -4.5669256315656E-04
(PID.TID 0000.0001) %MON dynstat_uvel_sd              =   1.3051332354589E-02
(PID.TID 0000.0001) %MON dynstat_uvel_del2            =   5.4051814845702E-05
(PID.TID 0000.0001) %MON dynstat_vvel_max             =   2.1580329221308E-01
(PID.TID 0000.0001) %MON dynstat_vvel_min             =  -1.8147812097801E-01
(PID.TID 0000.0001) %MON dynstat_vvel_mean            =  -3.4989595010414E-04
(PID.TID 0000.0001) %MON dynstat_vvel_sd              =   1.3044424154705E-02
(PID.TID 0000.0001) %MON dynstat_vvel_del2            =   5.4049077869611E-05
(PID.TID 0000.0001) %MON dynstat_wvel_max             =   1.2380401759584E-04
(PID.TID 0000.0001) %MON dynstat_wvel_min             =  -2.2958790885719E-04
(PID.TID 0000.0001) %MON dynstat_wvel_mean            =   3.6842897545768E-22
(PID.TID 0000.0001) %MON dynstat_wvel_sd              =   4.5244277601602E-06
(PID.TID 0000.0001) %MON dynstat_wvel_del2            =   3.2938346041190E-08
(PID.TID 0000.0001) %MON dynstat_theta_max            =   3.1523170983273E+01
(PID.TID 0000.0001) %MON dynstat_theta_min            =  -7.0792960884083E+00
(PID.TID 0000.0001) %MON dynstat_theta_mean           =   3.6066591492690E+00
(PID.TID 0000.0001) %MON dynstat_theta_sd             =   4.4180564051806E+00
(PID.TID 0000.0001) %MON dynstat_theta_del2           =   2.9504630655606E-03
(PID.TID 0000.0001) %MON dynstat_salt_max             =   4.1052678305234E+01
(PID.TID 0000.0001) %MON dynstat_salt_min             =   1.8634235100414E+01
(PID.TID 0000.0001) %MON dynstat_salt_mean            =   3.4721245620123E+01
(PID.TID 0000.0001) %MON dynstat_salt_sd              =   4.9512311183369E-01
(PID.TID 0000.0001) %MON dynstat_salt_del2            =   9.6566193179869E-04
(PID.TID 0000.0001) %MON forcing_qnet_max             =   2.0229973837998E+02
(PID.TID 0000.0001) %MON forcing_qnet_min             =  -1.9718863546915E+02
(PID.TID 0000.0001) %MON forcing_qnet_mean            =   1.9596147289475E+01
(PID.TID 0000.0001) %MON forcing_qnet_sd              =   9.2166533481062E+01
(PID.TID 0000.0001) %MON forcing_qnet_del2            =   3.9201995701631E-01
(PID.TID 0000.0001) %MON forcing_qsw_max              =   0.0000000000000E+00
(PID.TID 0000.0001) %MON forcing_qsw_min              =   0.0000000000000E+00
(PID.TID 0000.0001) %MON forcing_qsw_mean             =   0.0000000000000E+00
(PID.TID 0000.0001) %MON forcing_qsw_sd               =   0.0000000000000E+00
(PID.TID 0000.0001) %MON forcing_qsw_del2             =   0.0000000000000E+00
(PID.TID 0000.0001) %MON forcing_empmr_max            =   7.6494447208479E-05
(PID.TID 0000.0001) %MON forcing_empmr_min            =  -1.5362614137596E-04
(PID.TID 0000.0001) %MON forcing_empmr_mean           =  -2.7256318706594E-21
(PID.TID 0000.0001) %MON forcing_empmr_sd             =   2.4051723601802E-05
(PID.TID 0000.0001) %MON forcing_empmr_del2           =   1.2276157049243E-07
(PID.TID 0000.0001) %MON forcing_fu_max               =   3.3519419512490E-01
(PID.TID 0000.0001) %MON forcing_fu_min               =  -2.6040991621841E-01
(PID.TID 0000.0001) %MON forcing_fu_mean              =  -2.7210120622396E-03
(PID.TID 0000.0001) %MON forcing_fu_sd                =   8.0360246474857E-02
(PID.TID 0000.0001) %MON forcing_fu_del2              =   2.2269164233251E-04
(PID.TID 0000.0001) %MON forcing_fv_max               =   3.3932416083857E-01
(PID.TID 0000.0001) %MON forcing_fv_min               =  -3.6036762335569E-01
(PID.TID 0000.0001) %MON forcing_fv_mean              =  -7.2632087421189E-03
(PID.TID 0000.0001) %MON forcing_fv_sd                =   7.4683547988714E-02
(PID.TID 0000.0001) %MON forcing_fv_del2              =   2.4339892805045E-04
(PID.TID 0000.0001) %MON trAdv_CFL_u_max              =   1.1815354330573E-01
(PID.TID 0000.0001) %MON trAdv_CFL_v_max              =   1.4182075851151E-01
(PID.TID 0000.0001) %MON trAdv_CFL_w_max              =   1.1222883311398E-01
(PID.TID 0000.0001) %MON advcfl_uvel_max              =   7.2275374343745E-02
(PID.TID 0000.0001) %MON advcfl_vvel_max              =   8.1557027726171E-02
(PID.TID 0000.0001) %MON advcfl_wvel_max              =   7.4854321982118E-02
(PID.TID 0000.0001) %MON advcfl_W_hf_max              =   8.2651647188588E-02
(PID.TID 0000.0001) %MON pe_b_mean                    =   5.2869877752523E-04
(PID.TID 0000.0001) %MON ke_max                       =   3.8606260460693E-02
(PID.TID 0000.0001) %MON ke_mean                      =   1.5734914473479E-04
(PID.TID 0000.0001) %MON ke_vol                       =   1.3398024453628E+18
(PID.TID 0000.0001) %MON vort_r_min                   =  -8.9995318826451E-07
(PID.TID 0000.0001) %MON vort_r_max                   =   1.3799028886776E-06
(PID.TID 0000.0001) %MON vort_a_mean                  =  -2.0549865324846E-05
(PID.TID 0000.0001) %MON vort_a_sd                    =   7.5259643081379E-05
(PID.TID 0000.0001) %MON vort_p_mean                  =  -2.4783522345032E-05
(PID.TID 0000.0001) %MON vort_p_sd                    =   1.2810622400386E-04
(PID.TID 0000.0001) %MON surfExpan_theta_mean         =   4.8281377951681E-08
(PID.TID 0000.0001) %MON surfExpan_salt_mean          =   1.6282039567197E-08
(PID.TID 0000.0001) // =======================================================
(PID.TID 0000.0001) // End MONITOR dynamic field statistics
(PID.TID 0000.0001) // =======================================================
(PID.TID 0000.0001) // =======================================================
(PID.TID 0000.0001) // Begin MONITOR ptracer field statistics
(PID.TID 0000.0001) // =======================================================
(PID.TID 0000.0001) %MON trcstat_ptracer01_max        =   7.9285219086513E+07
(PID.TID 0000.0001) %MON trcstat_ptracer01_min        =  -5.4270352919979E+06
(PID.TID 0000.0001) %MON trcstat_ptracer01_mean       =   7.5454891161523E+07
(PID.TID 0000.0001) %MON trcstat_ptracer01_sd         =   1.0538861065004E+07
(PID.TID 0000.0001) %MON trcstat_ptracer01_del2       =   2.4400506798828E+04
(PID.TID 0000.0001) // =======================================================
(PID.TID 0000.0001) // End MONITOR ptracer field statistics
(PID.TID 0000.0001) // =======================================================
 Computing Diagnostic #    79 "DRHODR  " (list#  1) Parms "SM      LR      ", Count=      10
 Computing Diagnostic #    64 "RHOAnoma" (list#  1) Parms "SMR     MR      ", Count=      10
 Computing Diagnostic #    80 "CONVADJ " (list#  1) Parms "SMR     LR      ", Count=      10
 Computing Diagnostic #   210 "GM_Kwx  " (list#  1) Parms "UM      LR      ", Count=      10
             Vector  Mate for "GM_Kwx  " :  Diagnostic #    211 "GM_Kwy  " exists
 Computing Diagnostic #   211 "GM_Kwy  " (list#  1) Parms "VM      LR      ", Count=      10
             Vector  Mate for "GM_Kwy  " :  Diagnostic #    210 "GM_Kwx  " exists
 Computing Diagnostic #   212 "GM_Kwz  " (list#  1) Parms "WM P    LR      ", Count=      10
 Computing Diagnostic #   213 "GM_PsiX " (list#  1) Parms "UU      LR      ", Count=      10
             Vector  Mate for "GM_PsiX " :  Diagnostic #    214 "GM_PsiY " exists
 Computing Diagnostic #   214 "GM_PsiY " (list#  1) Parms "VV      LR      ", Count=      10
             Vector  Mate for "GM_PsiY " :  Diagnostic #    213 "GM_PsiX " exists
 EXTERNAL_FIELDS_LOAD,       900 : iP,iLd,i0,i1=    6    7    6    7 ; Wght=  0.5000000000  0.5000000000
 cg2d: Sum(rhs),rhsMax =   1.13686837721616E-13  4.90090727142751E+00
 EXTERNAL_FIELDS_LOAD,       901 : iP,iLd,i0,i1=    6    7    6    7 ; Wght=  0.4666666667  0.5333333333
 cg2d: Sum(rhs),rhsMax =  -2.84217094304040E-14  4.90146168648187E+00
 EXTERNAL_FIELDS_LOAD,       902 : iP,iLd,i0,i1=    6    7    6    7 ; Wght=  0.4333333333  0.5666666667
 cg2d: Sum(rhs),rhsMax =  -2.27373675443232E-13  4.90226913315519E+00
 EXTERNAL_FIELDS_LOAD,       903 : iP,iLd,i0,i1=    6    7    6    7 ; Wght=  0.4000000000  0.6000000000
 cg2d: Sum(rhs),rhsMax =  -2.27373675443232E-13  4.90332150612355E+00
 EXTERNAL_FIELDS_LOAD,       904 : iP,iLd,i0,i1=    6    7    6    7 ; Wght=  0.3666666667  0.6333333333
 cg2d: Sum(rhs),rhsMax =  -2.55795384873636E-13  4.90460230018227E+00
 EXTERNAL_FIELDS_LOAD,       905 : iP,iLd,i0,i1=    6    7    6    7 ; Wght=  0.3333333333  0.6666666667
 cg2d: Sum(rhs),rhsMax =  -3.69482222595252E-13  4.90609528945581E+00
 Compute Stats, Diag. #    23 "ETAN    " (list#  1) Parms "SM      M1      ", vol(  0 )= 3.639E+14
 Compute Stats, Diag. #    30 "UVEL    " (list#  1) Parms "UUR     MR      ", vol(  0 )= 1.231E+18
 Compute Stats, Diag. #    31 "VVEL    " (list#  1) Parms "VVR     MR      ", vol(  0 )= 1.243E+18
 Compute Stats, Diag. #    32 "WVEL    " (list#  1) Parms "WM      LR      ", vol(  0 )= 1.315E+18
 Compute Stats, Diag. #    26 "THETA   " (list#  1) Parms "SMR     MR      ", vol(  0 )= 1.340E+18
 EXTERNAL_FIELDS_LOAD,       906 : iP,iLd,i0,i1=    6    7    6    7 ; Wght=  0.3000000000  0.7000000000
 cg2d: Sum(rhs),rhsMax =  -2.84217094304040E-14  4.90777685342363E+00
 EXTERNAL_FIELDS_LOAD,       907 : iP,iLd,i0,i1=    6    7    6    7 ; Wght=  0.2666666667  0.7333333333
 cg2d: Sum(rhs),rhsMax =   2.84217094304040E-14  4.90962336699836E+00
 EXTERNAL_FIELDS_LOAD,       908 : iP,iLd,i0,i1=    6    7    6    7 ; Wght=  0.2333333333  0.7666666667
 cg2d: Sum(rhs),rhsMax =  -1.42108547152020E-13  4.91160555985714E+00
 EXTERNAL_FIELDS_LOAD,       909 : iP,iLd,i0,i1=    6    7    6    7 ; Wght=  0.2000000000  0.8000000000
 cg2d: Sum(rhs),rhsMax =  -3.41060513164848E-13  4.91369596588016E+00
 Computing Diagnostic #    79 "DRHODR  " (list#  1) Parms "SM      LR      ", Count=      10
 Computing Diagnostic #    64 "RHOAnoma" (list#  1) Parms "SMR     MR      ", Count=      10
 Computing Diagnostic #    80 "CONVADJ " (list#  1) Parms "SMR     LR      ", Count=      10
 Computing Diagnostic #   210 "GM_Kwx  " (list#  1) Parms "UM      LR      ", Count=      10
             Vector  Mate for "GM_Kwx  " :  Diagnostic #    211 "GM_Kwy  " exists
 Computing Diagnostic #   211 "GM_Kwy  " (list#  1) Parms "VM      LR      ", Count=      10
             Vector  Mate for "GM_Kwy  " :  Diagnostic #    210 "GM_Kwx  " exists
 Computing Diagnostic #   212 "GM_Kwz  " (list#  1) Parms "WM P    LR      ", Count=      10
 Computing Diagnostic #   213 "GM_PsiX " (list#  1) Parms "UU      LR      ", Count=      10
             Vector  Mate for "GM_PsiX " :  Diagnostic #    214 "GM_PsiY " exists
 Computing Diagnostic #   214 "GM_PsiY " (list#  1) Parms "VV      LR      ", Count=      10
             Vector  Mate for "GM_PsiY " :  Diagnostic #    213 "GM_PsiX " exists
 EXTERNAL_FIELDS_LOAD,       910 : iP,iLd,i0,i1=    6    7    6    7 ; Wght=  0.1666666667  0.8333333333
 cg2d: Sum(rhs),rhsMax =   5.68434188608080E-14  4.91586105621637E+00
 EXTERNAL_FIELDS_LOAD,       911 : iP,iLd,i0,i1=    6    7    6    7 ; Wght=  0.1333333333  0.8666666667
 cg2d: Sum(rhs),rhsMax =  -8.52651282912120E-14  4.91807178400141E+00
 EXTERNAL_FIELDS_LOAD,       912 : iP,iLd,i0,i1=    6    7    6    7 ; Wght=  0.1000000000  0.9000000000
 cg2d: Sum(rhs),rhsMax =  -8.52651282912120E-14  4.92029304970366E+00
 EXTERNAL_FIELDS_LOAD,       913 : iP,iLd,i0,i1=    6    7    6    7 ; Wght=  0.0666666667  0.9333333333
 cg2d: Sum(rhs),rhsMax =  -3.41060513164848E-13  4.92249926049480E+00
 EXTERNAL_FIELDS_LOAD,       914 : iP,iLd,i0,i1=    6    7    6    7 ; Wght=  0.0333333333  0.9666666667
 cg2d: Sum(rhs),rhsMax =  -1.98951966012828E-13  4.92465586719268E+00
 EXTERNAL_FIELDS_LOAD,       915 : iP,iLd,i0,i1=    6    7    7    8 ; Wght=  1.0000000000  0.0000000000
 EXTERNAL_FIELDS_LOAD, it=       915 : Reading new data, i0,i1=    7    8 (prev=    6    7 )
(PID.TID 0000.0001)  MDS_READ_FIELD: opening global file: trenberth_taux.bin
(PID.TID 0000.0001)  MDS_READ_FIELD: opening global file: trenberth_taux.bin
(PID.TID 0000.0001)  MDS_READ_FIELD: opening global file: trenberth_tauy.bin
(PID.TID 0000.0001)  MDS_READ_FIELD: opening global file: trenberth_tauy.bin
(PID.TID 0000.0001)  MDS_READ_FIELD: opening global file: shiQnet_cs32.bin
(PID.TID 0000.0001)  MDS_READ_FIELD: opening global file: shiQnet_cs32.bin
(PID.TID 0000.0001)  MDS_READ_FIELD: opening global file: shiEmPR_cs32.bin
(PID.TID 0000.0001)  MDS_READ_FIELD: opening global file: shiEmPR_cs32.bin
(PID.TID 0000.0001)  MDS_READ_FIELD: opening global file: lev_surfT_cs_12m.bin
(PID.TID 0000.0001)  MDS_READ_FIELD: opening global file: lev_surfT_cs_12m.bin
(PID.TID 0000.0001)  MDS_READ_FIELD: opening global file: lev_surfS_cs_12m.bin
(PID.TID 0000.0001)  MDS_READ_FIELD: opening global file: lev_surfS_cs_12m.bin
 cg2d: Sum(rhs),rhsMax =  -2.84217094304040E-13  4.92673935092597E+00
 Compute Stats, Diag. #    23 "ETAN    " (list#  1) Parms "SM      M1      ", vol(  0 )= 3.639E+14
 Compute Stats, Diag. #    30 "UVEL    " (list#  1) Parms "UUR     MR      ", vol(  0 )= 1.231E+18
 Compute Stats, Diag. #    31 "VVEL    " (list#  1) Parms "VVR     MR      ", vol(  0 )= 1.243E+18
 Compute Stats, Diag. #    32 "WVEL    " (list#  1) Parms "WM      LR      ", vol(  0 )= 1.315E+18
 Compute Stats, Diag. #    26 "THETA   " (list#  1) Parms "SMR     MR      ", vol(  0 )= 1.340E+18
 EXTERNAL_FIELDS_LOAD,       916 : iP,iLd,i0,i1=    7    8    7    8 ; Wght=  0.9666666667  0.0333333333
 cg2d: Sum(rhs),rhsMax =  -1.42108547152020E-13  4.92880715650913E+00
 EXTERNAL_FIELDS_LOAD,       917 : iP,iLd,i0,i1=    7    8    7    8 ; Wght=  0.9333333333  0.0666666667
 cg2d: Sum(rhs),rhsMax =  -2.27373675443232E-13  4.93069748856555E+00
 EXTERNAL_FIELDS_LOAD,       918 : iP,iLd,i0,i1=    7    8    7    8 ; Wght=  0.9000000000  0.1000000000
 cg2d: Sum(rhs),rhsMax =  -5.68434188608080E-14  4.93244261816793E+00
 EXTERNAL_FIELDS_LOAD,       919 : iP,iLd,i0,i1=    7    8    7    8 ; Wght=  0.8666666667  0.1333333333
 cg2d: Sum(rhs),rhsMax =  -2.27373675443232E-13  4.93402361075219E+00
 Computing Diagnostic #    79 "DRHODR  " (list#  1) Parms "SM      LR      ", Count=      10
 Computing Diagnostic #    64 "RHOAnoma" (list#  1) Parms "SMR     MR      ", Count=      10
 Computing Diagnostic #    80 "CONVADJ " (list#  1) Parms "SMR     LR      ", Count=      10
 Computing Diagnostic #   210 "GM_Kwx  " (list#  1) Parms "UM      LR      ", Count=      10
             Vector  Mate for "GM_Kwx  " :  Diagnostic #    211 "GM_Kwy  " exists
 Computing Diagnostic #   211 "GM_Kwy  " (list#  1) Parms "VM      LR      ", Count=      10
             Vector  Mate for "GM_Kwy  " :  Diagnostic #    210 "GM_Kwx  " exists
 Computing Diagnostic #   212 "GM_Kwz  " (list#  1) Parms "WM P    LR      ", Count=      10
 Computing Diagnostic #   213 "GM_PsiX " (list#  1) Parms "UU      LR      ", Count=      10
             Vector  Mate for "GM_PsiX " :  Diagnostic #    214 "GM_PsiY " exists
 Computing Diagnostic #   214 "GM_PsiY " (list#  1) Parms "VV      LR      ", Count=      10
             Vector  Mate for "GM_PsiY " :  Diagnostic #    213 "GM_PsiX " exists
 EXTERNAL_FIELDS_LOAD,       920 : iP,iLd,i0,i1=    7    8    7    8 ; Wght=  0.8333333333  0.1666666667
 cg2d: Sum(rhs),rhsMax =  -1.13686837721616E-13  4.93545049362533E+00
 EXTERNAL_FIELDS_LOAD,       921 : iP,iLd,i0,i1=    7    8    7    8 ; Wght=  0.8000000000  0.2000000000
 cg2d: Sum(rhs),rhsMax =  -2.84217094304040E-13  4.93668858358827E+00
 EXTERNAL_FIELDS_LOAD,       922 : iP,iLd,i0,i1=    7    8    7    8 ; Wght=  0.7666666667  0.2333333333
 cg2d: Sum(rhs),rhsMax =   0.00000000000000E+00  4.93777514058674E+00
 EXTERNAL_FIELDS_LOAD,       923 : iP,iLd,i0,i1=    7    8    7    8 ; Wght=  0.7333333333  0.2666666667
 cg2d: Sum(rhs),rhsMax =  -1.70530256582424E-13  4.93866499201137E+00
 EXTERNAL_FIELDS_LOAD,       924 : iP,iLd,i0,i1=    7    8    7    8 ; Wght=  0.7000000000  0.3000000000
 cg2d: Sum(rhs),rhsMax =  -3.69482222595252E-13  4.93940928954554E+00
 EXTERNAL_FIELDS_LOAD,       925 : iP,iLd,i0,i1=    7    8    7    8 ; Wght=  0.6666666667  0.3333333333
 cg2d: Sum(rhs),rhsMax =  -2.84217094304040E-14  4.93999660372969E+00
 Compute Stats, Diag. #    23 "ETAN    " (list#  1) Parms "SM      M1      ", vol(  0 )= 3.639E+14
 Compute Stats, Diag. #    30 "UVEL    " (list#  1) Parms "UUR     MR      ", vol(  0 )= 1.231E+18
 Compute Stats, Diag. #    31 "VVEL    " (list#  1) Parms "VVR     MR      ", vol(  0 )= 1.243E+18
 Compute Stats, Diag. #    32 "WVEL    " (list#  1) Parms "WM      LR      ", vol(  0 )= 1.315E+18
 Compute Stats, Diag. #    26 "THETA   " (list#  1) Parms "SMR     MR      ", vol(  0 )= 1.340E+18
 EXTERNAL_FIELDS_LOAD,       926 : iP,iLd,i0,i1=    7    8    7    8 ; Wght=  0.6333333333  0.3666666667
 cg2d: Sum(rhs),rhsMax =  -2.84217094304040E-14  4.94047397000942E+00
 EXTERNAL_FIELDS_LOAD,       927 : iP,iLd,i0,i1=    7    8    7    8 ; Wght=  0.6000000000  0.4000000000
 cg2d: Sum(rhs),rhsMax =  -3.97903932025656E-13  4.94080292587203E+00
 EXTERNAL_FIELDS_LOAD,       928 : iP,iLd,i0,i1=    7    8    7    8 ; Wght=  0.5666666667  0.4333333333
 cg2d: Sum(rhs),rhsMax =  -1.13686837721616E-13  4.94105635191911E+00
 EXTERNAL_FIELDS_LOAD,       929 : iP,iLd,i0,i1=    7    8    7    8 ; Wght=  0.5333333333  0.4666666667
 cg2d: Sum(rhs),rhsMax =   8.52651282912120E-14  4.94124265126959E+00
(PID.TID 0000.0001)      cg2d_init_res =   1.79359292898725E-01
(PID.TID 0000.0001)      cg2d_iters(min,last) =      -1      62
(PID.TID 0000.0001)      cg2d_last_res =   4.81803779193047E-07
(PID.TID 0000.0001) // =======================================================
(PID.TID 0000.0001) // Begin MONITOR dynamic field statistics
(PID.TID 0000.0001) // =======================================================
(PID.TID 0000.0001) %MON time_tsnumber                =                   930
(PID.TID 0000.0001) %MON time_secondsf                =   8.0352000000000E+07
(PID.TID 0000.0001) %MON dynstat_eta_max              =   1.0317975577721E+00
(PID.TID 0000.0001) %MON dynstat_eta_min              =  -1.8684454086876E+00
(PID.TID 0000.0001) %MON dynstat_eta_mean             =   3.2977294204714E-16
(PID.TID 0000.0001) %MON dynstat_eta_sd               =   6.3142596001556E-01
(PID.TID 0000.0001) %MON dynstat_eta_del2             =   8.5356275612066E-04
(PID.TID 0000.0001) %MON dynstat_uvel_max             =   3.8284702635561E-01
(PID.TID 0000.0001) %MON dynstat_uvel_min             =  -2.3345144258699E-01
(PID.TID 0000.0001) %MON dynstat_uvel_mean            =  -4.8039097728612E-04
(PID.TID 0000.0001) %MON dynstat_uvel_sd              =   1.3387870373941E-02
(PID.TID 0000.0001) %MON dynstat_uvel_del2            =   5.4648887167561E-05
(PID.TID 0000.0001) %MON dynstat_vvel_max             =   3.0200806788741E-01
(PID.TID 0000.0001) %MON dynstat_vvel_min             =  -2.1386329673563E-01
(PID.TID 0000.0001) %MON dynstat_vvel_mean            =  -3.6846099182684E-04
(PID.TID 0000.0001) %MON dynstat_vvel_sd              =   1.3262800836629E-02
(PID.TID 0000.0001) %MON dynstat_vvel_del2            =   5.4791564274453E-05
(PID.TID 0000.0001) %MON dynstat_wvel_max             =   1.1558883874218E-04
(PID.TID 0000.0001) %MON dynstat_wvel_min             =  -2.2573535044607E-04
(PID.TID 0000.0001) %MON dynstat_wvel_mean            =   6.8173865537444E-22
(PID.TID 0000.0001) %MON dynstat_wvel_sd              =   4.4863824544345E-06
(PID.TID 0000.0001) %MON dynstat_wvel_del2            =   3.2639621679065E-08
(PID.TID 0000.0001) %MON dynstat_theta_max            =   3.1302155049654E+01
(PID.TID 0000.0001) %MON dynstat_theta_min            =  -7.0733960921898E+00
(PID.TID 0000.0001) %MON dynstat_theta_mean           =   3.6055327913801E+00
(PID.TID 0000.0001) %MON dynstat_theta_sd             =   4.4130068916019E+00
(PID.TID 0000.0001) %MON dynstat_theta_del2           =   3.0303807682363E-03
(PID.TID 0000.0001) %MON dynstat_salt_max             =   4.1081290718112E+01
(PID.TID 0000.0001) %MON dynstat_salt_min             =   1.8652259498743E+01
(PID.TID 0000.0001) %MON dynstat_salt_mean            =   3.4721255267752E+01
(PID.TID 0000.0001) %MON dynstat_salt_sd              =   4.9516902827501E-01
(PID.TID 0000.0001) %MON dynstat_salt_del2            =   9.6127899897716E-04
(PID.TID 0000.0001) %MON forcing_qnet_max             =   2.6623444985897E+02
(PID.TID 0000.0001) %MON forcing_qnet_min             =  -2.1164738352902E+02
(PID.TID 0000.0001) %MON forcing_qnet_mean            =   1.3490614180387E+01
(PID.TID 0000.0001) %MON forcing_qnet_sd              =   7.9941125037902E+01
(PID.TID 0000.0001) %MON forcing_qnet_del2            =   3.9351193552263E-01
(PID.TID 0000.0001) %MON forcing_qsw_max              =   0.0000000000000E+00
(PID.TID 0000.0001) %MON forcing_qsw_min              =   0.0000000000000E+00
(PID.TID 0000.0001) %MON forcing_qsw_mean             =   0.0000000000000E+00
(PID.TID 0000.0001) %MON forcing_qsw_sd               =   0.0000000000000E+00
(PID.TID 0000.0001) %MON forcing_qsw_del2             =   0.0000000000000E+00
(PID.TID 0000.0001) %MON forcing_empmr_max            =   7.6494447208479E-05
(PID.TID 0000.0001) %MON forcing_empmr_min            =  -1.5362614137596E-04
(PID.TID 0000.0001) %MON forcing_empmr_mean           =  -2.7256318706594E-21
(PID.TID 0000.0001) %MON forcing_empmr_sd             =   2.4051723601802E-05
(PID.TID 0000.0001) %MON forcing_empmr_del2           =   1.2276157049243E-07
(PID.TID 0000.0001) %MON forcing_fu_max               =   3.7939488069330E-01
(PID.TID 0000.0001) %MON forcing_fu_min               =  -3.0387787452663E-01
(PID.TID 0000.0001) %MON forcing_fu_mean              =  -4.7816371445427E-03
(PID.TID 0000.0001) %MON forcing_fu_sd                =   8.4774595803944E-02
(PID.TID 0000.0001) %MON forcing_fu_del2              =   2.3419656372830E-04
(PID.TID 0000.0001) %MON forcing_fv_max               =   3.6307584767778E-01
(PID.TID 0000.0001) %MON forcing_fv_min               =  -3.9408330405910E-01
(PID.TID 0000.0001) %MON forcing_fv_mean              =  -7.2982255147446E-03
(PID.TID 0000.0001) %MON forcing_fv_sd                =   8.0365850907335E-02
(PID.TID 0000.0001) %MON forcing_fv_del2              =   2.4868806625824E-04
(PID.TID 0000.0001) %MON trAdv_CFL_u_max              =   1.1926097029919E-01
(PID.TID 0000.0001) %MON trAdv_CFL_v_max              =   1.2302276488388E-01
(PID.TID 0000.0001) %MON trAdv_CFL_w_max              =   1.0872269350781E-01
(PID.TID 0000.0001) %MON advcfl_uvel_max              =   1.1074102322265E-01
(PID.TID 0000.0001) %MON advcfl_vvel_max              =   8.6822453358704E-02
(PID.TID 0000.0001) %MON advcfl_wvel_max              =   7.3598242560531E-02
(PID.TID 0000.0001) %MON advcfl_W_hf_max              =   8.1264726160586E-02
(PID.TID 0000.0001) %MON pe_b_mean                    =   5.3114040362056E-04
(PID.TID 0000.0001) %MON ke_max                       =   7.4290274315043E-02
(PID.TID 0000.0001) %MON ke_mean                      =   1.6411876046668E-04
(PID.TID 0000.0001) %MON ke_vol                       =   1.3398024453628E+18
(PID.TID 0000.0001) %MON vort_r_min                   =  -9.4643769237437E-07
(PID.TID 0000.0001) %MON vort_r_max                   =   1.6736867954496E-06
(PID.TID 0000.0001) %MON vort_a_mean                  =  -2.0549865324846E-05
(PID.TID 0000.0001) %MON vort_a_sd                    =   7.5259641445328E-05
(PID.TID 0000.0001) %MON vort_p_mean                  =  -2.4783522345032E-05
(PID.TID 0000.0001) %MON vort_p_sd                    =   1.2810624509460E-04
(PID.TID 0000.0001) %MON surfExpan_theta_mean         =   5.7528694894665E-08
(PID.TID 0000.0001) %MON surfExpan_salt_mean          =   1.5425591223078E-08
(PID.TID 0000.0001) // =======================================================
(PID.TID 0000.0001) // End MONITOR dynamic field statistics
(PID.TID 0000.0001) // =======================================================
(PID.TID 0000.0001) // =======================================================
(PID.TID 0000.0001) // Begin MONITOR ptracer field statistics
(PID.TID 0000.0001) // =======================================================
(PID.TID 0000.0001) %MON trcstat_ptracer01_max        =   8.1789849938480E+07
(PID.TID 0000.0001) %MON trcstat_ptracer01_min        =  -3.2168743094739E+06
(PID.TID 0000.0001) %MON trcstat_ptracer01_mean       =   7.7921400489285E+07
(PID.TID 0000.0001) %MON trcstat_ptracer01_sd         =   1.0967257286757E+07
(PID.TID 0000.0001) %MON trcstat_ptracer01_del2       =   2.6361262573066E+04
(PID.TID 0000.0001) // =======================================================
(PID.TID 0000.0001) // End MONITOR ptracer field statistics
(PID.TID 0000.0001) // =======================================================
 Computing Diagnostic #    79 "DRHODR  " (list#  1) Parms "SM      LR      ", Count=      10
 Computing Diagnostic #    64 "RHOAnoma" (list#  1) Parms "SMR     MR      ", Count=      10
 Computing Diagnostic #    80 "CONVADJ " (list#  1) Parms "SMR     LR      ", Count=      10
 Computing Diagnostic #   210 "GM_Kwx  " (list#  1) Parms "UM      LR      ", Count=      10
             Vector  Mate for "GM_Kwx  " :  Diagnostic #    211 "GM_Kwy  " exists
 Computing Diagnostic #   211 "GM_Kwy  " (list#  1) Parms "VM      LR      ", Count=      10
             Vector  Mate for "GM_Kwy  " :  Diagnostic #    210 "GM_Kwx  " exists
 Computing Diagnostic #   212 "GM_Kwz  " (list#  1) Parms "WM P    LR      ", Count=      10
 Computing Diagnostic #   213 "GM_PsiX " (list#  1) Parms "UU      LR      ", Count=      10
             Vector  Mate for "GM_PsiX " :  Diagnostic #    214 "GM_PsiY " exists
 Computing Diagnostic #   214 "GM_PsiY " (list#  1) Parms "VV      LR      ", Count=      10
             Vector  Mate for "GM_PsiY " :  Diagnostic #    213 "GM_PsiX " exists
 EXTERNAL_FIELDS_LOAD,       930 : iP,iLd,i0,i1=    7    8    7    8 ; Wght=  0.5000000000  0.5000000000
 cg2d: Sum(rhs),rhsMax =  -2.55795384873636E-13  4.94143903320712E+00
 EXTERNAL_FIELDS_LOAD,       931 : iP,iLd,i0,i1=    7    8    7    8 ; Wght=  0.4666666667  0.5333333333
 cg2d: Sum(rhs),rhsMax =  -1.42108547152020E-13  4.94154312704756E+00
 EXTERNAL_FIELDS_LOAD,       932 : iP,iLd,i0,i1=    7    8    7    8 ; Wght=  0.4333333333  0.5666666667
 cg2d: Sum(rhs),rhsMax =  -2.84217094304040E-13  4.94170002607865E+00
 EXTERNAL_FIELDS_LOAD,       933 : iP,iLd,i0,i1=    7    8    7    8 ; Wght=  0.4000000000  0.6000000000
 cg2d: Sum(rhs),rhsMax =  -3.12638803734444E-13  4.94189889878633E+00
 EXTERNAL_FIELDS_LOAD,       934 : iP,iLd,i0,i1=    7    8    7    8 ; Wght=  0.3666666667  0.6333333333
 cg2d: Sum(rhs),rhsMax =  -1.42108547152020E-13  4.94218246410141E+00
 EXTERNAL_FIELDS_LOAD,       935 : iP,iLd,i0,i1=    7    8    7    8 ; Wght=  0.3333333333  0.6666666667
 cg2d: Sum(rhs),rhsMax =  -8.52651282912120E-14  4.94253531716602E+00
 Compute Stats, Diag. #    23 "ETAN    " (list#  1) Parms "SM      M1      ", vol(  0 )= 3.639E+14
 Compute Stats, Diag. #    30 "UVEL    " (list#  1) Parms "UUR     MR      ", vol(  0 )= 1.231E+18
 Compute Stats, Diag. #    31 "VVEL    " (list#  1) Parms "VVR     MR      ", vol(  0 )= 1.243E+18
 Compute Stats, Diag. #    32 "WVEL    " (list#  1) Parms "WM      LR      ", vol(  0 )= 1.315E+18
 Compute Stats, Diag. #    26 "THETA   " (list#  1) Parms "SMR     MR      ", vol(  0 )= 1.340E+18
 EXTERNAL_FIELDS_LOAD,       936 : iP,iLd,i0,i1=    7    8    7    8 ; Wght=  0.3000000000  0.7000000000
 cg2d: Sum(rhs),rhsMax =  -1.70530256582424E-13  4.94306561915757E+00
 EXTERNAL_FIELDS_LOAD,       937 : iP,iLd,i0,i1=    7    8    7    8 ; Wght=  0.2666666667  0.7333333333
 cg2d: Sum(rhs),rhsMax =  -5.68434188608080E-14  4.94363748445256E+00
 EXTERNAL_FIELDS_LOAD,       938 : iP,iLd,i0,i1=    7    8    7    8 ; Wght=  0.2333333333  0.7666666667
 cg2d: Sum(rhs),rhsMax =  -8.52651282912120E-14  4.94440176126620E+00
 EXTERNAL_FIELDS_LOAD,       939 : iP,iLd,i0,i1=    7    8    7    8 ; Wght=  0.2000000000  0.8000000000
 cg2d: Sum(rhs),rhsMax =  -5.68434188608080E-14  4.94530824421164E+00
 Computing Diagnostic #    79 "DRHODR  " (list#  1) Parms "SM      LR      ", Count=      10
 Computing Diagnostic #    64 "RHOAnoma" (list#  1) Parms "SMR     MR      ", Count=      10
 Computing Diagnostic #    80 "CONVADJ " (list#  1) Parms "SMR     LR      ", Count=      10
 Computing Diagnostic #   210 "GM_Kwx  " (list#  1) Parms "UM      LR      ", Count=      10
             Vector  Mate for "GM_Kwx  " :  Diagnostic #    211 "GM_Kwy  " exists
 Computing Diagnostic #   211 "GM_Kwy  " (list#  1) Parms "VM      LR      ", Count=      10
             Vector  Mate for "GM_Kwy  " :  Diagnostic #    210 "GM_Kwx  " exists
 Computing Diagnostic #   212 "GM_Kwz  " (list#  1) Parms "WM P    LR      ", Count=      10
 Computing Diagnostic #   213 "GM_PsiX " (list#  1) Parms "UU      LR      ", Count=      10
             Vector  Mate for "GM_PsiX " :  Diagnostic #    214 "GM_PsiY " exists
 Computing Diagnostic #   214 "GM_PsiY " (list#  1) Parms "VV      LR      ", Count=      10
             Vector  Mate for "GM_PsiY " :  Diagnostic #    213 "GM_PsiX " exists
 EXTERNAL_FIELDS_LOAD,       940 : iP,iLd,i0,i1=    7    8    7    8 ; Wght=  0.1666666667  0.8333333333
 cg2d: Sum(rhs),rhsMax =  -1.42108547152020E-13  4.94646041670834E+00
 EXTERNAL_FIELDS_LOAD,       941 : iP,iLd,i0,i1=    7    8    7    8 ; Wght=  0.1333333333  0.8666666667
 cg2d: Sum(rhs),rhsMax =  -2.55795384873636E-13  4.94764896573706E+00
 EXTERNAL_FIELDS_LOAD,       942 : iP,iLd,i0,i1=    7    8    7    8 ; Wght=  0.1000000000  0.9000000000
 cg2d: Sum(rhs),rhsMax =  -3.12638803734444E-13  4.94907020913036E+00
 EXTERNAL_FIELDS_LOAD,       943 : iP,iLd,i0,i1=    7    8    7    8 ; Wght=  0.0666666667  0.9333333333
 cg2d: Sum(rhs),rhsMax =  -3.41060513164848E-13  4.95063561657912E+00
 EXTERNAL_FIELDS_LOAD,       944 : iP,iLd,i0,i1=    7    8    7    8 ; Wght=  0.0333333333  0.9666666667
 cg2d: Sum(rhs),rhsMax =  -1.70530256582424E-13  4.95240292143543E+00
 EXTERNAL_FIELDS_LOAD,       945 : iP,iLd,i0,i1=    7    8    8    9 ; Wght=  1.0000000000  0.0000000000
 EXTERNAL_FIELDS_LOAD, it=       945 : Reading new data, i0,i1=    8    9 (prev=    7    8 )
(PID.TID 0000.0001)  MDS_READ_FIELD: opening global file: trenberth_taux.bin
(PID.TID 0000.0001)  MDS_READ_FIELD: opening global file: trenberth_taux.bin
(PID.TID 0000.0001)  MDS_READ_FIELD: opening global file: trenberth_tauy.bin
(PID.TID 0000.0001)  MDS_READ_FIELD: opening global file: trenberth_tauy.bin
(PID.TID 0000.0001)  MDS_READ_FIELD: opening global file: shiQnet_cs32.bin
(PID.TID 0000.0001)  MDS_READ_FIELD: opening global file: shiQnet_cs32.bin
(PID.TID 0000.0001)  MDS_READ_FIELD: opening global file: shiEmPR_cs32.bin
(PID.TID 0000.0001)  MDS_READ_FIELD: opening global file: shiEmPR_cs32.bin
(PID.TID 0000.0001)  MDS_READ_FIELD: opening global file: lev_surfT_cs_12m.bin
(PID.TID 0000.0001)  MDS_READ_FIELD: opening global file: lev_surfT_cs_12m.bin
(PID.TID 0000.0001)  MDS_READ_FIELD: opening global file: lev_surfS_cs_12m.bin
(PID.TID 0000.0001)  MDS_READ_FIELD: opening global file: lev_surfS_cs_12m.bin
 cg2d: Sum(rhs),rhsMax =  -4.54747350886464E-13  4.95423262369002E+00
 Compute Stats, Diag. #    23 "ETAN    " (list#  1) Parms "SM      M1      ", vol(  0 )= 3.639E+14
 Compute Stats, Diag. #    30 "UVEL    " (list#  1) Parms "UUR     MR      ", vol(  0 )= 1.231E+18
 Compute Stats, Diag. #    31 "VVEL    " (list#  1) Parms "VVR     MR      ", vol(  0 )= 1.243E+18
 Compute Stats, Diag. #    32 "WVEL    " (list#  1) Parms "WM      LR      ", vol(  0 )= 1.315E+18
 Compute Stats, Diag. #    26 "THETA   " (list#  1) Parms "SMR     MR      ", vol(  0 )= 1.340E+18
 EXTERNAL_FIELDS_LOAD,       946 : iP,iLd,i0,i1=    8    9    8    9 ; Wght=  0.9666666667  0.0333333333
 cg2d: Sum(rhs),rhsMax =  -2.84217094304040E-14  4.95625705954419E+00
 EXTERNAL_FIELDS_LOAD,       947 : iP,iLd,i0,i1=    8    9    8    9 ; Wght=  0.9333333333  0.0666666667
 cg2d: Sum(rhs),rhsMax =  -3.97903932025656E-13  4.95831238404010E+00
 EXTERNAL_FIELDS_LOAD,       948 : iP,iLd,i0,i1=    8    9    8    9 ; Wght=  0.9000000000  0.1000000000
 cg2d: Sum(rhs),rhsMax =  -1.42108547152020E-13  4.96054705739471E+00
 EXTERNAL_FIELDS_LOAD,       949 : iP,iLd,i0,i1=    8    9    8    9 ; Wght=  0.8666666667  0.1333333333
 cg2d: Sum(rhs),rhsMax =  -3.41060513164848E-13  4.96269986962908E+00
 Computing Diagnostic #    79 "DRHODR  " (list#  1) Parms "SM      LR      ", Count=      10
 Computing Diagnostic #    64 "RHOAnoma" (list#  1) Parms "SMR     MR      ", Count=      10
 Computing Diagnostic #    80 "CONVADJ " (list#  1) Parms "SMR     LR      ", Count=      10
 Computing Diagnostic #   210 "GM_Kwx  " (list#  1) Parms "UM      LR      ", Count=      10
             Vector  Mate for "GM_Kwx  " :  Diagnostic #    211 "GM_Kwy  " exists
 Computing Diagnostic #   211 "GM_Kwy  " (list#  1) Parms "VM      LR      ", Count=      10
             Vector  Mate for "GM_Kwy  " :  Diagnostic #    210 "GM_Kwx  " exists
 Computing Diagnostic #   212 "GM_Kwz  " (list#  1) Parms "WM P    LR      ", Count=      10
 Computing Diagnostic #   213 "GM_PsiX " (list#  1) Parms "UU      LR      ", Count=      10
             Vector  Mate for "GM_PsiX " :  Diagnostic #    214 "GM_PsiY " exists
 Computing Diagnostic #   214 "GM_PsiY " (list#  1) Parms "VV      LR      ", Count=      10
             Vector  Mate for "GM_PsiY " :  Diagnostic #    213 "GM_PsiX " exists
 EXTERNAL_FIELDS_LOAD,       950 : iP,iLd,i0,i1=    8    9    8    9 ; Wght=  0.8333333333  0.1666666667
 cg2d: Sum(rhs),rhsMax =  -1.13686837721616E-13  4.96497010969662E+00
 EXTERNAL_FIELDS_LOAD,       951 : iP,iLd,i0,i1=    8    9    8    9 ; Wght=  0.8000000000  0.2000000000
 cg2d: Sum(rhs),rhsMax =  -1.13686837721616E-13  4.96716377265027E+00
 EXTERNAL_FIELDS_LOAD,       952 : iP,iLd,i0,i1=    8    9    8    9 ; Wght=  0.7666666667  0.2333333333
 cg2d: Sum(rhs),rhsMax =  -2.55795384873636E-13  4.96945296790114E+00
 EXTERNAL_FIELDS_LOAD,       953 : iP,iLd,i0,i1=    8    9    8    9 ; Wght=  0.7333333333  0.2666666667
 cg2d: Sum(rhs),rhsMax =  -2.27373675443232E-13  4.97151143265769E+00
 EXTERNAL_FIELDS_LOAD,       954 : iP,iLd,i0,i1=    8    9    8    9 ; Wght=  0.7000000000  0.3000000000
 cg2d: Sum(rhs),rhsMax =  -2.55795384873636E-13  4.97357676819141E+00
 EXTERNAL_FIELDS_LOAD,       955 : iP,iLd,i0,i1=    8    9    8    9 ; Wght=  0.6666666667  0.3333333333
 cg2d: Sum(rhs),rhsMax =  -2.55795384873636E-13  4.97548222660077E+00
 Compute Stats, Diag. #    23 "ETAN    " (list#  1) Parms "SM      M1      ", vol(  0 )= 3.639E+14
 Compute Stats, Diag. #    30 "UVEL    " (list#  1) Parms "UUR     MR      ", vol(  0 )= 1.231E+18
 Compute Stats, Diag. #    31 "VVEL    " (list#  1) Parms "VVR     MR      ", vol(  0 )= 1.243E+18
 Compute Stats, Diag. #    32 "WVEL    " (list#  1) Parms "WM      LR      ", vol(  0 )= 1.315E+18
 Compute Stats, Diag. #    26 "THETA   " (list#  1) Parms "SMR     MR      ", vol(  0 )= 1.340E+18
 EXTERNAL_FIELDS_LOAD,       956 : iP,iLd,i0,i1=    8    9    8    9 ; Wght=  0.6333333333  0.3666666667
 cg2d: Sum(rhs),rhsMax =  -2.84217094304040E-14  4.97732846434945E+00
 EXTERNAL_FIELDS_LOAD,       957 : iP,iLd,i0,i1=    8    9    8    9 ; Wght=  0.6000000000  0.4000000000
 cg2d: Sum(rhs),rhsMax =  -1.42108547152020E-13  4.97891921743780E+00
 EXTERNAL_FIELDS_LOAD,       958 : iP,iLd,i0,i1=    8    9    8    9 ; Wght=  0.5666666667  0.4333333333
 cg2d: Sum(rhs),rhsMax =  -8.52651282912120E-14  4.98047608022755E+00
 EXTERNAL_FIELDS_LOAD,       959 : iP,iLd,i0,i1=    8    9    8    9 ; Wght=  0.5333333333  0.4666666667
 cg2d: Sum(rhs),rhsMax =  -8.52651282912120E-14  4.98171089743630E+00
(PID.TID 0000.0001)      cg2d_init_res =   1.60597457753627E-01
(PID.TID 0000.0001)      cg2d_iters(min,last) =      -1      58
(PID.TID 0000.0001)      cg2d_last_res =   4.88415334743861E-07
(PID.TID 0000.0001) // =======================================================
(PID.TID 0000.0001) // Begin MONITOR dynamic field statistics
(PID.TID 0000.0001) // =======================================================
(PID.TID 0000.0001) %MON time_tsnumber                =                   960
(PID.TID 0000.0001) %MON time_secondsf                =   8.2944000000000E+07
(PID.TID 0000.0001) %MON dynstat_eta_max              =   1.0326795587470E+00
(PID.TID 0000.0001) %MON dynstat_eta_min              =  -1.8662663126389E+00
(PID.TID 0000.0001) %MON dynstat_eta_mean             =   1.3740539251964E-16
(PID.TID 0000.0001) %MON dynstat_eta_sd               =   6.3156871390324E-01
(PID.TID 0000.0001) %MON dynstat_eta_del2             =   8.5175158758552E-04
(PID.TID 0000.0001) %MON dynstat_uvel_max             =   4.1234207878119E-01
(PID.TID 0000.0001) %MON dynstat_uvel_min             =  -2.5057109489962E-01
(PID.TID 0000.0001) %MON dynstat_uvel_mean            =  -4.9544697002219E-04
(PID.TID 0000.0001) %MON dynstat_uvel_sd              =   1.3392562006461E-02
(PID.TID 0000.0001) %MON dynstat_uvel_del2            =   5.5876401246037E-05
(PID.TID 0000.0001) %MON dynstat_vvel_max             =   3.4159389277807E-01
(PID.TID 0000.0001) %MON dynstat_vvel_min             =  -2.5216555290994E-01
(PID.TID 0000.0001) %MON dynstat_vvel_mean            =  -3.7754611528923E-04
(PID.TID 0000.0001) %MON dynstat_vvel_sd              =   1.3506126321463E-02
(PID.TID 0000.0001) %MON dynstat_vvel_del2            =   5.6534602826948E-05
(PID.TID 0000.0001) %MON dynstat_wvel_max             =   1.0758762889231E-04
(PID.TID 0000.0001) %MON dynstat_wvel_min             =  -2.1546093405467E-04
(PID.TID 0000.0001) %MON dynstat_wvel_mean            =  -5.8020311095697E-23
(PID.TID 0000.0001) %MON dynstat_wvel_sd              =   4.4187057395916E-06
(PID.TID 0000.0001) %MON dynstat_wvel_del2            =   3.3152767743034E-08
(PID.TID 0000.0001) %MON dynstat_theta_max            =   3.2242578981271E+01
(PID.TID 0000.0001) %MON dynstat_theta_min            =  -7.0616930267082E+00
(PID.TID 0000.0001) %MON dynstat_theta_mean           =   3.6054202498884E+00
(PID.TID 0000.0001) %MON dynstat_theta_sd             =   4.4149105767470E+00
(PID.TID 0000.0001) %MON dynstat_theta_del2           =   3.1193718699032E-03
(PID.TID 0000.0001) %MON dynstat_salt_max             =   4.1110498791378E+01
(PID.TID 0000.0001) %MON dynstat_salt_min             =   1.8641877276670E+01
(PID.TID 0000.0001) %MON dynstat_salt_mean            =   3.4721251980294E+01
(PID.TID 0000.0001) %MON dynstat_salt_sd              =   4.9530610415542E-01
(PID.TID 0000.0001) %MON dynstat_salt_del2            =   9.6912342853936E-04
(PID.TID 0000.0001) %MON forcing_qnet_max             =   2.3762888233198E+02
(PID.TID 0000.0001) %MON forcing_qnet_min             =  -1.4205239650770E+02
(PID.TID 0000.0001) %MON forcing_qnet_mean            =   3.5901723567551E+00
(PID.TID 0000.0001) %MON forcing_qnet_sd              =   5.3668616368277E+01
(PID.TID 0000.0001) %MON forcing_qnet_del2            =   3.8165863800027E-01
(PID.TID 0000.0001) %MON forcing_qsw_max              =   0.0000000000000E+00
(PID.TID 0000.0001) %MON forcing_qsw_min              =   0.0000000000000E+00
(PID.TID 0000.0001) %MON forcing_qsw_mean             =   0.0000000000000E+00
(PID.TID 0000.0001) %MON forcing_qsw_sd               =   0.0000000000000E+00
(PID.TID 0000.0001) %MON forcing_qsw_del2             =   0.0000000000000E+00
(PID.TID 0000.0001) %MON forcing_empmr_max            =   7.6494447208479E-05
(PID.TID 0000.0001) %MON forcing_empmr_min            =  -1.5362614137596E-04
(PID.TID 0000.0001) %MON forcing_empmr_mean           =  -2.7256318706594E-21
(PID.TID 0000.0001) %MON forcing_empmr_sd             =   2.4051723601802E-05
(PID.TID 0000.0001) %MON forcing_empmr_del2           =   1.2276157049243E-07
(PID.TID 0000.0001) %MON forcing_fu_max               =   3.7705416461979E-01
(PID.TID 0000.0001) %MON forcing_fu_min               =  -2.9191218893916E-01
(PID.TID 0000.0001) %MON forcing_fu_mean              =  -4.5636136682750E-03
(PID.TID 0000.0001) %MON forcing_fu_sd                =   8.2258737971817E-02
(PID.TID 0000.0001) %MON forcing_fu_del2              =   2.2845714929796E-04
(PID.TID 0000.0001) %MON forcing_fv_max               =   3.0904070945947E-01
(PID.TID 0000.0001) %MON forcing_fv_min               =  -3.7009336865929E-01
(PID.TID 0000.0001) %MON forcing_fv_mean              =  -6.1537312399580E-03
(PID.TID 0000.0001) %MON forcing_fv_sd                =   7.8247752992835E-02
(PID.TID 0000.0001) %MON forcing_fv_del2              =   2.2910904370404E-04
(PID.TID 0000.0001) %MON trAdv_CFL_u_max              =   1.2001728993806E-01
(PID.TID 0000.0001) %MON trAdv_CFL_v_max              =   1.0671125122812E-01
(PID.TID 0000.0001) %MON trAdv_CFL_w_max              =   9.0294768565255E-02
(PID.TID 0000.0001) %MON advcfl_uvel_max              =   1.1927266134639E-01
(PID.TID 0000.0001) %MON advcfl_vvel_max              =   9.8202740181096E-02
(PID.TID 0000.0001) %MON advcfl_wvel_max              =   7.0248395103107E-02
(PID.TID 0000.0001) %MON advcfl_W_hf_max              =   7.7565936259681E-02
(PID.TID 0000.0001) %MON pe_b_mean                    =   5.3138059307537E-04
(PID.TID 0000.0001) %MON ke_max                       =   8.3358638467143E-02
(PID.TID 0000.0001) %MON ke_mean                      =   1.6720874422939E-04
(PID.TID 0000.0001) %MON ke_vol                       =   1.3398024453628E+18
(PID.TID 0000.0001) %MON vort_r_min                   =  -1.0393892535306E-06
(PID.TID 0000.0001) %MON vort_r_max                   =   1.9461030298481E-06
(PID.TID 0000.0001) %MON vort_a_mean                  =  -2.0549865324846E-05
(PID.TID 0000.0001) %MON vort_a_sd                    =   7.5259639099594E-05
(PID.TID 0000.0001) %MON vort_p_mean                  =  -2.4783522345032E-05
(PID.TID 0000.0001) %MON vort_p_sd                    =   1.2810620761420E-04
(PID.TID 0000.0001) %MON surfExpan_theta_mean         =   5.1201346242523E-08
(PID.TID 0000.0001) %MON surfExpan_salt_mean          =   1.5661298450114E-08
(PID.TID 0000.0001) // =======================================================
(PID.TID 0000.0001) // End MONITOR dynamic field statistics
(PID.TID 0000.0001) // =======================================================
(PID.TID 0000.0001) // =======================================================
(PID.TID 0000.0001) // Begin MONITOR ptracer field statistics
(PID.TID 0000.0001) // =======================================================
(PID.TID 0000.0001) %MON trcstat_ptracer01_max        =   8.4326578780456E+07
(PID.TID 0000.0001) %MON trcstat_ptracer01_min        =  -3.1482704426469E+06
(PID.TID 0000.0001) %MON trcstat_ptracer01_mean       =   8.0366988909939E+07
(PID.TID 0000.0001) %MON trcstat_ptracer01_sd         =   1.1473735224224E+07
(PID.TID 0000.0001) %MON trcstat_ptracer01_del2       =   2.8721929318237E+04
(PID.TID 0000.0001) // =======================================================
(PID.TID 0000.0001) // End MONITOR ptracer field statistics
(PID.TID 0000.0001) // =======================================================
 Computing Diagnostic #    79 "DRHODR  " (list#  1) Parms "SM      LR      ", Count=      10
 Computing Diagnostic #    64 "RHOAnoma" (list#  1) Parms "SMR     MR      ", Count=      10
 Computing Diagnostic #    80 "CONVADJ " (list#  1) Parms "SMR     LR      ", Count=      10
 Computing Diagnostic #   210 "GM_Kwx  " (list#  1) Parms "UM      LR      ", Count=      10
             Vector  Mate for "GM_Kwx  " :  Diagnostic #    211 "GM_Kwy  " exists
 Computing Diagnostic #   211 "GM_Kwy  " (list#  1) Parms "VM      LR      ", Count=      10
             Vector  Mate for "GM_Kwy  " :  Diagnostic #    210 "GM_Kwx  " exists
 Computing Diagnostic #   212 "GM_Kwz  " (list#  1) Parms "WM P    LR      ", Count=      10
 Computing Diagnostic #   213 "GM_PsiX " (list#  1) Parms "UU      LR      ", Count=      10
             Vector  Mate for "GM_PsiX " :  Diagnostic #    214 "GM_PsiY " exists
 Computing Diagnostic #   214 "GM_PsiY " (list#  1) Parms "VV      LR      ", Count=      10
             Vector  Mate for "GM_PsiY " :  Diagnostic #    213 "GM_PsiX " exists
 EXTERNAL_FIELDS_LOAD,       960 : iP,iLd,i0,i1=    8    9    8    9 ; Wght=  0.5000000000  0.5000000000
 cg2d: Sum(rhs),rhsMax =  -1.98951966012828E-13  4.98284381987373E+00
 EXTERNAL_FIELDS_LOAD,       961 : iP,iLd,i0,i1=    8    9    8    9 ; Wght=  0.4666666667  0.5333333333
 cg2d: Sum(rhs),rhsMax =  -1.13686837721616E-13  4.98374296784788E+00
 EXTERNAL_FIELDS_LOAD,       962 : iP,iLd,i0,i1=    8    9    8    9 ; Wght=  0.4333333333  0.5666666667
 cg2d: Sum(rhs),rhsMax =   5.68434188608080E-14  4.98452877413514E+00
 EXTERNAL_FIELDS_LOAD,       963 : iP,iLd,i0,i1=    8    9    8    9 ; Wght=  0.4000000000  0.6000000000
 cg2d: Sum(rhs),rhsMax =  -1.13686837721616E-13  4.98503359192283E+00
 EXTERNAL_FIELDS_LOAD,       964 : iP,iLd,i0,i1=    8    9    8    9 ; Wght=  0.3666666667  0.6333333333
 cg2d: Sum(rhs),rhsMax =   1.13686837721616E-13  4.98540544130474E+00
 EXTERNAL_FIELDS_LOAD,       965 : iP,iLd,i0,i1=    8    9    8    9 ; Wght=  0.3333333333  0.6666666667
 cg2d: Sum(rhs),rhsMax =  -1.13686837721616E-13  4.98558157531333E+00
 Compute Stats, Diag. #    23 "ETAN    " (list#  1) Parms "SM      M1      ", vol(  0 )= 3.639E+14
 Compute Stats, Diag. #    30 "UVEL    " (list#  1) Parms "UUR     MR      ", vol(  0 )= 1.231E+18
 Compute Stats, Diag. #    31 "VVEL    " (list#  1) Parms "VVR     MR      ", vol(  0 )= 1.243E+18
 Compute Stats, Diag. #    32 "WVEL    " (list#  1) Parms "WM      LR      ", vol(  0 )= 1.315E+18
 Compute Stats, Diag. #    26 "THETA   " (list#  1) Parms "SMR     MR      ", vol(  0 )= 1.340E+18
 EXTERNAL_FIELDS_LOAD,       966 : iP,iLd,i0,i1=    8    9    8    9 ; Wght=  0.3000000000  0.7000000000
 cg2d: Sum(rhs),rhsMax =  -3.69482222595252E-13  4.98560625946026E+00
 EXTERNAL_FIELDS_LOAD,       967 : iP,iLd,i0,i1=    8    9    8    9 ; Wght=  0.2666666667  0.7333333333
 cg2d: Sum(rhs),rhsMax =  -2.27373675443232E-13  4.98550503316664E+00
 EXTERNAL_FIELDS_LOAD,       968 : iP,iLd,i0,i1=    8    9    8    9 ; Wght=  0.2333333333  0.7666666667
 cg2d: Sum(rhs),rhsMax =  -2.84217094304040E-13  4.98525716015620E+00
 EXTERNAL_FIELDS_LOAD,       969 : iP,iLd,i0,i1=    8    9    8    9 ; Wght=  0.2000000000  0.8000000000
 cg2d: Sum(rhs),rhsMax =  -5.68434188608080E-14  4.98497002536083E+00
 Computing Diagnostic #    79 "DRHODR  " (list#  1) Parms "SM      LR      ", Count=      10
 Computing Diagnostic #    64 "RHOAnoma" (list#  1) Parms "SMR     MR      ", Count=      10
 Computing Diagnostic #    80 "CONVADJ " (list#  1) Parms "SMR     LR      ", Count=      10
 Computing Diagnostic #   210 "GM_Kwx  " (list#  1) Parms "UM      LR      ", Count=      10
             Vector  Mate for "GM_Kwx  " :  Diagnostic #    211 "GM_Kwy  " exists
 Computing Diagnostic #   211 "GM_Kwy  " (list#  1) Parms "VM      LR      ", Count=      10
             Vector  Mate for "GM_Kwy  " :  Diagnostic #    210 "GM_Kwx  " exists
 Computing Diagnostic #   212 "GM_Kwz  " (list#  1) Parms "WM P    LR      ", Count=      10
 Computing Diagnostic #   213 "GM_PsiX " (list#  1) Parms "UU      LR      ", Count=      10
             Vector  Mate for "GM_PsiX " :  Diagnostic #    214 "GM_PsiY " exists
 Computing Diagnostic #   214 "GM_PsiY " (list#  1) Parms "VV      LR      ", Count=      10
             Vector  Mate for "GM_PsiY " :  Diagnostic #    213 "GM_PsiX " exists
 EXTERNAL_FIELDS_LOAD,       970 : iP,iLd,i0,i1=    8    9    8    9 ; Wght=  0.1666666667  0.8333333333
 cg2d: Sum(rhs),rhsMax =  -8.52651282912120E-14  4.98456360909190E+00
 EXTERNAL_FIELDS_LOAD,       971 : iP,iLd,i0,i1=    8    9    8    9 ; Wght=  0.1333333333  0.8666666667
 cg2d: Sum(rhs),rhsMax =  -1.70530256582424E-13  4.98418809810086E+00
 EXTERNAL_FIELDS_LOAD,       972 : iP,iLd,i0,i1=    8    9    8    9 ; Wght=  0.1000000000  0.9000000000
 cg2d: Sum(rhs),rhsMax =  -1.42108547152020E-13  4.98374891883221E+00
 EXTERNAL_FIELDS_LOAD,       973 : iP,iLd,i0,i1=    8    9    8    9 ; Wght=  0.0666666667  0.9333333333
 cg2d: Sum(rhs),rhsMax =  -1.42108547152020E-13  4.98339934541043E+00
 EXTERNAL_FIELDS_LOAD,       974 : iP,iLd,i0,i1=    8    9    8    9 ; Wght=  0.0333333333  0.9666666667
 cg2d: Sum(rhs),rhsMax =  -2.84217094304040E-13  4.98305541053169E+00
 EXTERNAL_FIELDS_LOAD,       975 : iP,iLd,i0,i1=    8    9    9   10 ; Wght=  1.0000000000  0.0000000000
 EXTERNAL_FIELDS_LOAD, it=       975 : Reading new data, i0,i1=    9   10 (prev=    8    9 )
(PID.TID 0000.0001)  MDS_READ_FIELD: opening global file: trenberth_taux.bin
(PID.TID 0000.0001)  MDS_READ_FIELD: opening global file: trenberth_taux.bin
(PID.TID 0000.0001)  MDS_READ_FIELD: opening global file: trenberth_tauy.bin
(PID.TID 0000.0001)  MDS_READ_FIELD: opening global file: trenberth_tauy.bin
(PID.TID 0000.0001)  MDS_READ_FIELD: opening global file: shiQnet_cs32.bin
(PID.TID 0000.0001)  MDS_READ_FIELD: opening global file: shiQnet_cs32.bin
(PID.TID 0000.0001)  MDS_READ_FIELD: opening global file: shiEmPR_cs32.bin
(PID.TID 0000.0001)  MDS_READ_FIELD: opening global file: shiEmPR_cs32.bin
(PID.TID 0000.0001)  MDS_READ_FIELD: opening global file: lev_surfT_cs_12m.bin
(PID.TID 0000.0001)  MDS_READ_FIELD: opening global file: lev_surfT_cs_12m.bin
(PID.TID 0000.0001)  MDS_READ_FIELD: opening global file: lev_surfS_cs_12m.bin
(PID.TID 0000.0001)  MDS_READ_FIELD: opening global file: lev_surfS_cs_12m.bin
 cg2d: Sum(rhs),rhsMax =   1.42108547152020E-13  4.98284794082653E+00
 Compute Stats, Diag. #    23 "ETAN    " (list#  1) Parms "SM      M1      ", vol(  0 )= 3.639E+14
 Compute Stats, Diag. #    30 "UVEL    " (list#  1) Parms "UUR     MR      ", vol(  0 )= 1.231E+18
 Compute Stats, Diag. #    31 "VVEL    " (list#  1) Parms "VVR     MR      ", vol(  0 )= 1.243E+18
 Compute Stats, Diag. #    32 "WVEL    " (list#  1) Parms "WM      LR      ", vol(  0 )= 1.315E+18
 Compute Stats, Diag. #    26 "THETA   " (list#  1) Parms "SMR     MR      ", vol(  0 )= 1.340E+18
 EXTERNAL_FIELDS_LOAD,       976 : iP,iLd,i0,i1=    9   10    9   10 ; Wght=  0.9666666667  0.0333333333
 cg2d: Sum(rhs),rhsMax =  -2.55795384873636E-13  4.98272120793748E+00
 EXTERNAL_FIELDS_LOAD,       977 : iP,iLd,i0,i1=    9   10    9   10 ; Wght=  0.9333333333  0.0666666667
 cg2d: Sum(rhs),rhsMax =  -1.42108547152020E-13  4.98274638695752E+00
 EXTERNAL_FIELDS_LOAD,       978 : iP,iLd,i0,i1=    9   10    9   10 ; Wght=  0.9000000000  0.1000000000
 cg2d: Sum(rhs),rhsMax =   8.52651282912120E-14  4.98290677878759E+00
 EXTERNAL_FIELDS_LOAD,       979 : iP,iLd,i0,i1=    9   10    9   10 ; Wght=  0.8666666667  0.1333333333
 cg2d: Sum(rhs),rhsMax =  -1.70530256582424E-13  4.98327143930142E+00
 Computing Diagnostic #    79 "DRHODR  " (list#  1) Parms "SM      LR      ", Count=      10
 Computing Diagnostic #    64 "RHOAnoma" (list#  1) Parms "SMR     MR      ", Count=      10
 Computing Diagnostic #    80 "CONVADJ " (list#  1) Parms "SMR     LR      ", Count=      10
 Computing Diagnostic #   210 "GM_Kwx  " (list#  1) Parms "UM      LR      ", Count=      10
             Vector  Mate for "GM_Kwx  " :  Diagnostic #    211 "GM_Kwy  " exists
 Computing Diagnostic #   211 "GM_Kwy  " (list#  1) Parms "VM      LR      ", Count=      10
             Vector  Mate for "GM_Kwy  " :  Diagnostic #    210 "GM_Kwx  " exists
 Computing Diagnostic #   212 "GM_Kwz  " (list#  1) Parms "WM P    LR      ", Count=      10
 Computing Diagnostic #   213 "GM_PsiX " (list#  1) Parms "UU      LR      ", Count=      10
             Vector  Mate for "GM_PsiX " :  Diagnostic #    214 "GM_PsiY " exists
 Computing Diagnostic #   214 "GM_PsiY " (list#  1) Parms "VV      LR      ", Count=      10
             Vector  Mate for "GM_PsiY " :  Diagnostic #    213 "GM_PsiX " exists
 EXTERNAL_FIELDS_LOAD,       980 : iP,iLd,i0,i1=    9   10    9   10 ; Wght=  0.8333333333  0.1666666667
 cg2d: Sum(rhs),rhsMax =  -5.68434188608080E-14  4.98381832202575E+00
 EXTERNAL_FIELDS_LOAD,       981 : iP,iLd,i0,i1=    9   10    9   10 ; Wght=  0.8000000000  0.2000000000
 cg2d: Sum(rhs),rhsMax =  -1.70530256582424E-13  4.98458663733049E+00
 EXTERNAL_FIELDS_LOAD,       982 : iP,iLd,i0,i1=    9   10    9   10 ; Wght=  0.7666666667  0.2333333333
 cg2d: Sum(rhs),rhsMax =  -2.55795384873636E-13  4.98556246124778E+00
 EXTERNAL_FIELDS_LOAD,       983 : iP,iLd,i0,i1=    9   10    9   10 ; Wght=  0.7333333333  0.2666666667
 cg2d: Sum(rhs),rhsMax =  -2.84217094304040E-14  4.98676080748534E+00
 EXTERNAL_FIELDS_LOAD,       984 : iP,iLd,i0,i1=    9   10    9   10 ; Wght=  0.7000000000  0.3000000000
 cg2d: Sum(rhs),rhsMax =  -3.12638803734444E-13  4.98816734933899E+00
 EXTERNAL_FIELDS_LOAD,       985 : iP,iLd,i0,i1=    9   10    9   10 ; Wght=  0.6666666667  0.3333333333
 cg2d: Sum(rhs),rhsMax =  -2.84217094304040E-13  4.98977764675218E+00
 Compute Stats, Diag. #    23 "ETAN    " (list#  1) Parms "SM      M1      ", vol(  0 )= 3.639E+14
 Compute Stats, Diag. #    30 "UVEL    " (list#  1) Parms "UUR     MR      ", vol(  0 )= 1.231E+18
 Compute Stats, Diag. #    31 "VVEL    " (list#  1) Parms "VVR     MR      ", vol(  0 )= 1.243E+18
 Compute Stats, Diag. #    32 "WVEL    " (list#  1) Parms "WM      LR      ", vol(  0 )= 1.315E+18
 Compute Stats, Diag. #    26 "THETA   " (list#  1) Parms "SMR     MR      ", vol(  0 )= 1.340E+18
 EXTERNAL_FIELDS_LOAD,       986 : iP,iLd,i0,i1=    9   10    9   10 ; Wght=  0.6333333333  0.3666666667
 cg2d: Sum(rhs),rhsMax =  -2.84217094304040E-13  4.99157216878122E+00
 EXTERNAL_FIELDS_LOAD,       987 : iP,iLd,i0,i1=    9   10    9   10 ; Wght=  0.6000000000  0.4000000000
 cg2d: Sum(rhs),rhsMax =  -2.55795384873636E-13  4.99353409567658E+00
 EXTERNAL_FIELDS_LOAD,       988 : iP,iLd,i0,i1=    9   10    9   10 ; Wght=  0.5666666667  0.4333333333
 cg2d: Sum(rhs),rhsMax =  -1.13686837721616E-13  4.99563844059432E+00
 EXTERNAL_FIELDS_LOAD,       989 : iP,iLd,i0,i1=    9   10    9   10 ; Wght=  0.5333333333  0.4666666667
 cg2d: Sum(rhs),rhsMax =  -4.83169060316868E-13  4.99785964142432E+00
(PID.TID 0000.0001)      cg2d_init_res =   1.52493478710596E-01
(PID.TID 0000.0001)      cg2d_iters(min,last) =      -1      60
(PID.TID 0000.0001)      cg2d_last_res =   5.16301037353705E-07
(PID.TID 0000.0001) // =======================================================
(PID.TID 0000.0001) // Begin MONITOR dynamic field statistics
(PID.TID 0000.0001) // =======================================================
(PID.TID 0000.0001) %MON time_tsnumber                =                   990
(PID.TID 0000.0001) %MON time_secondsf                =   8.5536000000000E+07
(PID.TID 0000.0001) %MON dynstat_eta_max              =   1.0335975973992E+00
(PID.TID 0000.0001) %MON dynstat_eta_min              =  -1.8664386629188E+00
(PID.TID 0000.0001) %MON dynstat_eta_mean             =   5.7710264858249E-16
(PID.TID 0000.0001) %MON dynstat_eta_sd               =   6.3261616988146E-01
(PID.TID 0000.0001) %MON dynstat_eta_del2             =   8.4939194514375E-04
(PID.TID 0000.0001) %MON dynstat_uvel_max             =   2.8641616018805E-01
(PID.TID 0000.0001) %MON dynstat_uvel_min             =  -2.6512719341828E-01
(PID.TID 0000.0001) %MON dynstat_uvel_mean            =  -4.8997319066959E-04
(PID.TID 0000.0001) %MON dynstat_uvel_sd              =   1.3198942166573E-02
(PID.TID 0000.0001) %MON dynstat_uvel_del2            =   5.6458845354380E-05
(PID.TID 0000.0001) %MON dynstat_vvel_max             =   3.0100658634756E-01
(PID.TID 0000.0001) %MON dynstat_vvel_min             =  -2.5929134816788E-01
(PID.TID 0000.0001) %MON dynstat_vvel_mean            =  -3.7302697947458E-04
(PID.TID 0000.0001) %MON dynstat_vvel_sd              =   1.3595716171590E-02
(PID.TID 0000.0001) %MON dynstat_vvel_del2            =   5.7050450140433E-05
(PID.TID 0000.0001) %MON dynstat_wvel_max             =   9.9177296500626E-05
(PID.TID 0000.0001) %MON dynstat_wvel_min             =  -2.1328948276254E-04
(PID.TID 0000.0001) %MON dynstat_wvel_mean            =   2.2627921327322E-22
(PID.TID 0000.0001) %MON dynstat_wvel_sd              =   4.3629541886459E-06
(PID.TID 0000.0001) %MON dynstat_wvel_del2            =   3.3470154393805E-08
(PID.TID 0000.0001) %MON dynstat_theta_max            =   3.2407167726875E+01
(PID.TID 0000.0001) %MON dynstat_theta_min            =  -7.0464412297366E+00
(PID.TID 0000.0001) %MON dynstat_theta_mean           =   3.6060659568032E+00
(PID.TID 0000.0001) %MON dynstat_theta_sd             =   4.4194177404142E+00
(PID.TID 0000.0001) %MON dynstat_theta_del2           =   3.1260097070076E-03
(PID.TID 0000.0001) %MON dynstat_salt_max             =   4.1139972334516E+01
(PID.TID 0000.0001) %MON dynstat_salt_min             =   1.8640455982380E+01
(PID.TID 0000.0001) %MON dynstat_salt_mean            =   3.4721241343605E+01
(PID.TID 0000.0001) %MON dynstat_salt_sd              =   4.9552572267147E-01
(PID.TID 0000.0001) %MON dynstat_salt_del2            =   9.7108227116948E-04
(PID.TID 0000.0001) %MON forcing_qnet_max             =   1.7226335228087E+02
(PID.TID 0000.0001) %MON forcing_qnet_min             =  -1.2167347573012E+02
(PID.TID 0000.0001) %MON forcing_qnet_mean            =  -5.4581290897012E+00
(PID.TID 0000.0001) %MON forcing_qnet_sd              =   4.6003165005274E+01
(PID.TID 0000.0001) %MON forcing_qnet_del2            =   3.6665444476665E-01
(PID.TID 0000.0001) %MON forcing_qsw_max              =   0.0000000000000E+00
(PID.TID 0000.0001) %MON forcing_qsw_min              =   0.0000000000000E+00
(PID.TID 0000.0001) %MON forcing_qsw_mean             =   0.0000000000000E+00
(PID.TID 0000.0001) %MON forcing_qsw_sd               =   0.0000000000000E+00
(PID.TID 0000.0001) %MON forcing_qsw_del2             =   0.0000000000000E+00
(PID.TID 0000.0001) %MON forcing_empmr_max            =   7.6494447208479E-05
(PID.TID 0000.0001) %MON forcing_empmr_min            =  -1.5362614137596E-04
(PID.TID 0000.0001) %MON forcing_empmr_mean           =  -2.7256318706594E-21
(PID.TID 0000.0001) %MON forcing_empmr_sd             =   2.4051723601802E-05
(PID.TID 0000.0001) %MON forcing_empmr_del2           =   1.2276157049243E-07
(PID.TID 0000.0001) %MON forcing_fu_max               =   3.2743992123322E-01
(PID.TID 0000.0001) %MON forcing_fu_min               =  -2.8385275945570E-01
(PID.TID 0000.0001) %MON forcing_fu_mean              =  -4.6229742049373E-03
(PID.TID 0000.0001) %MON forcing_fu_sd                =   7.7186806088874E-02
(PID.TID 0000.0001) %MON forcing_fu_del2              =   2.0806739202098E-04
(PID.TID 0000.0001) %MON forcing_fv_max               =   2.4905121089957E-01
(PID.TID 0000.0001) %MON forcing_fv_min               =  -3.3699518760212E-01
(PID.TID 0000.0001) %MON forcing_fv_mean              =  -8.2032430591580E-03
(PID.TID 0000.0001) %MON forcing_fv_sd                =   7.5566589024491E-02
(PID.TID 0000.0001) %MON forcing_fv_del2              =   2.1186363648930E-04
(PID.TID 0000.0001) %MON trAdv_CFL_u_max              =   7.9897517014917E-02
(PID.TID 0000.0001) %MON trAdv_CFL_v_max              =   8.6365837388339E-02
(PID.TID 0000.0001) %MON trAdv_CFL_w_max              =   7.7640509913777E-02
(PID.TID 0000.0001) %MON advcfl_uvel_max              =   8.3344080318658E-02
(PID.TID 0000.0001) %MON advcfl_vvel_max              =   8.6534543552546E-02
(PID.TID 0000.0001) %MON advcfl_wvel_max              =   6.9540420040315E-02
(PID.TID 0000.0001) %MON advcfl_W_hf_max              =   7.6784213794514E-02
(PID.TID 0000.0001) %MON pe_b_mean                    =   5.3314464289307E-04
(PID.TID 0000.0001) %MON ke_max                       =   5.9301723831588E-02
(PID.TID 0000.0001) %MON ke_mean                      =   1.6596590843876E-04
(PID.TID 0000.0001) %MON ke_vol                       =   1.3398024453628E+18
(PID.TID 0000.0001) %MON vort_r_min                   =  -1.0256222945010E-06
(PID.TID 0000.0001) %MON vort_r_max                   =   1.7706779661401E-06
(PID.TID 0000.0001) %MON vort_a_mean                  =  -2.0549865324846E-05
(PID.TID 0000.0001) %MON vort_a_sd                    =   7.5259642152410E-05
(PID.TID 0000.0001) %MON vort_p_mean                  =  -2.4783522345032E-05
(PID.TID 0000.0001) %MON vort_p_sd                    =   1.2810624077971E-04
(PID.TID 0000.0001) %MON surfExpan_theta_mean         =   4.7787517303238E-08
(PID.TID 0000.0001) %MON surfExpan_salt_mean          =   1.6260742791267E-08
(PID.TID 0000.0001) // =======================================================
(PID.TID 0000.0001) // End MONITOR dynamic field statistics
(PID.TID 0000.0001) // =======================================================
(PID.TID 0000.0001) // =======================================================
(PID.TID 0000.0001) // Begin MONITOR ptracer field statistics
(PID.TID 0000.0001) // =======================================================
(PID.TID 0000.0001) %MON trcstat_ptracer01_max        =   8.7027344873293E+07
(PID.TID 0000.0001) %MON trcstat_ptracer01_min        =  -3.8696424225151E+06
(PID.TID 0000.0001) %MON trcstat_ptracer01_mean       =   8.2811255108788E+07
(PID.TID 0000.0001) %MON trcstat_ptracer01_sd         =   1.1999363462833E+07
(PID.TID 0000.0001) %MON trcstat_ptracer01_del2       =   2.8894152223518E+04
(PID.TID 0000.0001) // =======================================================
(PID.TID 0000.0001) // End MONITOR ptracer field statistics
(PID.TID 0000.0001) // =======================================================
 Computing Diagnostic #    79 "DRHODR  " (list#  1) Parms "SM      LR      ", Count=      10
 Computing Diagnostic #    64 "RHOAnoma" (list#  1) Parms "SMR     MR      ", Count=      10
 Computing Diagnostic #    80 "CONVADJ " (list#  1) Parms "SMR     LR      ", Count=      10
 Computing Diagnostic #   210 "GM_Kwx  " (list#  1) Parms "UM      LR      ", Count=      10
             Vector  Mate for "GM_Kwx  " :  Diagnostic #    211 "GM_Kwy  " exists
 Computing Diagnostic #   211 "GM_Kwy  " (list#  1) Parms "VM      LR      ", Count=      10
             Vector  Mate for "GM_Kwy  " :  Diagnostic #    210 "GM_Kwx  " exists
 Computing Diagnostic #   212 "GM_Kwz  " (list#  1) Parms "WM P    LR      ", Count=      10
 Computing Diagnostic #   213 "GM_PsiX " (list#  1) Parms "UU      LR      ", Count=      10
             Vector  Mate for "GM_PsiX " :  Diagnostic #    214 "GM_PsiY " exists
 Computing Diagnostic #   214 "GM_PsiY " (list#  1) Parms "VV      LR      ", Count=      10
             Vector  Mate for "GM_PsiY " :  Diagnostic #    213 "GM_PsiX " exists
 EXTERNAL_FIELDS_LOAD,       990 : iP,iLd,i0,i1=    9   10    9   10 ; Wght=  0.5000000000  0.5000000000
 cg2d: Sum(rhs),rhsMax =   1.13686837721616E-13  5.00016219846762E+00
 EXTERNAL_FIELDS_LOAD,       991 : iP,iLd,i0,i1=    9   10    9   10 ; Wght=  0.4666666667  0.5333333333
 cg2d: Sum(rhs),rhsMax =  -1.13686837721616E-13  5.00251872413289E+00
 EXTERNAL_FIELDS_LOAD,       992 : iP,iLd,i0,i1=    9   10    9   10 ; Wght=  0.4333333333  0.5666666667
 cg2d: Sum(rhs),rhsMax =  -5.68434188608080E-14  5.00489290215609E+00
 EXTERNAL_FIELDS_LOAD,       993 : iP,iLd,i0,i1=    9   10    9   10 ; Wght=  0.4000000000  0.6000000000
 cg2d: Sum(rhs),rhsMax =  -4.83169060316868E-13  5.00724596452275E+00
 EXTERNAL_FIELDS_LOAD,       994 : iP,iLd,i0,i1=    9   10    9   10 ; Wght=  0.3666666667  0.6333333333
 cg2d: Sum(rhs),rhsMax =  -1.13686837721616E-13  5.00954232167944E+00
 EXTERNAL_FIELDS_LOAD,       995 : iP,iLd,i0,i1=    9   10    9   10 ; Wght=  0.3333333333  0.6666666667
 cg2d: Sum(rhs),rhsMax =   0.00000000000000E+00  5.01174353855464E+00
 Compute Stats, Diag. #    23 "ETAN    " (list#  1) Parms "SM      M1      ", vol(  0 )= 3.639E+14
 Compute Stats, Diag. #    30 "UVEL    " (list#  1) Parms "UUR     MR      ", vol(  0 )= 1.231E+18
 Compute Stats, Diag. #    31 "VVEL    " (list#  1) Parms "VVR     MR      ", vol(  0 )= 1.243E+18
 Compute Stats, Diag. #    32 "WVEL    " (list#  1) Parms "WM      LR      ", vol(  0 )= 1.315E+18
 Compute Stats, Diag. #    26 "THETA   " (list#  1) Parms "SMR     MR      ", vol(  0 )= 1.340E+18
 EXTERNAL_FIELDS_LOAD,       996 : iP,iLd,i0,i1=    9   10    9   10 ; Wght=  0.3000000000  0.7000000000
 cg2d: Sum(rhs),rhsMax =  -1.42108547152020E-13  5.01381603083240E+00
 EXTERNAL_FIELDS_LOAD,       997 : iP,iLd,i0,i1=    9   10    9   10 ; Wght=  0.2666666667  0.7333333333
 cg2d: Sum(rhs),rhsMax =   0.00000000000000E+00  5.01572308797009E+00
 EXTERNAL_FIELDS_LOAD,       998 : iP,iLd,i0,i1=    9   10    9   10 ; Wght=  0.2333333333  0.7666666667
 cg2d: Sum(rhs),rhsMax =  -1.70530256582424E-13  5.01743409802092E+00
 EXTERNAL_FIELDS_LOAD,       999 : iP,iLd,i0,i1=    9   10    9   10 ; Wght=  0.2000000000  0.8000000000
 cg2d: Sum(rhs),rhsMax =  -2.84217094304040E-13  5.01891863015967E+00
 Computing Diagnostic #    79 "DRHODR  " (list#  1) Parms "SM      LR      ", Count=      10
 Computing Diagnostic #    64 "RHOAnoma" (list#  1) Parms "SMR     MR      ", Count=      10
 Computing Diagnostic #    80 "CONVADJ " (list#  1) Parms "SMR     LR      ", Count=      10
 Computing Diagnostic #   210 "GM_Kwx  " (list#  1) Parms "UM      LR      ", Count=      10
             Vector  Mate for "GM_Kwx  " :  Diagnostic #    211 "GM_Kwy  " exists
 Computing Diagnostic #   211 "GM_Kwy  " (list#  1) Parms "VM      LR      ", Count=      10
             Vector  Mate for "GM_Kwy  " :  Diagnostic #    210 "GM_Kwx  " exists
 Computing Diagnostic #   212 "GM_Kwz  " (list#  1) Parms "WM P    LR      ", Count=      10
 Computing Diagnostic #   213 "GM_PsiX " (list#  1) Parms "UU      LR      ", Count=      10
             Vector  Mate for "GM_PsiX " :  Diagnostic #    214 "GM_PsiY " exists
 Computing Diagnostic #   214 "GM_PsiY " (list#  1) Parms "VV      LR      ", Count=      10
             Vector  Mate for "GM_PsiY " :  Diagnostic #    213 "GM_PsiX " exists
 EXTERNAL_FIELDS_LOAD,      1000 : iP,iLd,i0,i1=    9   10    9   10 ; Wght=  0.1666666667  0.8333333333
 cg2d: Sum(rhs),rhsMax =   1.98951966012828E-13  5.02015148272904E+00
 EXTERNAL_FIELDS_LOAD,      1001 : iP,iLd,i0,i1=    9   10    9   10 ; Wght=  0.1333333333  0.8666666667
 cg2d: Sum(rhs),rhsMax =  -3.41060513164848E-13  5.02111030557852E+00
 EXTERNAL_FIELDS_LOAD,      1002 : iP,iLd,i0,i1=    9   10    9   10 ; Wght=  0.1000000000  0.9000000000
 cg2d: Sum(rhs),rhsMax =  -2.84217094304040E-13  5.02177793643259E+00
 EXTERNAL_FIELDS_LOAD,      1003 : iP,iLd,i0,i1=    9   10    9   10 ; Wght=  0.0666666667  0.9333333333
 cg2d: Sum(rhs),rhsMax =  -2.55795384873636E-13  5.02214147497940E+00
 EXTERNAL_FIELDS_LOAD,      1004 : iP,iLd,i0,i1=    9   10    9   10 ; Wght=  0.0333333333  0.9666666667
 cg2d: Sum(rhs),rhsMax =  -2.27373675443232E-13  5.02219348160399E+00
 EXTERNAL_FIELDS_LOAD,      1005 : iP,iLd,i0,i1=    9   10   10   11 ; Wght=  1.0000000000  0.0000000000
 EXTERNAL_FIELDS_LOAD, it=      1005 : Reading new data, i0,i1=   10   11 (prev=    9   10 )
(PID.TID 0000.0001)  MDS_READ_FIELD: opening global file: trenberth_taux.bin
(PID.TID 0000.0001)  MDS_READ_FIELD: opening global file: trenberth_taux.bin
(PID.TID 0000.0001)  MDS_READ_FIELD: opening global file: trenberth_tauy.bin
(PID.TID 0000.0001)  MDS_READ_FIELD: opening global file: trenberth_tauy.bin
(PID.TID 0000.0001)  MDS_READ_FIELD: opening global file: shiQnet_cs32.bin
(PID.TID 0000.0001)  MDS_READ_FIELD: opening global file: shiQnet_cs32.bin
(PID.TID 0000.0001)  MDS_READ_FIELD: opening global file: shiEmPR_cs32.bin
(PID.TID 0000.0001)  MDS_READ_FIELD: opening global file: shiEmPR_cs32.bin
(PID.TID 0000.0001)  MDS_READ_FIELD: opening global file: lev_surfT_cs_12m.bin
(PID.TID 0000.0001)  MDS_READ_FIELD: opening global file: lev_surfT_cs_12m.bin
(PID.TID 0000.0001)  MDS_READ_FIELD: opening global file: lev_surfS_cs_12m.bin
(PID.TID 0000.0001)  MDS_READ_FIELD: opening global file: lev_surfS_cs_12m.bin
 cg2d: Sum(rhs),rhsMax =   8.52651282912120E-14  5.02193149513258E+00
 Compute Stats, Diag. #    23 "ETAN    " (list#  1) Parms "SM      M1      ", vol(  0 )= 3.639E+14
 Compute Stats, Diag. #    30 "UVEL    " (list#  1) Parms "UUR     MR      ", vol(  0 )= 1.231E+18
 Compute Stats, Diag. #    31 "VVEL    " (list#  1) Parms "VVR     MR      ", vol(  0 )= 1.243E+18
 Compute Stats, Diag. #    32 "WVEL    " (list#  1) Parms "WM      LR      ", vol(  0 )= 1.315E+18
 Compute Stats, Diag. #    26 "THETA   " (list#  1) Parms "SMR     MR      ", vol(  0 )= 1.340E+18
 EXTERNAL_FIELDS_LOAD,      1006 : iP,iLd,i0,i1=   10   11   10   11 ; Wght=  0.9666666667  0.0333333333
 cg2d: Sum(rhs),rhsMax =   0.00000000000000E+00  5.02133117523634E+00
 EXTERNAL_FIELDS_LOAD,      1007 : iP,iLd,i0,i1=   10   11   10   11 ; Wght=  0.9333333333  0.0666666667
 cg2d: Sum(rhs),rhsMax =   5.68434188608080E-14  5.02036278321949E+00
 EXTERNAL_FIELDS_LOAD,      1008 : iP,iLd,i0,i1=   10   11   10   11 ; Wght=  0.9000000000  0.1000000000
 cg2d: Sum(rhs),rhsMax =  -4.54747350886464E-13  5.01905208672727E+00
 EXTERNAL_FIELDS_LOAD,      1009 : iP,iLd,i0,i1=   10   11   10   11 ; Wght=  0.8666666667  0.1333333333
 cg2d: Sum(rhs),rhsMax =  -2.55795384873636E-13  5.01742397735295E+00
 Computing Diagnostic #    79 "DRHODR  " (list#  1) Parms "SM      LR      ", Count=      10
 Computing Diagnostic #    64 "RHOAnoma" (list#  1) Parms "SMR     MR      ", Count=      10
 Computing Diagnostic #    80 "CONVADJ " (list#  1) Parms "SMR     LR      ", Count=      10
 Computing Diagnostic #   210 "GM_Kwx  " (list#  1) Parms "UM      LR      ", Count=      10
             Vector  Mate for "GM_Kwx  " :  Diagnostic #    211 "GM_Kwy  " exists
 Computing Diagnostic #   211 "GM_Kwy  " (list#  1) Parms "VM      LR      ", Count=      10
             Vector  Mate for "GM_Kwy  " :  Diagnostic #    210 "GM_Kwx  " exists
 Computing Diagnostic #   212 "GM_Kwz  " (list#  1) Parms "WM P    LR      ", Count=      10
 Computing Diagnostic #   213 "GM_PsiX " (list#  1) Parms "UU      LR      ", Count=      10
             Vector  Mate for "GM_PsiX " :  Diagnostic #    214 "GM_PsiY " exists
 Computing Diagnostic #   214 "GM_PsiY " (list#  1) Parms "VV      LR      ", Count=      10
             Vector  Mate for "GM_PsiY " :  Diagnostic #    213 "GM_PsiX " exists
 EXTERNAL_FIELDS_LOAD,      1010 : iP,iLd,i0,i1=   10   11   10   11 ; Wght=  0.8333333333  0.1666666667
 cg2d: Sum(rhs),rhsMax =   1.13686837721616E-13  5.01550440415914E+00
 EXTERNAL_FIELDS_LOAD,      1011 : iP,iLd,i0,i1=   10   11   10   11 ; Wght=  0.8000000000  0.2000000000
 cg2d: Sum(rhs),rhsMax =  -1.98951966012828E-13  5.01332248214410E+00
 EXTERNAL_FIELDS_LOAD,      1012 : iP,iLd,i0,i1=   10   11   10   11 ; Wght=  0.7666666667  0.2333333333
 cg2d: Sum(rhs),rhsMax =  -2.27373675443232E-13  5.01091007524907E+00
 EXTERNAL_FIELDS_LOAD,      1013 : iP,iLd,i0,i1=   10   11   10   11 ; Wght=  0.7333333333  0.2666666667
 cg2d: Sum(rhs),rhsMax =  -2.55795384873636E-13  5.01104272565990E+00
 EXTERNAL_FIELDS_LOAD,      1014 : iP,iLd,i0,i1=   10   11   10   11 ; Wght=  0.7000000000  0.3000000000
 cg2d: Sum(rhs),rhsMax =  -2.84217094304040E-13  5.01330982832092E+00
 EXTERNAL_FIELDS_LOAD,      1015 : iP,iLd,i0,i1=   10   11   10   11 ; Wght=  0.6666666667  0.3333333333
 cg2d: Sum(rhs),rhsMax =  -1.98951966012828E-13  5.01530423526773E+00
 Compute Stats, Diag. #    23 "ETAN    " (list#  1) Parms "SM      M1      ", vol(  0 )= 3.639E+14
 Compute Stats, Diag. #    30 "UVEL    " (list#  1) Parms "UUR     MR      ", vol(  0 )= 1.231E+18
 Compute Stats, Diag. #    31 "VVEL    " (list#  1) Parms "VVR     MR      ", vol(  0 )= 1.243E+18
 Compute Stats, Diag. #    32 "WVEL    " (list#  1) Parms "WM      LR      ", vol(  0 )= 1.315E+18
 Compute Stats, Diag. #    26 "THETA   " (list#  1) Parms "SMR     MR      ", vol(  0 )= 1.340E+18
 EXTERNAL_FIELDS_LOAD,      1016 : iP,iLd,i0,i1=   10   11   10   11 ; Wght=  0.6333333333  0.3666666667
 cg2d: Sum(rhs),rhsMax =  -1.13686837721616E-13  5.01703530696864E+00
 EXTERNAL_FIELDS_LOAD,      1017 : iP,iLd,i0,i1=   10   11   10   11 ; Wght=  0.6000000000  0.4000000000
 cg2d: Sum(rhs),rhsMax =   1.13686837721616E-13  5.01851631763095E+00
 EXTERNAL_FIELDS_LOAD,      1018 : iP,iLd,i0,i1=   10   11   10   11 ; Wght=  0.5666666667  0.4333333333
 cg2d: Sum(rhs),rhsMax =   0.00000000000000E+00  5.01976394561246E+00
 EXTERNAL_FIELDS_LOAD,      1019 : iP,iLd,i0,i1=   10   11   10   11 ; Wght=  0.5333333333  0.4666666667
 cg2d: Sum(rhs),rhsMax =  -2.27373675443232E-13  5.02079778677877E+00
(PID.TID 0000.0001)      cg2d_init_res =   1.57420773867389E-01
(PID.TID 0000.0001)      cg2d_iters(min,last) =      -1      62
(PID.TID 0000.0001)      cg2d_last_res =   5.72850056295252E-07
(PID.TID 0000.0001) // =======================================================
(PID.TID 0000.0001) // Begin MONITOR dynamic field statistics
(PID.TID 0000.0001) // =======================================================
(PID.TID 0000.0001) %MON time_tsnumber                =                  1020
(PID.TID 0000.0001) %MON time_secondsf                =   8.8128000000000E+07
(PID.TID 0000.0001) %MON dynstat_eta_max              =   1.0065001275599E+00
(PID.TID 0000.0001) %MON dynstat_eta_min              =  -1.8645237044409E+00
(PID.TID 0000.0001) %MON dynstat_eta_mean             =   2.8855132429124E-16
(PID.TID 0000.0001) %MON dynstat_eta_sd               =   6.3326873906218E-01
(PID.TID 0000.0001) %MON dynstat_eta_del2             =   8.4673960218792E-04
(PID.TID 0000.0001) %MON dynstat_uvel_max             =   1.8157587412797E-01
(PID.TID 0000.0001) %MON dynstat_uvel_min             =  -2.7753767101324E-01
(PID.TID 0000.0001) %MON dynstat_uvel_mean            =  -4.9285464633747E-04
(PID.TID 0000.0001) %MON dynstat_uvel_sd              =   1.3084376410134E-02
(PID.TID 0000.0001) %MON dynstat_uvel_del2            =   5.6150373521818E-05
(PID.TID 0000.0001) %MON dynstat_vvel_max             =   2.0142446416286E-01
(PID.TID 0000.0001) %MON dynstat_vvel_min             =  -2.2860846994318E-01
(PID.TID 0000.0001) %MON dynstat_vvel_mean            =  -3.8094822743077E-04
(PID.TID 0000.0001) %MON dynstat_vvel_sd              =   1.3400228502836E-02
(PID.TID 0000.0001) %MON dynstat_vvel_del2            =   5.6399808470436E-05
(PID.TID 0000.0001) %MON dynstat_wvel_max             =   9.6909607553225E-05
(PID.TID 0000.0001) %MON dynstat_wvel_min             =  -2.0532368109563E-04
(PID.TID 0000.0001) %MON dynstat_wvel_mean            =   5.8020311095697E-24
(PID.TID 0000.0001) %MON dynstat_wvel_sd              =   4.3403499094236E-06
(PID.TID 0000.0001) %MON dynstat_wvel_del2            =   3.2727279032142E-08
(PID.TID 0000.0001) %MON dynstat_theta_max            =   3.1306110544227E+01
(PID.TID 0000.0001) %MON dynstat_theta_min            =  -7.0332143446905E+00
(PID.TID 0000.0001) %MON dynstat_theta_mean           =   3.6069302411924E+00
(PID.TID 0000.0001) %MON dynstat_theta_sd             =   4.4202953345591E+00
(PID.TID 0000.0001) %MON dynstat_theta_del2           =   3.0552701170857E-03
(PID.TID 0000.0001) %MON dynstat_salt_max             =   4.1163942844799E+01
(PID.TID 0000.0001) %MON dynstat_salt_min             =   1.8647578650492E+01
(PID.TID 0000.0001) %MON dynstat_salt_mean            =   3.4721238465482E+01
(PID.TID 0000.0001) %MON dynstat_salt_sd              =   4.9577690002521E-01
(PID.TID 0000.0001) %MON dynstat_salt_del2            =   9.5925352823506E-04
(PID.TID 0000.0001) %MON forcing_qnet_max             =   2.9793704503360E+02
(PID.TID 0000.0001) %MON forcing_qnet_min             =  -1.5960049763274E+02
(PID.TID 0000.0001) %MON forcing_qnet_mean            =  -9.1500673756630E+00
(PID.TID 0000.0001) %MON forcing_qnet_sd              =   7.6297913186258E+01
(PID.TID 0000.0001) %MON forcing_qnet_del2            =   3.7237364511610E-01
(PID.TID 0000.0001) %MON forcing_qsw_max              =   0.0000000000000E+00
(PID.TID 0000.0001) %MON forcing_qsw_min              =   0.0000000000000E+00
(PID.TID 0000.0001) %MON forcing_qsw_mean             =   0.0000000000000E+00
(PID.TID 0000.0001) %MON forcing_qsw_sd               =   0.0000000000000E+00
(PID.TID 0000.0001) %MON forcing_qsw_del2             =   0.0000000000000E+00
(PID.TID 0000.0001) %MON forcing_empmr_max            =   7.6494447208479E-05
(PID.TID 0000.0001) %MON forcing_empmr_min            =  -1.5362614137596E-04
(PID.TID 0000.0001) %MON forcing_empmr_mean           =  -2.7256318706594E-21
(PID.TID 0000.0001) %MON forcing_empmr_sd             =   2.4051723601802E-05
(PID.TID 0000.0001) %MON forcing_empmr_del2           =   1.2276157049243E-07
(PID.TID 0000.0001) %MON forcing_fu_max               =   2.6915244895338E-01
(PID.TID 0000.0001) %MON forcing_fu_min               =  -2.7782947882907E-01
(PID.TID 0000.0001) %MON forcing_fu_mean              =  -6.4828803941406E-03
(PID.TID 0000.0001) %MON forcing_fu_sd                =   7.2811021444024E-02
(PID.TID 0000.0001) %MON forcing_fu_del2              =   1.9167538037379E-04
(PID.TID 0000.0001) %MON forcing_fv_max               =   2.2045225648718E-01
(PID.TID 0000.0001) %MON forcing_fv_min               =  -3.0184930756779E-01
(PID.TID 0000.0001) %MON forcing_fv_mean              =  -9.4338065170268E-03
(PID.TID 0000.0001) %MON forcing_fv_sd                =   7.6063126012394E-02
(PID.TID 0000.0001) %MON forcing_fv_del2              =   2.0735338434629E-04
(PID.TID 0000.0001) %MON trAdv_CFL_u_max              =   7.8209187466037E-02
(PID.TID 0000.0001) %MON trAdv_CFL_v_max              =   9.4483714643910E-02
(PID.TID 0000.0001) %MON trAdv_CFL_w_max              =   7.4739688892318E-02
(PID.TID 0000.0001) %MON advcfl_uvel_max              =   7.8714948024432E-02
(PID.TID 0000.0001) %MON advcfl_vvel_max              =   7.4365120373056E-02
(PID.TID 0000.0001) %MON advcfl_wvel_max              =   6.6943268100614E-02
(PID.TID 0000.0001) %MON advcfl_W_hf_max              =   7.3916525194428E-02
(PID.TID 0000.0001) %MON pe_b_mean                    =   5.3424513074955E-04
(PID.TID 0000.0001) %MON ke_max                       =   3.9608712916805E-02
(PID.TID 0000.0001) %MON ke_mean                      =   1.6213782812984E-04
(PID.TID 0000.0001) %MON ke_vol                       =   1.3398024453628E+18
(PID.TID 0000.0001) %MON vort_r_min                   =  -9.8351191048584E-07
(PID.TID 0000.0001) %MON vort_r_max                   =   1.3762555939051E-06
(PID.TID 0000.0001) %MON vort_a_mean                  =  -2.0549865324846E-05
(PID.TID 0000.0001) %MON vort_a_sd                    =   7.5259639883189E-05
(PID.TID 0000.0001) %MON vort_p_mean                  =  -2.4783522345032E-05
(PID.TID 0000.0001) %MON vort_p_sd                    =   1.2810623137401E-04
(PID.TID 0000.0001) %MON surfExpan_theta_mean         =   3.9482121993537E-08
(PID.TID 0000.0001) %MON surfExpan_salt_mean          =   1.5785502546554E-08
(PID.TID 0000.0001) // =======================================================
(PID.TID 0000.0001) // End MONITOR dynamic field statistics
(PID.TID 0000.0001) // =======================================================
(PID.TID 0000.0001) // =======================================================
(PID.TID 0000.0001) // Begin MONITOR ptracer field statistics
(PID.TID 0000.0001) // =======================================================
(PID.TID 0000.0001) %MON trcstat_ptracer01_max        =   8.9860530726833E+07
(PID.TID 0000.0001) %MON trcstat_ptracer01_min        =  -3.5156680446305E+06
(PID.TID 0000.0001) %MON trcstat_ptracer01_mean       =   8.5271610987098E+07
(PID.TID 0000.0001) %MON trcstat_ptracer01_sd         =   1.2486795261904E+07
(PID.TID 0000.0001) %MON trcstat_ptracer01_del2       =   2.7148219932625E+04
(PID.TID 0000.0001) // =======================================================
(PID.TID 0000.0001) // End MONITOR ptracer field statistics
(PID.TID 0000.0001) // =======================================================
 Computing Diagnostic #    79 "DRHODR  " (list#  1) Parms "SM      LR      ", Count=      10
 Computing Diagnostic #    64 "RHOAnoma" (list#  1) Parms "SMR     MR      ", Count=      10
 Computing Diagnostic #    80 "CONVADJ " (list#  1) Parms "SMR     LR      ", Count=      10
 Computing Diagnostic #   210 "GM_Kwx  " (list#  1) Parms "UM      LR      ", Count=      10
             Vector  Mate for "GM_Kwx  " :  Diagnostic #    211 "GM_Kwy  " exists
 Computing Diagnostic #   211 "GM_Kwy  " (list#  1) Parms "VM      LR      ", Count=      10
             Vector  Mate for "GM_Kwy  " :  Diagnostic #    210 "GM_Kwx  " exists
 Computing Diagnostic #   212 "GM_Kwz  " (list#  1) Parms "WM P    LR      ", Count=      10
 Computing Diagnostic #   213 "GM_PsiX " (list#  1) Parms "UU      LR      ", Count=      10
             Vector  Mate for "GM_PsiX " :  Diagnostic #    214 "GM_PsiY " exists
 Computing Diagnostic #   214 "GM_PsiY " (list#  1) Parms "VV      LR      ", Count=      10
             Vector  Mate for "GM_PsiY " :  Diagnostic #    213 "GM_PsiX " exists
 EXTERNAL_FIELDS_LOAD,      1020 : iP,iLd,i0,i1=   10   11   10   11 ; Wght=  0.5000000000  0.5000000000
 cg2d: Sum(rhs),rhsMax =   0.00000000000000E+00  5.02163985577268E+00
 EXTERNAL_FIELDS_LOAD,      1021 : iP,iLd,i0,i1=   10   11   10   11 ; Wght=  0.4666666667  0.5333333333
 cg2d: Sum(rhs),rhsMax =   1.70530256582424E-13  5.02231406669999E+00
 EXTERNAL_FIELDS_LOAD,      1022 : iP,iLd,i0,i1=   10   11   10   11 ; Wght=  0.4333333333  0.5666666667
 cg2d: Sum(rhs),rhsMax =   0.00000000000000E+00  5.02284565012898E+00
 EXTERNAL_FIELDS_LOAD,      1023 : iP,iLd,i0,i1=   10   11   10   11 ; Wght=  0.4000000000  0.6000000000
 cg2d: Sum(rhs),rhsMax =  -1.70530256582424E-13  5.02326072000905E+00
 EXTERNAL_FIELDS_LOAD,      1024 : iP,iLd,i0,i1=   10   11   10   11 ; Wght=  0.3666666667  0.6333333333
 cg2d: Sum(rhs),rhsMax =  -3.69482222595252E-13  5.02358561925530E+00
 EXTERNAL_FIELDS_LOAD,      1025 : iP,iLd,i0,i1=   10   11   10   11 ; Wght=  0.3333333333  0.6666666667
 cg2d: Sum(rhs),rhsMax =  -1.98951966012828E-13  5.02384641329639E+00
 Compute Stats, Diag. #    23 "ETAN    " (list#  1) Parms "SM      M1      ", vol(  0 )= 3.639E+14
 Compute Stats, Diag. #    30 "UVEL    " (list#  1) Parms "UUR     MR      ", vol(  0 )= 1.231E+18
 Compute Stats, Diag. #    31 "VVEL    " (list#  1) Parms "VVR     MR      ", vol(  0 )= 1.243E+18
 Compute Stats, Diag. #    32 "WVEL    " (list#  1) Parms "WM      LR      ", vol(  0 )= 1.315E+18
 Compute Stats, Diag. #    26 "THETA   " (list#  1) Parms "SMR     MR      ", vol(  0 )= 1.340E+18
 EXTERNAL_FIELDS_LOAD,      1026 : iP,iLd,i0,i1=   10   11   10   11 ; Wght=  0.3000000000  0.7000000000
 cg2d: Sum(rhs),rhsMax =   1.42108547152020E-13  5.02406831634181E+00
 EXTERNAL_FIELDS_LOAD,      1027 : iP,iLd,i0,i1=   10   11   10   11 ; Wght=  0.2666666667  0.7333333333
 cg2d: Sum(rhs),rhsMax =  -1.13686837721616E-13  5.02427513325271E+00
 EXTERNAL_FIELDS_LOAD,      1028 : iP,iLd,i0,i1=   10   11   10   11 ; Wght=  0.2333333333  0.7666666667
 cg2d: Sum(rhs),rhsMax =  -1.70530256582424E-13  5.02448874063578E+00
 EXTERNAL_FIELDS_LOAD,      1029 : iP,iLd,i0,i1=   10   11   10   11 ; Wght=  0.2000000000  0.8000000000
 cg2d: Sum(rhs),rhsMax =   1.98951966012828E-13  5.02472861754001E+00
 Computing Diagnostic #    79 "DRHODR  " (list#  1) Parms "SM      LR      ", Count=      10
 Computing Diagnostic #    64 "RHOAnoma" (list#  1) Parms "SMR     MR      ", Count=      10
 Computing Diagnostic #    80 "CONVADJ " (list#  1) Parms "SMR     LR      ", Count=      10
 Computing Diagnostic #   210 "GM_Kwx  " (list#  1) Parms "UM      LR      ", Count=      10
             Vector  Mate for "GM_Kwx  " :  Diagnostic #    211 "GM_Kwy  " exists
 Computing Diagnostic #   211 "GM_Kwy  " (list#  1) Parms "VM      LR      ", Count=      10
             Vector  Mate for "GM_Kwy  " :  Diagnostic #    210 "GM_Kwx  " exists
 Computing Diagnostic #   212 "GM_Kwz  " (list#  1) Parms "WM P    LR      ", Count=      10
 Computing Diagnostic #   213 "GM_PsiX " (list#  1) Parms "UU      LR      ", Count=      10
             Vector  Mate for "GM_PsiX " :  Diagnostic #    214 "GM_PsiY " exists
 Computing Diagnostic #   214 "GM_PsiY " (list#  1) Parms "VV      LR      ", Count=      10
             Vector  Mate for "GM_PsiY " :  Diagnostic #    213 "GM_PsiX " exists
 EXTERNAL_FIELDS_LOAD,      1030 : iP,iLd,i0,i1=   10   11   10   11 ; Wght=  0.1666666667  0.8333333333
 cg2d: Sum(rhs),rhsMax =   0.00000000000000E+00  5.02501144330145E+00
 EXTERNAL_FIELDS_LOAD,      1031 : iP,iLd,i0,i1=   10   11   10   11 ; Wght=  0.1333333333  0.8666666667
 cg2d: Sum(rhs),rhsMax =  -2.27373675443232E-13  5.02535073131424E+00
 EXTERNAL_FIELDS_LOAD,      1032 : iP,iLd,i0,i1=   10   11   10   11 ; Wght=  0.1000000000  0.9000000000
 cg2d: Sum(rhs),rhsMax =  -5.68434188608080E-14  5.02575658253016E+00
 EXTERNAL_FIELDS_LOAD,      1033 : iP,iLd,i0,i1=   10   11   10   11 ; Wght=  0.0666666667  0.9333333333
 cg2d: Sum(rhs),rhsMax =  -8.52651282912120E-14  5.02623551798078E+00
 EXTERNAL_FIELDS_LOAD,      1034 : iP,iLd,i0,i1=   10   11   10   11 ; Wght=  0.0333333333  0.9666666667
 cg2d: Sum(rhs),rhsMax =  -1.70530256582424E-13  5.02679033068761E+00
 EXTERNAL_FIELDS_LOAD,      1035 : iP,iLd,i0,i1=   10   11   11   12 ; Wght=  1.0000000000  0.0000000000
 EXTERNAL_FIELDS_LOAD, it=      1035 : Reading new data, i0,i1=   11   12 (prev=   10   11 )
(PID.TID 0000.0001)  MDS_READ_FIELD: opening global file: trenberth_taux.bin
(PID.TID 0000.0001)  MDS_READ_FIELD: opening global file: trenberth_taux.bin
(PID.TID 0000.0001)  MDS_READ_FIELD: opening global file: trenberth_tauy.bin
(PID.TID 0000.0001)  MDS_READ_FIELD: opening global file: trenberth_tauy.bin
(PID.TID 0000.0001)  MDS_READ_FIELD: opening global file: shiQnet_cs32.bin
(PID.TID 0000.0001)  MDS_READ_FIELD: opening global file: shiQnet_cs32.bin
(PID.TID 0000.0001)  MDS_READ_FIELD: opening global file: shiEmPR_cs32.bin
(PID.TID 0000.0001)  MDS_READ_FIELD: opening global file: shiEmPR_cs32.bin
(PID.TID 0000.0001)  MDS_READ_FIELD: opening global file: lev_surfT_cs_12m.bin
(PID.TID 0000.0001)  MDS_READ_FIELD: opening global file: lev_surfT_cs_12m.bin
(PID.TID 0000.0001)  MDS_READ_FIELD: opening global file: lev_surfS_cs_12m.bin
(PID.TID 0000.0001)  MDS_READ_FIELD: opening global file: lev_surfS_cs_12m.bin
 cg2d: Sum(rhs),rhsMax =  -1.70530256582424E-13  5.02742025853453E+00
 Compute Stats, Diag. #    23 "ETAN    " (list#  1) Parms "SM      M1      ", vol(  0 )= 3.639E+14
 Compute Stats, Diag. #    30 "UVEL    " (list#  1) Parms "UUR     MR      ", vol(  0 )= 1.231E+18
 Compute Stats, Diag. #    31 "VVEL    " (list#  1) Parms "VVR     MR      ", vol(  0 )= 1.243E+18
 Compute Stats, Diag. #    32 "WVEL    " (list#  1) Parms "WM      LR      ", vol(  0 )= 1.315E+18
 Compute Stats, Diag. #    26 "THETA   " (list#  1) Parms "SMR     MR      ", vol(  0 )= 1.340E+18
 EXTERNAL_FIELDS_LOAD,      1036 : iP,iLd,i0,i1=   11   12   11   12 ; Wght=  0.9666666667  0.0333333333
 cg2d: Sum(rhs),rhsMax =  -8.52651282912120E-14  5.02810900851029E+00
 EXTERNAL_FIELDS_LOAD,      1037 : iP,iLd,i0,i1=   11   12   11   12 ; Wght=  0.9333333333  0.0666666667
 cg2d: Sum(rhs),rhsMax =  -8.52651282912120E-14  5.02887661310895E+00
 EXTERNAL_FIELDS_LOAD,      1038 : iP,iLd,i0,i1=   11   12   11   12 ; Wght=  0.9000000000  0.1000000000
 cg2d: Sum(rhs),rhsMax =  -2.27373675443232E-13  5.02972522923948E+00
 EXTERNAL_FIELDS_LOAD,      1039 : iP,iLd,i0,i1=   11   12   11   12 ; Wght=  0.8666666667  0.1333333333
 cg2d: Sum(rhs),rhsMax =  -3.97903932025656E-13  5.03065653323179E+00
 Computing Diagnostic #    79 "DRHODR  " (list#  1) Parms "SM      LR      ", Count=      10
 Computing Diagnostic #    64 "RHOAnoma" (list#  1) Parms "SMR     MR      ", Count=      10
 Computing Diagnostic #    80 "CONVADJ " (list#  1) Parms "SMR     LR      ", Count=      10
 Computing Diagnostic #   210 "GM_Kwx  " (list#  1) Parms "UM      LR      ", Count=      10
             Vector  Mate for "GM_Kwx  " :  Diagnostic #    211 "GM_Kwy  " exists
 Computing Diagnostic #   211 "GM_Kwy  " (list#  1) Parms "VM      LR      ", Count=      10
             Vector  Mate for "GM_Kwy  " :  Diagnostic #    210 "GM_Kwx  " exists
 Computing Diagnostic #   212 "GM_Kwz  " (list#  1) Parms "WM P    LR      ", Count=      10
 Computing Diagnostic #   213 "GM_PsiX " (list#  1) Parms "UU      LR      ", Count=      10
             Vector  Mate for "GM_PsiX " :  Diagnostic #    214 "GM_PsiY " exists
 Computing Diagnostic #   214 "GM_PsiY " (list#  1) Parms "VV      LR      ", Count=      10
             Vector  Mate for "GM_PsiY " :  Diagnostic #    213 "GM_PsiX " exists
 EXTERNAL_FIELDS_LOAD,      1040 : iP,iLd,i0,i1=   11   12   11   12 ; Wght=  0.8333333333  0.1666666667
 cg2d: Sum(rhs),rhsMax =  -2.27373675443232E-13  5.03165605498156E+00
 EXTERNAL_FIELDS_LOAD,      1041 : iP,iLd,i0,i1=   11   12   11   12 ; Wght=  0.8000000000  0.2000000000
 cg2d: Sum(rhs),rhsMax =  -5.96855898038484E-13  5.03271027328279E+00
 EXTERNAL_FIELDS_LOAD,      1042 : iP,iLd,i0,i1=   11   12   11   12 ; Wght=  0.7666666667  0.2333333333
 cg2d: Sum(rhs),rhsMax =  -2.55795384873636E-13  5.03380279615103E+00
 EXTERNAL_FIELDS_LOAD,      1043 : iP,iLd,i0,i1=   11   12   11   12 ; Wght=  0.7333333333  0.2666666667
 cg2d: Sum(rhs),rhsMax =  -2.55795384873636E-13  5.03491553137602E+00
 EXTERNAL_FIELDS_LOAD,      1044 : iP,iLd,i0,i1=   11   12   11   12 ; Wght=  0.7000000000  0.3000000000
 cg2d: Sum(rhs),rhsMax =  -2.27373675443232E-13  5.03602941509974E+00
 EXTERNAL_FIELDS_LOAD,      1045 : iP,iLd,i0,i1=   11   12   11   12 ; Wght=  0.6666666667  0.3333333333
 cg2d: Sum(rhs),rhsMax =  -2.55795384873636E-13  5.03712519933695E+00
 Compute Stats, Diag. #    23 "ETAN    " (list#  1) Parms "SM      M1      ", vol(  0 )= 3.639E+14
 Compute Stats, Diag. #    30 "UVEL    " (list#  1) Parms "UUR     MR      ", vol(  0 )= 1.231E+18
 Compute Stats, Diag. #    31 "VVEL    " (list#  1) Parms "VVR     MR      ", vol(  0 )= 1.243E+18
 Compute Stats, Diag. #    32 "WVEL    " (list#  1) Parms "WM      LR      ", vol(  0 )= 1.315E+18
 Compute Stats, Diag. #    26 "THETA   " (list#  1) Parms "SMR     MR      ", vol(  0 )= 1.340E+18
 EXTERNAL_FIELDS_LOAD,      1046 : iP,iLd,i0,i1=   11   12   11   12 ; Wght=  0.6333333333  0.3666666667
 cg2d: Sum(rhs),rhsMax =  -2.55795384873636E-13  5.03818407277923E+00
 EXTERNAL_FIELDS_LOAD,      1047 : iP,iLd,i0,i1=   11   12   11   12 ; Wght=  0.6000000000  0.4000000000
 cg2d: Sum(rhs),rhsMax =  -5.68434188608080E-14  5.03918817097962E+00
 EXTERNAL_FIELDS_LOAD,      1048 : iP,iLd,i0,i1=   11   12   11   12 ; Wght=  0.5666666667  0.4333333333
 cg2d: Sum(rhs),rhsMax =  -1.70530256582424E-13  5.04012104506777E+00
 EXTERNAL_FIELDS_LOAD,      1049 : iP,iLd,i0,i1=   11   12   11   12 ; Wght=  0.5333333333  0.4666666667
 cg2d: Sum(rhs),rhsMax =  -2.84217094304040E-13  5.04096804136737E+00
(PID.TID 0000.0001)      cg2d_init_res =   1.58982138929059E-01
(PID.TID 0000.0001)      cg2d_iters(min,last) =      -1      63
(PID.TID 0000.0001)      cg2d_last_res =   4.90018551384869E-07
(PID.TID 0000.0001) // =======================================================
(PID.TID 0000.0001) // Begin MONITOR dynamic field statistics
(PID.TID 0000.0001) // =======================================================
(PID.TID 0000.0001) %MON time_tsnumber                =                  1050
(PID.TID 0000.0001) %MON time_secondsf                =   9.0720000000000E+07
(PID.TID 0000.0001) %MON dynstat_eta_max              =   9.7206528684865E-01
(PID.TID 0000.0001) %MON dynstat_eta_min              =  -1.8592721041725E+00
(PID.TID 0000.0001) %MON dynstat_eta_mean             =   2.7481078503928E-16
(PID.TID 0000.0001) %MON dynstat_eta_sd               =   6.3012583686311E-01
(PID.TID 0000.0001) %MON dynstat_eta_del2             =   8.4748662629621E-04
(PID.TID 0000.0001) %MON dynstat_uvel_max             =   1.7057439194786E-01
(PID.TID 0000.0001) %MON dynstat_uvel_min             =  -2.8840911985524E-01
(PID.TID 0000.0001) %MON dynstat_uvel_mean            =  -5.0476502792622E-04
(PID.TID 0000.0001) %MON dynstat_uvel_sd              =   1.3076106405880E-02
(PID.TID 0000.0001) %MON dynstat_uvel_del2            =   5.5602524939296E-05
(PID.TID 0000.0001) %MON dynstat_vvel_max             =   1.9468385688484E-01
(PID.TID 0000.0001) %MON dynstat_vvel_min             =  -1.9481515878243E-01
(PID.TID 0000.0001) %MON dynstat_vvel_mean            =  -3.9752643456605E-04
(PID.TID 0000.0001) %MON dynstat_vvel_sd              =   1.3288856280697E-02
(PID.TID 0000.0001) %MON dynstat_vvel_del2            =   5.4814425730239E-05
(PID.TID 0000.0001) %MON dynstat_wvel_max             =   9.6085130894078E-05
(PID.TID 0000.0001) %MON dynstat_wvel_min             =  -1.9903357299932E-04
(PID.TID 0000.0001) %MON dynstat_wvel_mean            =  -1.4795179329403E-22
(PID.TID 0000.0001) %MON dynstat_wvel_sd              =   4.2984414996634E-06
(PID.TID 0000.0001) %MON dynstat_wvel_del2            =   3.1797341876280E-08
(PID.TID 0000.0001) %MON dynstat_theta_max            =   3.0561439804199E+01
(PID.TID 0000.0001) %MON dynstat_theta_min            =  -7.0227115404536E+00
(PID.TID 0000.0001) %MON dynstat_theta_mean           =   3.6076694662447E+00
(PID.TID 0000.0001) %MON dynstat_theta_sd             =   4.4160496544119E+00
(PID.TID 0000.0001) %MON dynstat_theta_del2           =   2.9855927782118E-03
(PID.TID 0000.0001) %MON dynstat_salt_max             =   4.1187979146709E+01
(PID.TID 0000.0001) %MON dynstat_salt_min             =   1.8658725447218E+01
(PID.TID 0000.0001) %MON dynstat_salt_mean            =   3.4721242612945E+01
(PID.TID 0000.0001) %MON dynstat_salt_sd              =   4.9601265267271E-01
(PID.TID 0000.0001) %MON dynstat_salt_del2            =   9.4399024727287E-04
(PID.TID 0000.0001) %MON forcing_qnet_max             =   4.1021578966536E+02
(PID.TID 0000.0001) %MON forcing_qnet_min             =  -2.0313383788713E+02
(PID.TID 0000.0001) %MON forcing_qnet_mean            =  -1.0624545108288E+01
(PID.TID 0000.0001) %MON forcing_qnet_sd              =   1.0684693269585E+02
(PID.TID 0000.0001) %MON forcing_qnet_del2            =   3.8956089286157E-01
(PID.TID 0000.0001) %MON forcing_qsw_max              =   0.0000000000000E+00
(PID.TID 0000.0001) %MON forcing_qsw_min              =   0.0000000000000E+00
(PID.TID 0000.0001) %MON forcing_qsw_mean             =   0.0000000000000E+00
(PID.TID 0000.0001) %MON forcing_qsw_sd               =   0.0000000000000E+00
(PID.TID 0000.0001) %MON forcing_qsw_del2             =   0.0000000000000E+00
(PID.TID 0000.0001) %MON forcing_empmr_max            =   7.6494447208479E-05
(PID.TID 0000.0001) %MON forcing_empmr_min            =  -1.5362614137596E-04
(PID.TID 0000.0001) %MON forcing_empmr_mean           =  -2.7256318706594E-21
(PID.TID 0000.0001) %MON forcing_empmr_sd             =   2.4051723601802E-05
(PID.TID 0000.0001) %MON forcing_empmr_del2           =   1.2276157049243E-07
(PID.TID 0000.0001) %MON forcing_fu_max               =   2.4675984841684E-01
(PID.TID 0000.0001) %MON forcing_fu_min               =  -2.2485491038058E-01
(PID.TID 0000.0001) %MON forcing_fu_mean              =  -6.1037608420371E-03
(PID.TID 0000.0001) %MON forcing_fu_sd                =   6.6859781268308E-02
(PID.TID 0000.0001) %MON forcing_fu_del2              =   1.9769316319051E-04
(PID.TID 0000.0001) %MON forcing_fv_max               =   2.2502206352242E-01
(PID.TID 0000.0001) %MON forcing_fv_min               =  -2.7065648191206E-01
(PID.TID 0000.0001) %MON forcing_fv_mean              =  -1.1140659213460E-02
(PID.TID 0000.0001) %MON forcing_fv_sd                =   7.4511506960852E-02
(PID.TID 0000.0001) %MON forcing_fv_del2              =   2.1923078472871E-04
(PID.TID 0000.0001) %MON trAdv_CFL_u_max              =   9.7193366763812E-02
(PID.TID 0000.0001) %MON trAdv_CFL_v_max              =   9.1937239146925E-02
(PID.TID 0000.0001) %MON trAdv_CFL_w_max              =   1.1554210770230E-01
(PID.TID 0000.0001) %MON advcfl_uvel_max              =   8.1798297133130E-02
(PID.TID 0000.0001) %MON advcfl_vvel_max              =   8.4859950468224E-02
(PID.TID 0000.0001) %MON advcfl_wvel_max              =   6.4892455498645E-02
(PID.TID 0000.0001) %MON advcfl_W_hf_max              =   7.1652086279754E-02
(PID.TID 0000.0001) %MON pe_b_mean                    =   5.2895539048781E-04
(PID.TID 0000.0001) %MON ke_max                       =   4.1500618576696E-02
(PID.TID 0000.0001) %MON ke_mean                      =   1.6067066608342E-04
(PID.TID 0000.0001) %MON ke_vol                       =   1.3398024453628E+18
(PID.TID 0000.0001) %MON vort_r_min                   =  -1.0355089502761E-06
(PID.TID 0000.0001) %MON vort_r_max                   =   1.3390265885151E-06
(PID.TID 0000.0001) %MON vort_a_mean                  =  -2.0549865324846E-05
(PID.TID 0000.0001) %MON vort_a_sd                    =   7.5259631309157E-05
(PID.TID 0000.0001) %MON vort_p_mean                  =  -2.4783522345032E-05
(PID.TID 0000.0001) %MON vort_p_sd                    =   1.2810629894227E-04
(PID.TID 0000.0001) %MON surfExpan_theta_mean         =   3.3675093812785E-08
(PID.TID 0000.0001) %MON surfExpan_salt_mean          =   1.5420639568368E-08
(PID.TID 0000.0001) // =======================================================
(PID.TID 0000.0001) // End MONITOR dynamic field statistics
(PID.TID 0000.0001) // =======================================================
(PID.TID 0000.0001) // =======================================================
(PID.TID 0000.0001) // Begin MONITOR ptracer field statistics
(PID.TID 0000.0001) // =======================================================
(PID.TID 0000.0001) %MON trcstat_ptracer01_max        =   9.2703335212551E+07
(PID.TID 0000.0001) %MON trcstat_ptracer01_min        =  -3.6030403970355E+06
(PID.TID 0000.0001) %MON trcstat_ptracer01_mean       =   8.7753025265076E+07
(PID.TID 0000.0001) %MON trcstat_ptracer01_sd         =   1.2906978572152E+07
(PID.TID 0000.0001) %MON trcstat_ptracer01_del2       =   2.5204134794580E+04
(PID.TID 0000.0001) // =======================================================
(PID.TID 0000.0001) // End MONITOR ptracer field statistics
(PID.TID 0000.0001) // =======================================================
 Computing Diagnostic #    79 "DRHODR  " (list#  1) Parms "SM      LR      ", Count=      10
 Computing Diagnostic #    64 "RHOAnoma" (list#  1) Parms "SMR     MR      ", Count=      10
 Computing Diagnostic #    80 "CONVADJ " (list#  1) Parms "SMR     LR      ", Count=      10
 Computing Diagnostic #   210 "GM_Kwx  " (list#  1) Parms "UM      LR      ", Count=      10
             Vector  Mate for "GM_Kwx  " :  Diagnostic #    211 "GM_Kwy  " exists
 Computing Diagnostic #   211 "GM_Kwy  " (list#  1) Parms "VM      LR      ", Count=      10
             Vector  Mate for "GM_Kwy  " :  Diagnostic #    210 "GM_Kwx  " exists
 Computing Diagnostic #   212 "GM_Kwz  " (list#  1) Parms "WM P    LR      ", Count=      10
 Computing Diagnostic #   213 "GM_PsiX " (list#  1) Parms "UU      LR      ", Count=      10
             Vector  Mate for "GM_PsiX " :  Diagnostic #    214 "GM_PsiY " exists
 Computing Diagnostic #   214 "GM_PsiY " (list#  1) Parms "VV      LR      ", Count=      10
             Vector  Mate for "GM_PsiY " :  Diagnostic #    213 "GM_PsiX " exists
 EXTERNAL_FIELDS_LOAD,      1050 : iP,iLd,i0,i1=   11   12   11   12 ; Wght=  0.5000000000  0.5000000000
 cg2d: Sum(rhs),rhsMax =  -3.12638803734444E-13  5.04171660654958E+00
 EXTERNAL_FIELDS_LOAD,      1051 : iP,iLd,i0,i1=   11   12   11   12 ; Wght=  0.4666666667  0.5333333333
 cg2d: Sum(rhs),rhsMax =  -2.84217094304040E-13  5.04235652175130E+00
 EXTERNAL_FIELDS_LOAD,      1052 : iP,iLd,i0,i1=   11   12   11   12 ; Wght=  0.4333333333  0.5666666667
 cg2d: Sum(rhs),rhsMax =  -1.13686837721616E-13  5.04288007758951E+00
 EXTERNAL_FIELDS_LOAD,      1053 : iP,iLd,i0,i1=   11   12   11   12 ; Wght=  0.4000000000  0.6000000000
 cg2d: Sum(rhs),rhsMax =  -1.13686837721616E-13  5.04328221445918E+00
 EXTERNAL_FIELDS_LOAD,      1054 : iP,iLd,i0,i1=   11   12   11   12 ; Wght=  0.3666666667  0.6333333333
 cg2d: Sum(rhs),rhsMax =  -5.68434188608080E-14  5.04356086597763E+00
 EXTERNAL_FIELDS_LOAD,      1055 : iP,iLd,i0,i1=   11   12   11   12 ; Wght=  0.3333333333  0.6666666667
 cg2d: Sum(rhs),rhsMax =  -1.70530256582424E-13  5.04371650615957E+00
 Compute Stats, Diag. #    23 "ETAN    " (list#  1) Parms "SM      M1      ", vol(  0 )= 3.639E+14
 Compute Stats, Diag. #    30 "UVEL    " (list#  1) Parms "UUR     MR      ", vol(  0 )= 1.231E+18
 Compute Stats, Diag. #    31 "VVEL    " (list#  1) Parms "VVR     MR      ", vol(  0 )= 1.243E+18
 Compute Stats, Diag. #    32 "WVEL    " (list#  1) Parms "WM      LR      ", vol(  0 )= 1.315E+18
 Compute Stats, Diag. #    26 "THETA   " (list#  1) Parms "SMR     MR      ", vol(  0 )= 1.340E+18
 EXTERNAL_FIELDS_LOAD,      1056 : iP,iLd,i0,i1=   11   12   11   12 ; Wght=  0.3000000000  0.7000000000
 cg2d: Sum(rhs),rhsMax =   1.42108547152020E-13  5.04375276496986E+00
 EXTERNAL_FIELDS_LOAD,      1057 : iP,iLd,i0,i1=   11   12   11   12 ; Wght=  0.2666666667  0.7333333333
 cg2d: Sum(rhs),rhsMax =  -3.12638803734444E-13  5.04367616308551E+00
 EXTERNAL_FIELDS_LOAD,      1058 : iP,iLd,i0,i1=   11   12   11   12 ; Wght=  0.2333333333  0.7666666667
 cg2d: Sum(rhs),rhsMax =  -1.13686837721616E-13  5.04349612914673E+00
 EXTERNAL_FIELDS_LOAD,      1059 : iP,iLd,i0,i1=   11   12   11   12 ; Wght=  0.2000000000  0.8000000000
 cg2d: Sum(rhs),rhsMax =  -2.55795384873636E-13  5.04322492439225E+00
 Computing Diagnostic #    79 "DRHODR  " (list#  1) Parms "SM      LR      ", Count=      10
 Computing Diagnostic #    64 "RHOAnoma" (list#  1) Parms "SMR     MR      ", Count=      10
 Computing Diagnostic #    80 "CONVADJ " (list#  1) Parms "SMR     LR      ", Count=      10
 Computing Diagnostic #   210 "GM_Kwx  " (list#  1) Parms "UM      LR      ", Count=      10
             Vector  Mate for "GM_Kwx  " :  Diagnostic #    211 "GM_Kwy  " exists
 Computing Diagnostic #   211 "GM_Kwy  " (list#  1) Parms "VM      LR      ", Count=      10
             Vector  Mate for "GM_Kwy  " :  Diagnostic #    210 "GM_Kwx  " exists
 Computing Diagnostic #   212 "GM_Kwz  " (list#  1) Parms "WM P    LR      ", Count=      10
 Computing Diagnostic #   213 "GM_PsiX " (list#  1) Parms "UU      LR      ", Count=      10
             Vector  Mate for "GM_PsiX " :  Diagnostic #    214 "GM_PsiY " exists
 Computing Diagnostic #   214 "GM_PsiY " (list#  1) Parms "VV      LR      ", Count=      10
             Vector  Mate for "GM_PsiY " :  Diagnostic #    213 "GM_PsiX " exists
 EXTERNAL_FIELDS_LOAD,      1060 : iP,iLd,i0,i1=   11   12   11   12 ; Wght=  0.1666666667  0.8333333333
 cg2d: Sum(rhs),rhsMax =  -1.98951966012828E-13  5.04287727021248E+00
 EXTERNAL_FIELDS_LOAD,      1061 : iP,iLd,i0,i1=   11   12   11   12 ; Wght=  0.1333333333  0.8666666667
 cg2d: Sum(rhs),rhsMax =  -5.68434188608080E-14  5.04247019631272E+00
 EXTERNAL_FIELDS_LOAD,      1062 : iP,iLd,i0,i1=   11   12   11   12 ; Wght=  0.1000000000  0.9000000000
 cg2d: Sum(rhs),rhsMax =  -2.27373675443232E-13  5.04202263593554E+00
 EXTERNAL_FIELDS_LOAD,      1063 : iP,iLd,i0,i1=   11   12   11   12 ; Wght=  0.0666666667  0.9333333333
 cg2d: Sum(rhs),rhsMax =  -2.84217094304040E-14  5.04155504892876E+00
 EXTERNAL_FIELDS_LOAD,      1064 : iP,iLd,i0,i1=   11   12   11   12 ; Wght=  0.0333333333  0.9666666667
 cg2d: Sum(rhs),rhsMax =  -1.70530256582424E-13  5.04108899826470E+00
 EXTERNAL_FIELDS_LOAD,      1065 : iP,iLd,i0,i1=   11   12   12    1 ; Wght=  1.0000000000  0.0000000000
 EXTERNAL_FIELDS_LOAD, it=      1065 : Reading new data, i0,i1=   12    1 (prev=   11   12 )
(PID.TID 0000.0001)  MDS_READ_FIELD: opening global file: trenberth_taux.bin
(PID.TID 0000.0001)  MDS_READ_FIELD: opening global file: trenberth_taux.bin
(PID.TID 0000.0001)  MDS_READ_FIELD: opening global file: trenberth_tauy.bin
(PID.TID 0000.0001)  MDS_READ_FIELD: opening global file: trenberth_tauy.bin
(PID.TID 0000.0001)  MDS_READ_FIELD: opening global file: shiQnet_cs32.bin
(PID.TID 0000.0001)  MDS_READ_FIELD: opening global file: shiQnet_cs32.bin
(PID.TID 0000.0001)  MDS_READ_FIELD: opening global file: shiEmPR_cs32.bin
(PID.TID 0000.0001)  MDS_READ_FIELD: opening global file: shiEmPR_cs32.bin
(PID.TID 0000.0001)  MDS_READ_FIELD: opening global file: lev_surfT_cs_12m.bin
(PID.TID 0000.0001)  MDS_READ_FIELD: opening global file: lev_surfT_cs_12m.bin
(PID.TID 0000.0001)  MDS_READ_FIELD: opening global file: lev_surfS_cs_12m.bin
(PID.TID 0000.0001)  MDS_READ_FIELD: opening global file: lev_surfS_cs_12m.bin
 cg2d: Sum(rhs),rhsMax =  -3.69482222595252E-13  5.04064670030977E+00
 Compute Stats, Diag. #    23 "ETAN    " (list#  1) Parms "SM      M1      ", vol(  0 )= 3.639E+14
 Compute Stats, Diag. #    30 "UVEL    " (list#  1) Parms "UUR     MR      ", vol(  0 )= 1.231E+18
 Compute Stats, Diag. #    31 "VVEL    " (list#  1) Parms "VVR     MR      ", vol(  0 )= 1.243E+18
 Compute Stats, Diag. #    32 "WVEL    " (list#  1) Parms "WM      LR      ", vol(  0 )= 1.315E+18
 Compute Stats, Diag. #    26 "THETA   " (list#  1) Parms "SMR     MR      ", vol(  0 )= 1.340E+18
 EXTERNAL_FIELDS_LOAD,      1066 : iP,iLd,i0,i1=   12    1   12    1 ; Wght=  0.9666666667  0.0333333333
 cg2d: Sum(rhs),rhsMax =  -2.27373675443232E-13  5.04028470005028E+00
 EXTERNAL_FIELDS_LOAD,      1067 : iP,iLd,i0,i1=   12    1   12    1 ; Wght=  0.9333333333  0.0666666667
 cg2d: Sum(rhs),rhsMax =  -1.70530256582424E-13  5.03998474185260E+00
 EXTERNAL_FIELDS_LOAD,      1068 : iP,iLd,i0,i1=   12    1   12    1 ; Wght=  0.9000000000  0.1000000000
 cg2d: Sum(rhs),rhsMax =  -1.13686837721616E-13  5.03976984578270E+00
 EXTERNAL_FIELDS_LOAD,      1069 : iP,iLd,i0,i1=   12    1   12    1 ; Wght=  0.8666666667  0.1333333333
 cg2d: Sum(rhs),rhsMax =  -3.69482222595252E-13  5.03965343969658E+00
 Computing Diagnostic #    79 "DRHODR  " (list#  1) Parms "SM      LR      ", Count=      10
 Computing Diagnostic #    64 "RHOAnoma" (list#  1) Parms "SMR     MR      ", Count=      10
 Computing Diagnostic #    80 "CONVADJ " (list#  1) Parms "SMR     LR      ", Count=      10
 Computing Diagnostic #   210 "GM_Kwx  " (list#  1) Parms "UM      LR      ", Count=      10
             Vector  Mate for "GM_Kwx  " :  Diagnostic #    211 "GM_Kwy  " exists
 Computing Diagnostic #   211 "GM_Kwy  " (list#  1) Parms "VM      LR      ", Count=      10
             Vector  Mate for "GM_Kwy  " :  Diagnostic #    210 "GM_Kwx  " exists
 Computing Diagnostic #   212 "GM_Kwz  " (list#  1) Parms "WM P    LR      ", Count=      10
 Computing Diagnostic #   213 "GM_PsiX " (list#  1) Parms "UU      LR      ", Count=      10
             Vector  Mate for "GM_PsiX " :  Diagnostic #    214 "GM_PsiY " exists
 Computing Diagnostic #   214 "GM_PsiY " (list#  1) Parms "VV      LR      ", Count=      10
             Vector  Mate for "GM_PsiY " :  Diagnostic #    213 "GM_PsiX " exists
 EXTERNAL_FIELDS_LOAD,      1070 : iP,iLd,i0,i1=   12    1   12    1 ; Wght=  0.8333333333  0.1666666667
 cg2d: Sum(rhs),rhsMax =  -2.84217094304040E-13  5.03964980739817E+00
 EXTERNAL_FIELDS_LOAD,      1071 : iP,iLd,i0,i1=   12    1   12    1 ; Wght=  0.8000000000  0.2000000000
 cg2d: Sum(rhs),rhsMax =  -5.68434188608080E-14  5.03977089495641E+00
 EXTERNAL_FIELDS_LOAD,      1072 : iP,iLd,i0,i1=   12    1   12    1 ; Wght=  0.7666666667  0.2333333333
 cg2d: Sum(rhs),rhsMax =  -4.54747350886464E-13  5.04002605561907E+00
 EXTERNAL_FIELDS_LOAD,      1073 : iP,iLd,i0,i1=   12    1   12    1 ; Wght=  0.7333333333  0.2666666667
 cg2d: Sum(rhs),rhsMax =  -2.55795384873636E-13  5.04042177290277E+00
 EXTERNAL_FIELDS_LOAD,      1074 : iP,iLd,i0,i1=   12    1   12    1 ; Wght=  0.7000000000  0.3000000000
 cg2d: Sum(rhs),rhsMax =  -3.41060513164848E-13  5.04096129431667E+00
 EXTERNAL_FIELDS_LOAD,      1075 : iP,iLd,i0,i1=   12    1   12    1 ; Wght=  0.6666666667  0.3333333333
 cg2d: Sum(rhs),rhsMax =  -2.55795384873636E-13  5.04164431353619E+00
 Compute Stats, Diag. #    23 "ETAN    " (list#  1) Parms "SM      M1      ", vol(  0 )= 3.639E+14
 Compute Stats, Diag. #    30 "UVEL    " (list#  1) Parms "UUR     MR      ", vol(  0 )= 1.231E+18
 Compute Stats, Diag. #    31 "VVEL    " (list#  1) Parms "VVR     MR      ", vol(  0 )= 1.243E+18
 Compute Stats, Diag. #    32 "WVEL    " (list#  1) Parms "WM      LR      ", vol(  0 )= 1.315E+18
 Compute Stats, Diag. #    26 "THETA   " (list#  1) Parms "SMR     MR      ", vol(  0 )= 1.340E+18
 EXTERNAL_FIELDS_LOAD,      1076 : iP,iLd,i0,i1=   12    1   12    1 ; Wght=  0.6333333333  0.3666666667
 cg2d: Sum(rhs),rhsMax =  -5.40012479177676E-13  5.04246676223675E+00
 EXTERNAL_FIELDS_LOAD,      1077 : iP,iLd,i0,i1=   12    1   12    1 ; Wght=  0.6000000000  0.4000000000
 cg2d: Sum(rhs),rhsMax =  -1.13686837721616E-13  5.04342074168267E+00
 EXTERNAL_FIELDS_LOAD,      1078 : iP,iLd,i0,i1=   12    1   12    1 ; Wght=  0.5666666667  0.4333333333
 cg2d: Sum(rhs),rhsMax =  -2.55795384873636E-13  5.04449463957329E+00
 EXTERNAL_FIELDS_LOAD,      1079 : iP,iLd,i0,i1=   12    1   12    1 ; Wght=  0.5333333333  0.4666666667
 cg2d: Sum(rhs),rhsMax =  -1.98951966012828E-13  5.04567339685335E+00
(PID.TID 0000.0001)      cg2d_init_res =   1.55723064808287E-01
(PID.TID 0000.0001)      cg2d_iters(min,last) =      -1      62
(PID.TID 0000.0001)      cg2d_last_res =   4.89747329255398E-07
(PID.TID 0000.0001) // =======================================================
(PID.TID 0000.0001) // Begin MONITOR dynamic field statistics
(PID.TID 0000.0001) // =======================================================
(PID.TID 0000.0001) %MON time_tsnumber                =                  1080
(PID.TID 0000.0001) %MON time_secondsf                =   9.3312000000000E+07
(PID.TID 0000.0001) %MON dynstat_eta_max              =   9.3192468440411E-01
(PID.TID 0000.0001) %MON dynstat_eta_min              =  -1.8519474011215E+00
(PID.TID 0000.0001) %MON dynstat_eta_mean             =   2.8855132429124E-16
(PID.TID 0000.0001) %MON dynstat_eta_sd               =   6.2744525388198E-01
(PID.TID 0000.0001) %MON dynstat_eta_del2             =   8.5238844764316E-04
(PID.TID 0000.0001) %MON dynstat_uvel_max             =   1.6498099163571E-01
(PID.TID 0000.0001) %MON dynstat_uvel_min             =  -2.8774915644030E-01
(PID.TID 0000.0001) %MON dynstat_uvel_mean            =  -5.1931978543554E-04
(PID.TID 0000.0001) %MON dynstat_uvel_sd              =   1.3098185314218E-02
(PID.TID 0000.0001) %MON dynstat_uvel_del2            =   5.5074095661121E-05
(PID.TID 0000.0001) %MON dynstat_vvel_max             =   1.7983115951167E-01
(PID.TID 0000.0001) %MON dynstat_vvel_min             =  -2.0189956953415E-01
(PID.TID 0000.0001) %MON dynstat_vvel_mean            =  -4.1249904304693E-04
(PID.TID 0000.0001) %MON dynstat_vvel_sd              =   1.3227477770221E-02
(PID.TID 0000.0001) %MON dynstat_vvel_del2            =   5.3794044463342E-05
(PID.TID 0000.0001) %MON dynstat_wvel_max             =   8.2305305066218E-05
(PID.TID 0000.0001) %MON dynstat_wvel_min             =  -2.0534072312523E-04
(PID.TID 0000.0001) %MON dynstat_wvel_mean            =   3.1040866436198E-22
(PID.TID 0000.0001) %MON dynstat_wvel_sd              =   4.3211204458197E-06
(PID.TID 0000.0001) %MON dynstat_wvel_del2            =   3.1425209307391E-08
(PID.TID 0000.0001) %MON dynstat_theta_max            =   3.0947338160521E+01
(PID.TID 0000.0001) %MON dynstat_theta_min            =  -7.0218614091014E+00
(PID.TID 0000.0001) %MON dynstat_theta_mean           =   3.6092410419801E+00
(PID.TID 0000.0001) %MON dynstat_theta_sd             =   4.4135052364201E+00
(PID.TID 0000.0001) %MON dynstat_theta_del2           =   2.9707201349628E-03
(PID.TID 0000.0001) %MON dynstat_salt_max             =   4.1216702978871E+01
(PID.TID 0000.0001) %MON dynstat_salt_min             =   1.8668142629483E+01
(PID.TID 0000.0001) %MON dynstat_salt_mean            =   3.4721250787584E+01
(PID.TID 0000.0001) %MON dynstat_salt_sd              =   4.9620688644931E-01
(PID.TID 0000.0001) %MON dynstat_salt_del2            =   9.4780352785877E-04
(PID.TID 0000.0001) %MON forcing_qnet_max             =   4.5354272910296E+02
(PID.TID 0000.0001) %MON forcing_qnet_min             =  -2.1599809650417E+02
(PID.TID 0000.0001) %MON forcing_qnet_mean            =  -1.2133594023001E+01
(PID.TID 0000.0001) %MON forcing_qnet_sd              =   1.1586527760186E+02
(PID.TID 0000.0001) %MON forcing_qnet_del2            =   4.1554897025173E-01
(PID.TID 0000.0001) %MON forcing_qsw_max              =   0.0000000000000E+00
(PID.TID 0000.0001) %MON forcing_qsw_min              =   0.0000000000000E+00
(PID.TID 0000.0001) %MON forcing_qsw_mean             =   0.0000000000000E+00
(PID.TID 0000.0001) %MON forcing_qsw_sd               =   0.0000000000000E+00
(PID.TID 0000.0001) %MON forcing_qsw_del2             =   0.0000000000000E+00
(PID.TID 0000.0001) %MON forcing_empmr_max            =   7.6494447208479E-05
(PID.TID 0000.0001) %MON forcing_empmr_min            =  -1.5362614137596E-04
(PID.TID 0000.0001) %MON forcing_empmr_mean           =  -2.7256318706594E-21
(PID.TID 0000.0001) %MON forcing_empmr_sd             =   2.4051723601802E-05
(PID.TID 0000.0001) %MON forcing_empmr_del2           =   1.2276157049243E-07
(PID.TID 0000.0001) %MON forcing_fu_max               =   2.4765418498413E-01
(PID.TID 0000.0001) %MON forcing_fu_min               =  -1.9978611308685E-01
(PID.TID 0000.0001) %MON forcing_fu_mean              =  -4.5913596005962E-03
(PID.TID 0000.0001) %MON forcing_fu_sd                =   6.3941102540855E-02
(PID.TID 0000.0001) %MON forcing_fu_del2              =   2.0518848671462E-04
(PID.TID 0000.0001) %MON forcing_fv_max               =   2.5012773886324E-01
(PID.TID 0000.0001) %MON forcing_fv_min               =  -3.2613202008605E-01
(PID.TID 0000.0001) %MON forcing_fv_mean              =  -1.3680575972930E-02
(PID.TID 0000.0001) %MON forcing_fv_sd                =   7.5124443773282E-02
(PID.TID 0000.0001) %MON forcing_fv_del2              =   2.3375900006026E-04
(PID.TID 0000.0001) %MON trAdv_CFL_u_max              =   9.7314035934923E-02
(PID.TID 0000.0001) %MON trAdv_CFL_v_max              =   1.3388259199132E-01
(PID.TID 0000.0001) %MON trAdv_CFL_w_max              =   1.0572381392470E-01
(PID.TID 0000.0001) %MON advcfl_uvel_max              =   8.1611118990011E-02
(PID.TID 0000.0001) %MON advcfl_vvel_max              =   7.6193326216057E-02
(PID.TID 0000.0001) %MON advcfl_wvel_max              =   6.6948824445357E-02
(PID.TID 0000.0001) %MON advcfl_W_hf_max              =   7.3922660325082E-02
(PID.TID 0000.0001) %MON pe_b_mean                    =   5.2446456401615E-04
(PID.TID 0000.0001) %MON ke_max                       =   4.0408172270529E-02
(PID.TID 0000.0001) %MON ke_mean                      =   1.6019282657153E-04
(PID.TID 0000.0001) %MON ke_vol                       =   1.3398024453628E+18
(PID.TID 0000.0001) %MON vort_r_min                   =  -1.0006487973656E-06
(PID.TID 0000.0001) %MON vort_r_max                   =   1.1965927041730E-06
(PID.TID 0000.0001) %MON vort_a_mean                  =  -2.0549865324846E-05
(PID.TID 0000.0001) %MON vort_a_sd                    =   7.5259622702896E-05
(PID.TID 0000.0001) %MON vort_p_mean                  =  -2.4783522345032E-05
(PID.TID 0000.0001) %MON vort_p_sd                    =   1.2810621885457E-04
(PID.TID 0000.0001) %MON surfExpan_theta_mean         =   3.6298818257426E-08
(PID.TID 0000.0001) %MON surfExpan_salt_mean          =   1.4206523380123E-08
(PID.TID 0000.0001) // =======================================================
(PID.TID 0000.0001) // End MONITOR dynamic field statistics
(PID.TID 0000.0001) // =======================================================
(PID.TID 0000.0001) // =======================================================
(PID.TID 0000.0001) // Begin MONITOR ptracer field statistics
(PID.TID 0000.0001) // =======================================================
(PID.TID 0000.0001) %MON trcstat_ptracer01_max        =   9.5677960956562E+07
(PID.TID 0000.0001) %MON trcstat_ptracer01_min        =  -3.2051603644872E+06
(PID.TID 0000.0001) %MON trcstat_ptracer01_mean       =   9.0242955401166E+07
(PID.TID 0000.0001) %MON trcstat_ptracer01_sd         =   1.3282631691333E+07
(PID.TID 0000.0001) %MON trcstat_ptracer01_del2       =   2.4611866267775E+04
(PID.TID 0000.0001) // =======================================================
(PID.TID 0000.0001) // End MONITOR ptracer field statistics
(PID.TID 0000.0001) // =======================================================
 Computing Diagnostic #    79 "DRHODR  " (list#  1) Parms "SM      LR      ", Count=      10
 Computing Diagnostic #    64 "RHOAnoma" (list#  1) Parms "SMR     MR      ", Count=      10
 Computing Diagnostic #    80 "CONVADJ " (list#  1) Parms "SMR     LR      ", Count=      10
 Computing Diagnostic #   210 "GM_Kwx  " (list#  1) Parms "UM      LR      ", Count=      10
             Vector  Mate for "GM_Kwx  " :  Diagnostic #    211 "GM_Kwy  " exists
 Computing Diagnostic #   211 "GM_Kwy  " (list#  1) Parms "VM      LR      ", Count=      10
             Vector  Mate for "GM_Kwy  " :  Diagnostic #    210 "GM_Kwx  " exists
 Computing Diagnostic #   212 "GM_Kwz  " (list#  1) Parms "WM P    LR      ", Count=      10
 Computing Diagnostic #   213 "GM_PsiX " (list#  1) Parms "UU      LR      ", Count=      10
             Vector  Mate for "GM_PsiX " :  Diagnostic #    214 "GM_PsiY " exists
 Computing Diagnostic #   214 "GM_PsiY " (list#  1) Parms "VV      LR      ", Count=      10
             Vector  Mate for "GM_PsiY " :  Diagnostic #    213 "GM_PsiX " exists
(PID.TID 0000.0001) %CHECKPOINT      1080 0000001080
 EXTERNAL_FIELDS_LOAD,      1080 : iP,iLd,i0,i1=   12    1   12    1 ; Wght=  0.5000000000  0.5000000000
 cg2d: Sum(rhs),rhsMax =  -3.41060513164848E-13  5.04693893473155E+00
 EXTERNAL_FIELDS_LOAD,      1081 : iP,iLd,i0,i1=   12    1   12    1 ; Wght=  0.4666666667  0.5333333333
 cg2d: Sum(rhs),rhsMax =   5.68434188608080E-14  5.04827066864541E+00
 EXTERNAL_FIELDS_LOAD,      1082 : iP,iLd,i0,i1=   12    1   12    1 ; Wght=  0.4333333333  0.5666666667
 cg2d: Sum(rhs),rhsMax =  -2.84217094304040E-13  5.04964607127850E+00
 EXTERNAL_FIELDS_LOAD,      1083 : iP,iLd,i0,i1=   12    1   12    1 ; Wght=  0.4000000000  0.6000000000
 cg2d: Sum(rhs),rhsMax =   2.27373675443232E-13  5.05104122825910E+00
 EXTERNAL_FIELDS_LOAD,      1084 : iP,iLd,i0,i1=   12    1   12    1 ; Wght=  0.3666666667  0.6333333333
 cg2d: Sum(rhs),rhsMax =  -2.84217094304040E-14  5.05243136999217E+00
 EXTERNAL_FIELDS_LOAD,      1085 : iP,iLd,i0,i1=   12    1   12    1 ; Wght=  0.3333333333  0.6666666667
 cg2d: Sum(rhs),rhsMax =  -2.84217094304040E-13  5.05379136098104E+00
 Compute Stats, Diag. #    23 "ETAN    " (list#  1) Parms "SM      M1      ", vol(  0 )= 3.639E+14
 Compute Stats, Diag. #    30 "UVEL    " (list#  1) Parms "UUR     MR      ", vol(  0 )= 1.231E+18
 Compute Stats, Diag. #    31 "VVEL    " (list#  1) Parms "VVR     MR      ", vol(  0 )= 1.243E+18
 Compute Stats, Diag. #    32 "WVEL    " (list#  1) Parms "WM      LR      ", vol(  0 )= 1.315E+18
 Compute Stats, Diag. #    26 "THETA   " (list#  1) Parms "SMR     MR      ", vol(  0 )= 1.340E+18
 EXTERNAL_FIELDS_LOAD,      1086 : iP,iLd,i0,i1=   12    1   12    1 ; Wght=  0.3000000000  0.7000000000
 cg2d: Sum(rhs),rhsMax =  -2.27373675443232E-13  5.05509617363177E+00
 EXTERNAL_FIELDS_LOAD,      1087 : iP,iLd,i0,i1=   12    1   12    1 ; Wght=  0.2666666667  0.7333333333
 cg2d: Sum(rhs),rhsMax =  -5.68434188608080E-14  5.05632135338788E+00
 EXTERNAL_FIELDS_LOAD,      1088 : iP,iLd,i0,i1=   12    1   12    1 ; Wght=  0.2333333333  0.7666666667
 cg2d: Sum(rhs),rhsMax =   2.84217094304040E-14  5.05744349243934E+00
 EXTERNAL_FIELDS_LOAD,      1089 : iP,iLd,i0,i1=   12    1   12    1 ; Wght=  0.2000000000  0.8000000000
 cg2d: Sum(rhs),rhsMax =  -1.70530256582424E-13  5.05844068480484E+00
 Computing Diagnostic #    79 "DRHODR  " (list#  1) Parms "SM      LR      ", Count=      10
 Computing Diagnostic #    64 "RHOAnoma" (list#  1) Parms "SMR     MR      ", Count=      10
 Computing Diagnostic #    80 "CONVADJ " (list#  1) Parms "SMR     LR      ", Count=      10
 Computing Diagnostic #   210 "GM_Kwx  " (list#  1) Parms "UM      LR      ", Count=      10
             Vector  Mate for "GM_Kwx  " :  Diagnostic #    211 "GM_Kwy  " exists
 Computing Diagnostic #   211 "GM_Kwy  " (list#  1) Parms "VM      LR      ", Count=      10
             Vector  Mate for "GM_Kwy  " :  Diagnostic #    210 "GM_Kwx  " exists
 Computing Diagnostic #   212 "GM_Kwz  " (list#  1) Parms "WM P    LR      ", Count=      10
 Computing Diagnostic #   213 "GM_PsiX " (list#  1) Parms "UU      LR      ", Count=      10
             Vector  Mate for "GM_PsiX " :  Diagnostic #    214 "GM_PsiY " exists
 Computing Diagnostic #   214 "GM_PsiY " (list#  1) Parms "VV      LR      ", Count=      10
             Vector  Mate for "GM_PsiY " :  Diagnostic #    213 "GM_PsiX " exists
 EXTERNAL_FIELDS_LOAD,      1090 : iP,iLd,i0,i1=   12    1   12    1 ; Wght=  0.1666666667  0.8333333333
 cg2d: Sum(rhs),rhsMax =  -4.54747350886464E-13  5.05929298466865E+00
 EXTERNAL_FIELDS_LOAD,      1091 : iP,iLd,i0,i1=   12    1   12    1 ; Wght=  0.1333333333  0.8666666667
 cg2d: Sum(rhs),rhsMax =  -2.84217094304040E-14  5.05998280186294E+00
 EXTERNAL_FIELDS_LOAD,      1092 : iP,iLd,i0,i1=   12    1   12    1 ; Wght=  0.1000000000  0.9000000000
 cg2d: Sum(rhs),rhsMax =  -1.70530256582424E-13  5.06050923274989E+00
 EXTERNAL_FIELDS_LOAD,      1093 : iP,iLd,i0,i1=   12    1   12    1 ; Wght=  0.0666666667  0.9333333333
 cg2d: Sum(rhs),rhsMax =  -1.13686837721616E-13  5.06084531439040E+00
 EXTERNAL_FIELDS_LOAD,      1094 : iP,iLd,i0,i1=   12    1   12    1 ; Wght=  0.0333333333  0.9666666667
 cg2d: Sum(rhs),rhsMax =  -3.12638803734444E-13  5.06098218880419E+00
 EXTERNAL_FIELDS_LOAD,      1095 : iP,iLd,i0,i1=   12    1    1    2 ; Wght=  1.0000000000  0.0000000000
 EXTERNAL_FIELDS_LOAD, it=      1095 : Reading new data, i0,i1=    1    2 (prev=   12    1 )
(PID.TID 0000.0001)  MDS_READ_FIELD: opening global file: trenberth_taux.bin
(PID.TID 0000.0001)  MDS_READ_FIELD: opening global file: trenberth_taux.bin
(PID.TID 0000.0001)  MDS_READ_FIELD: opening global file: trenberth_tauy.bin
(PID.TID 0000.0001)  MDS_READ_FIELD: opening global file: trenberth_tauy.bin
(PID.TID 0000.0001)  MDS_READ_FIELD: opening global file: shiQnet_cs32.bin
(PID.TID 0000.0001)  MDS_READ_FIELD: opening global file: shiQnet_cs32.bin
(PID.TID 0000.0001)  MDS_READ_FIELD: opening global file: shiEmPR_cs32.bin
(PID.TID 0000.0001)  MDS_READ_FIELD: opening global file: shiEmPR_cs32.bin
(PID.TID 0000.0001)  MDS_READ_FIELD: opening global file: lev_surfT_cs_12m.bin
(PID.TID 0000.0001)  MDS_READ_FIELD: opening global file: lev_surfT_cs_12m.bin
(PID.TID 0000.0001)  MDS_READ_FIELD: opening global file: lev_surfS_cs_12m.bin
(PID.TID 0000.0001)  MDS_READ_FIELD: opening global file: lev_surfS_cs_12m.bin
 cg2d: Sum(rhs),rhsMax =  -2.55795384873636E-13  5.06091472556330E+00
 Compute Stats, Diag. #    23 "ETAN    " (list#  1) Parms "SM      M1      ", vol(  0 )= 3.639E+14
 Compute Stats, Diag. #    30 "UVEL    " (list#  1) Parms "UUR     MR      ", vol(  0 )= 1.231E+18
 Compute Stats, Diag. #    31 "VVEL    " (list#  1) Parms "VVR     MR      ", vol(  0 )= 1.243E+18
 Compute Stats, Diag. #    32 "WVEL    " (list#  1) Parms "WM      LR      ", vol(  0 )= 1.315E+18
 Compute Stats, Diag. #    26 "THETA   " (list#  1) Parms "SMR     MR      ", vol(  0 )= 1.340E+18
 EXTERNAL_FIELDS_LOAD,      1096 : iP,iLd,i0,i1=    1    2    1    2 ; Wght=  0.9666666667  0.0333333333
 cg2d: Sum(rhs),rhsMax =  -3.41060513164848E-13  5.06060031237505E+00
 EXTERNAL_FIELDS_LOAD,      1097 : iP,iLd,i0,i1=    1    2    1    2 ; Wght=  0.9333333333  0.0666666667
 cg2d: Sum(rhs),rhsMax =   1.42108547152020E-13  5.06007011524492E+00
 EXTERNAL_FIELDS_LOAD,      1098 : iP,iLd,i0,i1=    1    2    1    2 ; Wght=  0.9000000000  0.1000000000
 cg2d: Sum(rhs),rhsMax =  -4.54747350886464E-13  5.05932806013429E+00
 EXTERNAL_FIELDS_LOAD,      1099 : iP,iLd,i0,i1=    1    2    1    2 ; Wght=  0.8666666667  0.1333333333
 cg2d: Sum(rhs),rhsMax =  -1.70530256582424E-13  5.05838828182028E+00
 Computing Diagnostic #    79 "DRHODR  " (list#  1) Parms "SM      LR      ", Count=      10
 Computing Diagnostic #    64 "RHOAnoma" (list#  1) Parms "SMR     MR      ", Count=      10
 Computing Diagnostic #    80 "CONVADJ " (list#  1) Parms "SMR     LR      ", Count=      10
 Computing Diagnostic #   210 "GM_Kwx  " (list#  1) Parms "UM      LR      ", Count=      10
             Vector  Mate for "GM_Kwx  " :  Diagnostic #    211 "GM_Kwy  " exists
 Computing Diagnostic #   211 "GM_Kwy  " (list#  1) Parms "VM      LR      ", Count=      10
             Vector  Mate for "GM_Kwy  " :  Diagnostic #    210 "GM_Kwx  " exists
 Computing Diagnostic #   212 "GM_Kwz  " (list#  1) Parms "WM P    LR      ", Count=      10
 Computing Diagnostic #   213 "GM_PsiX " (list#  1) Parms "UU      LR      ", Count=      10
             Vector  Mate for "GM_PsiX " :  Diagnostic #    214 "GM_PsiY " exists
 Computing Diagnostic #   214 "GM_PsiY " (list#  1) Parms "VV      LR      ", Count=      10
             Vector  Mate for "GM_PsiY " :  Diagnostic #    213 "GM_PsiX " exists
 EXTERNAL_FIELDS_LOAD,      1100 : iP,iLd,i0,i1=    1    2    1    2 ; Wght=  0.8333333333  0.1666666667
 cg2d: Sum(rhs),rhsMax =  -1.13686837721616E-13  5.05726951727098E+00
 EXTERNAL_FIELDS_LOAD,      1101 : iP,iLd,i0,i1=    1    2    1    2 ; Wght=  0.8000000000  0.2000000000
 cg2d: Sum(rhs),rhsMax =   5.68434188608080E-14  5.05599500612415E+00
 EXTERNAL_FIELDS_LOAD,      1102 : iP,iLd,i0,i1=    1    2    1    2 ; Wght=  0.7666666667  0.2333333333
 cg2d: Sum(rhs),rhsMax =  -1.13686837721616E-13  5.05459179104039E+00
 EXTERNAL_FIELDS_LOAD,      1103 : iP,iLd,i0,i1=    1    2    1    2 ; Wght=  0.7333333333  0.2666666667
 cg2d: Sum(rhs),rhsMax =   2.84217094304040E-14  5.05308889554442E+00
 EXTERNAL_FIELDS_LOAD,      1104 : iP,iLd,i0,i1=    1    2    1    2 ; Wght=  0.7000000000  0.3000000000
 cg2d: Sum(rhs),rhsMax =  -3.97903932025656E-13  5.05151773347816E+00
 EXTERNAL_FIELDS_LOAD,      1105 : iP,iLd,i0,i1=    1    2    1    2 ; Wght=  0.6666666667  0.3333333333
 cg2d: Sum(rhs),rhsMax =  -1.98951966012828E-13  5.04991263345393E+00
 Compute Stats, Diag. #    23 "ETAN    " (list#  1) Parms "SM      M1      ", vol(  0 )= 3.639E+14
 Compute Stats, Diag. #    30 "UVEL    " (list#  1) Parms "UUR     MR      ", vol(  0 )= 1.231E+18
 Compute Stats, Diag. #    31 "VVEL    " (list#  1) Parms "VVR     MR      ", vol(  0 )= 1.243E+18
 Compute Stats, Diag. #    32 "WVEL    " (list#  1) Parms "WM      LR      ", vol(  0 )= 1.315E+18
 Compute Stats, Diag. #    26 "THETA   " (list#  1) Parms "SMR     MR      ", vol(  0 )= 1.340E+18
 EXTERNAL_FIELDS_LOAD,      1106 : iP,iLd,i0,i1=    1    2    1    2 ; Wght=  0.6333333333  0.3666666667
 cg2d: Sum(rhs),rhsMax =  -5.11590769747272E-13  5.04831003224690E+00
 EXTERNAL_FIELDS_LOAD,      1107 : iP,iLd,i0,i1=    1    2    1    2 ; Wght=  0.6000000000  0.4000000000
 cg2d: Sum(rhs),rhsMax =  -5.68434188608080E-14  5.04674799542504E+00
 EXTERNAL_FIELDS_LOAD,      1108 : iP,iLd,i0,i1=    1    2    1    2 ; Wght=  0.5666666667  0.4333333333
 cg2d: Sum(rhs),rhsMax =  -2.84217094304040E-13  5.04526559926528E+00
 EXTERNAL_FIELDS_LOAD,      1109 : iP,iLd,i0,i1=    1    2    1    2 ; Wght=  0.5333333333  0.4666666667
 cg2d: Sum(rhs),rhsMax =  -1.42108547152020E-13  5.04390220749176E+00
(PID.TID 0000.0001)      cg2d_init_res =   1.53158519166376E-01
(PID.TID 0000.0001)      cg2d_iters(min,last) =      -1      61
(PID.TID 0000.0001)      cg2d_last_res =   4.90001978125874E-07
(PID.TID 0000.0001) // =======================================================
(PID.TID 0000.0001) // Begin MONITOR dynamic field statistics
(PID.TID 0000.0001) // =======================================================
(PID.TID 0000.0001) %MON time_tsnumber                =                  1110
(PID.TID 0000.0001) %MON time_secondsf                =   9.5904000000000E+07
(PID.TID 0000.0001) %MON dynstat_eta_max              =   8.9721657742270E-01
(PID.TID 0000.0001) %MON dynstat_eta_min              =  -1.8424853872132E+00
(PID.TID 0000.0001) %MON dynstat_eta_mean             =   2.3358916728339E-16
(PID.TID 0000.0001) %MON dynstat_eta_sd               =   6.2483750723544E-01
(PID.TID 0000.0001) %MON dynstat_eta_del2             =   8.5901319661096E-04
(PID.TID 0000.0001) %MON dynstat_uvel_max             =   1.6254347617591E-01
(PID.TID 0000.0001) %MON dynstat_uvel_min             =  -2.7432518276375E-01
(PID.TID 0000.0001) %MON dynstat_uvel_mean            =  -5.1097374616473E-04
(PID.TID 0000.0001) %MON dynstat_uvel_sd              =   1.3104423183450E-02
(PID.TID 0000.0001) %MON dynstat_uvel_del2            =   5.5341391715510E-05
(PID.TID 0000.0001) %MON dynstat_vvel_max             =   1.8160951841139E-01
(PID.TID 0000.0001) %MON dynstat_vvel_min             =  -2.0645107290279E-01
(PID.TID 0000.0001) %MON dynstat_vvel_mean            =  -4.0729851762933E-04
(PID.TID 0000.0001) %MON dynstat_vvel_sd              =   1.3223392266515E-02
(PID.TID 0000.0001) %MON dynstat_vvel_del2            =   5.3392434098849E-05
(PID.TID 0000.0001) %MON dynstat_wvel_max             =   9.4004111124715E-05
(PID.TID 0000.0001) %MON dynstat_wvel_min             =  -2.0145497552919E-04
(PID.TID 0000.0001) %MON dynstat_wvel_mean            =  -3.8003303767682E-22
(PID.TID 0000.0001) %MON dynstat_wvel_sd              =   4.3418972604422E-06
(PID.TID 0000.0001) %MON dynstat_wvel_del2            =   3.1701371860061E-08
(PID.TID 0000.0001) %MON dynstat_theta_max            =   3.1137417144057E+01
(PID.TID 0000.0001) %MON dynstat_theta_min            =  -7.0218893023356E+00
(PID.TID 0000.0001) %MON dynstat_theta_mean           =   3.6110986637495E+00
(PID.TID 0000.0001) %MON dynstat_theta_sd             =   4.4172529739076E+00
(PID.TID 0000.0001) %MON dynstat_theta_del2           =   3.0619554235185E-03
(PID.TID 0000.0001) %MON dynstat_salt_max             =   4.1244981594536E+01
(PID.TID 0000.0001) %MON dynstat_salt_min             =   1.8659165690791E+01
(PID.TID 0000.0001) %MON dynstat_salt_mean            =   3.4721273115167E+01
(PID.TID 0000.0001) %MON dynstat_salt_sd              =   4.9624337834471E-01
(PID.TID 0000.0001) %MON dynstat_salt_del2            =   9.6380715270414E-04
(PID.TID 0000.0001) %MON forcing_qnet_max             =   4.2693997077631E+02
(PID.TID 0000.0001) %MON forcing_qnet_min             =  -1.9343616982889E+02
(PID.TID 0000.0001) %MON forcing_qnet_mean            =  -1.2968551416263E+01
(PID.TID 0000.0001) %MON forcing_qnet_sd              =   9.9492223300472E+01
(PID.TID 0000.0001) %MON forcing_qnet_del2            =   4.2364946540961E-01
(PID.TID 0000.0001) %MON forcing_qsw_max              =   0.0000000000000E+00
(PID.TID 0000.0001) %MON forcing_qsw_min              =   0.0000000000000E+00
(PID.TID 0000.0001) %MON forcing_qsw_mean             =   0.0000000000000E+00
(PID.TID 0000.0001) %MON forcing_qsw_sd               =   0.0000000000000E+00
(PID.TID 0000.0001) %MON forcing_qsw_del2             =   0.0000000000000E+00
(PID.TID 0000.0001) %MON forcing_empmr_max            =   7.6494447208479E-05
(PID.TID 0000.0001) %MON forcing_empmr_min            =  -1.5362614137596E-04
(PID.TID 0000.0001) %MON forcing_empmr_mean           =  -2.7256318706594E-21
(PID.TID 0000.0001) %MON forcing_empmr_sd             =   2.4051723601802E-05
(PID.TID 0000.0001) %MON forcing_empmr_del2           =   1.2276157049243E-07
(PID.TID 0000.0001) %MON forcing_fu_max               =   2.4203671674909E-01
(PID.TID 0000.0001) %MON forcing_fu_min               =  -1.9431438996982E-01
(PID.TID 0000.0001) %MON forcing_fu_mean              =  -4.3454983033901E-03
(PID.TID 0000.0001) %MON forcing_fu_sd                =   6.3991651081989E-02
(PID.TID 0000.0001) %MON forcing_fu_del2              =   2.0330644295017E-04
(PID.TID 0000.0001) %MON forcing_fv_max               =   2.8181226170264E-01
(PID.TID 0000.0001) %MON forcing_fv_min               =  -2.9135458178179E-01
(PID.TID 0000.0001) %MON forcing_fv_mean              =  -1.3718324798732E-02
(PID.TID 0000.0001) %MON forcing_fv_sd                =   7.4616601676114E-02
(PID.TID 0000.0001) %MON forcing_fv_del2              =   2.3832796041755E-04
(PID.TID 0000.0001) %MON trAdv_CFL_u_max              =   1.5170109886569E-01
(PID.TID 0000.0001) %MON trAdv_CFL_v_max              =   1.1344809940724E-01
(PID.TID 0000.0001) %MON trAdv_CFL_w_max              =   1.4592013704333E-01
(PID.TID 0000.0001) %MON advcfl_uvel_max              =   7.7803825420195E-02
(PID.TID 0000.0001) %MON advcfl_vvel_max              =   7.9161030521730E-02
(PID.TID 0000.0001) %MON advcfl_wvel_max              =   6.5681924097065E-02
(PID.TID 0000.0001) %MON advcfl_W_hf_max              =   7.2523791190509E-02
(PID.TID 0000.0001) %MON pe_b_mean                    =   5.2011413315981E-04
(PID.TID 0000.0001) %MON ke_max                       =   3.6335877414965E-02
(PID.TID 0000.0001) %MON ke_mean                      =   1.6021216214373E-04
(PID.TID 0000.0001) %MON ke_vol                       =   1.3398024453628E+18
(PID.TID 0000.0001) %MON vort_r_min                   =  -1.1340984266838E-06
(PID.TID 0000.0001) %MON vort_r_max                   =   1.1932393323248E-06
(PID.TID 0000.0001) %MON vort_a_mean                  =  -2.0549865324846E-05
(PID.TID 0000.0001) %MON vort_a_sd                    =   7.5259619077614E-05
(PID.TID 0000.0001) %MON vort_p_mean                  =  -2.4783522345032E-05
(PID.TID 0000.0001) %MON vort_p_sd                    =   1.2810613787200E-04
(PID.TID 0000.0001) %MON surfExpan_theta_mean         =   4.9980869651408E-08
(PID.TID 0000.0001) %MON surfExpan_salt_mean          =   1.5760812998661E-08
(PID.TID 0000.0001) // =======================================================
(PID.TID 0000.0001) // End MONITOR dynamic field statistics
(PID.TID 0000.0001) // =======================================================
(PID.TID 0000.0001) // =======================================================
(PID.TID 0000.0001) // Begin MONITOR ptracer field statistics
(PID.TID 0000.0001) // =======================================================
(PID.TID 0000.0001) %MON trcstat_ptracer01_max        =   9.8509280393893E+07
(PID.TID 0000.0001) %MON trcstat_ptracer01_min        =  -3.5333576954149E+06
(PID.TID 0000.0001) %MON trcstat_ptracer01_mean       =   9.2727962873642E+07
(PID.TID 0000.0001) %MON trcstat_ptracer01_sd         =   1.3669195375663E+07
(PID.TID 0000.0001) %MON trcstat_ptracer01_del2       =   2.5145473428141E+04
(PID.TID 0000.0001) // =======================================================
(PID.TID 0000.0001) // End MONITOR ptracer field statistics
(PID.TID 0000.0001) // =======================================================
 Computing Diagnostic #    79 "DRHODR  " (list#  1) Parms "SM      LR      ", Count=      10
 Computing Diagnostic #    64 "RHOAnoma" (list#  1) Parms "SMR     MR      ", Count=      10
 Computing Diagnostic #    80 "CONVADJ " (list#  1) Parms "SMR     LR      ", Count=      10
 Computing Diagnostic #   210 "GM_Kwx  " (list#  1) Parms "UM      LR      ", Count=      10
             Vector  Mate for "GM_Kwx  " :  Diagnostic #    211 "GM_Kwy  " exists
 Computing Diagnostic #   211 "GM_Kwy  " (list#  1) Parms "VM      LR      ", Count=      10
             Vector  Mate for "GM_Kwy  " :  Diagnostic #    210 "GM_Kwx  " exists
 Computing Diagnostic #   212 "GM_Kwz  " (list#  1) Parms "WM P    LR      ", Count=      10
 Computing Diagnostic #   213 "GM_PsiX " (list#  1) Parms "UU      LR      ", Count=      10
             Vector  Mate for "GM_PsiX " :  Diagnostic #    214 "GM_PsiY " exists
 Computing Diagnostic #   214 "GM_PsiY " (list#  1) Parms "VV      LR      ", Count=      10
             Vector  Mate for "GM_PsiY " :  Diagnostic #    213 "GM_PsiX " exists
 EXTERNAL_FIELDS_LOAD,      1110 : iP,iLd,i0,i1=    1    2    1    2 ; Wght=  0.5000000000  0.5000000000
 cg2d: Sum(rhs),rhsMax =  -4.54747350886464E-13  5.04269669484343E+00
 EXTERNAL_FIELDS_LOAD,      1111 : iP,iLd,i0,i1=    1    2    1    2 ; Wght=  0.4666666667  0.5333333333
 cg2d: Sum(rhs),rhsMax =  -2.84217094304040E-14  5.04168665627628E+00
 EXTERNAL_FIELDS_LOAD,      1112 : iP,iLd,i0,i1=    1    2    1    2 ; Wght=  0.4333333333  0.5666666667
 cg2d: Sum(rhs),rhsMax =  -4.83169060316868E-13  5.04090762688331E+00
 EXTERNAL_FIELDS_LOAD,      1113 : iP,iLd,i0,i1=    1    2    1    2 ; Wght=  0.4000000000  0.6000000000
 cg2d: Sum(rhs),rhsMax =  -3.12638803734444E-13  5.04039237959181E+00
 EXTERNAL_FIELDS_LOAD,      1114 : iP,iLd,i0,i1=    1    2    1    2 ; Wght=  0.3666666667  0.6333333333
 cg2d: Sum(rhs),rhsMax =  -2.84217094304040E-14  5.04017023821749E+00
 EXTERNAL_FIELDS_LOAD,      1115 : iP,iLd,i0,i1=    1    2    1    2 ; Wght=  0.3333333333  0.6666666667
 cg2d: Sum(rhs),rhsMax =   1.70530256582424E-13  5.04026646637501E+00
 Compute Stats, Diag. #    23 "ETAN    " (list#  1) Parms "SM      M1      ", vol(  0 )= 3.639E+14
 Compute Stats, Diag. #    30 "UVEL    " (list#  1) Parms "UUR     MR      ", vol(  0 )= 1.231E+18
 Compute Stats, Diag. #    31 "VVEL    " (list#  1) Parms "VVR     MR      ", vol(  0 )= 1.243E+18
 Compute Stats, Diag. #    32 "WVEL    " (list#  1) Parms "WM      LR      ", vol(  0 )= 1.315E+18
 Compute Stats, Diag. #    26 "THETA   " (list#  1) Parms "SMR     MR      ", vol(  0 )= 1.340E+18
 EXTERNAL_FIELDS_LOAD,      1116 : iP,iLd,i0,i1=    1    2    1    2 ; Wght=  0.3000000000  0.7000000000
 cg2d: Sum(rhs),rhsMax =  -1.98951966012828E-13  5.04070163854417E+00
 EXTERNAL_FIELDS_LOAD,      1117 : iP,iLd,i0,i1=    1    2    1    2 ; Wght=  0.2666666667  0.7333333333
 cg2d: Sum(rhs),rhsMax =  -1.13686837721616E-13  5.04149118999256E+00
 EXTERNAL_FIELDS_LOAD,      1118 : iP,iLd,i0,i1=    1    2    1    2 ; Wght=  0.2333333333  0.7666666667
 cg2d: Sum(rhs),rhsMax =  -3.69482222595252E-13  5.04264490840010E+00
 EXTERNAL_FIELDS_LOAD,      1119 : iP,iLd,i0,i1=    1    2    1    2 ; Wght=  0.2000000000  0.8000000000
 cg2d: Sum(rhs),rhsMax =  -2.84217094304040E-13  5.04416647583416E+00
 Computing Diagnostic #    79 "DRHODR  " (list#  1) Parms "SM      LR      ", Count=      10
 Computing Diagnostic #    64 "RHOAnoma" (list#  1) Parms "SMR     MR      ", Count=      10
 Computing Diagnostic #    80 "CONVADJ " (list#  1) Parms "SMR     LR      ", Count=      10
 Computing Diagnostic #   210 "GM_Kwx  " (list#  1) Parms "UM      LR      ", Count=      10
             Vector  Mate for "GM_Kwx  " :  Diagnostic #    211 "GM_Kwy  " exists
 Computing Diagnostic #   211 "GM_Kwy  " (list#  1) Parms "VM      LR      ", Count=      10
             Vector  Mate for "GM_Kwy  " :  Diagnostic #    210 "GM_Kwx  " exists
 Computing Diagnostic #   212 "GM_Kwz  " (list#  1) Parms "WM P    LR      ", Count=      10
 Computing Diagnostic #   213 "GM_PsiX " (list#  1) Parms "UU      LR      ", Count=      10
             Vector  Mate for "GM_PsiX " :  Diagnostic #    214 "GM_PsiY " exists
 Computing Diagnostic #   214 "GM_PsiY " (list#  1) Parms "VV      LR      ", Count=      10
             Vector  Mate for "GM_PsiY " :  Diagnostic #    213 "GM_PsiX " exists
 EXTERNAL_FIELDS_LOAD,      1120 : iP,iLd,i0,i1=    1    2    1    2 ; Wght=  0.1666666667  0.8333333333
 cg2d: Sum(rhs),rhsMax =   5.68434188608080E-14  5.04605314176499E+00
 EXTERNAL_FIELDS_LOAD,      1121 : iP,iLd,i0,i1=    1    2    1    2 ; Wght=  0.1333333333  0.8666666667
 cg2d: Sum(rhs),rhsMax =  -3.41060513164848E-13  5.04829552744621E+00
 EXTERNAL_FIELDS_LOAD,      1122 : iP,iLd,i0,i1=    1    2    1    2 ; Wght=  0.1000000000  0.9000000000
 cg2d: Sum(rhs),rhsMax =  -3.69482222595252E-13  5.05087759366000E+00
 EXTERNAL_FIELDS_LOAD,      1123 : iP,iLd,i0,i1=    1    2    1    2 ; Wght=  0.0666666667  0.9333333333
 cg2d: Sum(rhs),rhsMax =  -8.52651282912120E-14  5.05377678401052E+00
 EXTERNAL_FIELDS_LOAD,      1124 : iP,iLd,i0,i1=    1    2    1    2 ; Wght=  0.0333333333  0.9666666667
 cg2d: Sum(rhs),rhsMax =   2.84217094304040E-14  5.05696436021550E+00
 EXTERNAL_FIELDS_LOAD,      1125 : iP,iLd,i0,i1=    1    2    2    3 ; Wght=  1.0000000000  0.0000000000
 EXTERNAL_FIELDS_LOAD, it=      1125 : Reading new data, i0,i1=    2    3 (prev=    1    2 )
(PID.TID 0000.0001)  MDS_READ_FIELD: opening global file: trenberth_taux.bin
(PID.TID 0000.0001)  MDS_READ_FIELD: opening global file: trenberth_taux.bin
(PID.TID 0000.0001)  MDS_READ_FIELD: opening global file: trenberth_tauy.bin
(PID.TID 0000.0001)  MDS_READ_FIELD: opening global file: trenberth_tauy.bin
(PID.TID 0000.0001)  MDS_READ_FIELD: opening global file: shiQnet_cs32.bin
(PID.TID 0000.0001)  MDS_READ_FIELD: opening global file: shiQnet_cs32.bin
(PID.TID 0000.0001)  MDS_READ_FIELD: opening global file: shiEmPR_cs32.bin
(PID.TID 0000.0001)  MDS_READ_FIELD: opening global file: shiEmPR_cs32.bin
(PID.TID 0000.0001)  MDS_READ_FIELD: opening global file: lev_surfT_cs_12m.bin
(PID.TID 0000.0001)  MDS_READ_FIELD: opening global file: lev_surfT_cs_12m.bin
(PID.TID 0000.0001)  MDS_READ_FIELD: opening global file: lev_surfS_cs_12m.bin
(PID.TID 0000.0001)  MDS_READ_FIELD: opening global file: lev_surfS_cs_12m.bin
 cg2d: Sum(rhs),rhsMax =  -2.27373675443232E-13  5.06040591273637E+00
 Compute Stats, Diag. #    23 "ETAN    " (list#  1) Parms "SM      M1      ", vol(  0 )= 3.639E+14
 Compute Stats, Diag. #    30 "UVEL    " (list#  1) Parms "UUR     MR      ", vol(  0 )= 1.231E+18
 Compute Stats, Diag. #    31 "VVEL    " (list#  1) Parms "VVR     MR      ", vol(  0 )= 1.243E+18
 Compute Stats, Diag. #    32 "WVEL    " (list#  1) Parms "WM      LR      ", vol(  0 )= 1.315E+18
 Compute Stats, Diag. #    26 "THETA   " (list#  1) Parms "SMR     MR      ", vol(  0 )= 1.340E+18
 EXTERNAL_FIELDS_LOAD,      1126 : iP,iLd,i0,i1=    2    3    2    3 ; Wght=  0.9666666667  0.0333333333
 cg2d: Sum(rhs),rhsMax =  -2.84217094304040E-14  5.06405592088547E+00
 EXTERNAL_FIELDS_LOAD,      1127 : iP,iLd,i0,i1=    2    3    2    3 ; Wght=  0.9333333333  0.0666666667
 cg2d: Sum(rhs),rhsMax =  -1.70530256582424E-13  5.06787460332454E+00
 EXTERNAL_FIELDS_LOAD,      1128 : iP,iLd,i0,i1=    2    3    2    3 ; Wght=  0.9000000000  0.1000000000
 cg2d: Sum(rhs),rhsMax =  -1.42108547152020E-13  5.07182728251576E+00
 EXTERNAL_FIELDS_LOAD,      1129 : iP,iLd,i0,i1=    2    3    2    3 ; Wght=  0.8666666667  0.1333333333
 cg2d: Sum(rhs),rhsMax =   1.13686837721616E-13  5.07586304463432E+00
 Computing Diagnostic #    79 "DRHODR  " (list#  1) Parms "SM      LR      ", Count=      10
 Computing Diagnostic #    64 "RHOAnoma" (list#  1) Parms "SMR     MR      ", Count=      10
 Computing Diagnostic #    80 "CONVADJ " (list#  1) Parms "SMR     LR      ", Count=      10
 Computing Diagnostic #   210 "GM_Kwx  " (list#  1) Parms "UM      LR      ", Count=      10
             Vector  Mate for "GM_Kwx  " :  Diagnostic #    211 "GM_Kwy  " exists
 Computing Diagnostic #   211 "GM_Kwy  " (list#  1) Parms "VM      LR      ", Count=      10
             Vector  Mate for "GM_Kwy  " :  Diagnostic #    210 "GM_Kwx  " exists
 Computing Diagnostic #   212 "GM_Kwz  " (list#  1) Parms "WM P    LR      ", Count=      10
 Computing Diagnostic #   213 "GM_PsiX " (list#  1) Parms "UU      LR      ", Count=      10
             Vector  Mate for "GM_PsiX " :  Diagnostic #    214 "GM_PsiY " exists
 Computing Diagnostic #   214 "GM_PsiY " (list#  1) Parms "VV      LR      ", Count=      10
             Vector  Mate for "GM_PsiY " :  Diagnostic #    213 "GM_PsiX " exists
 EXTERNAL_FIELDS_LOAD,      1130 : iP,iLd,i0,i1=    2    3    2    3 ; Wght=  0.8333333333  0.1666666667
 cg2d: Sum(rhs),rhsMax =   0.00000000000000E+00  5.07993095300334E+00
 EXTERNAL_FIELDS_LOAD,      1131 : iP,iLd,i0,i1=    2    3    2    3 ; Wght=  0.8000000000  0.2000000000
 cg2d: Sum(rhs),rhsMax =  -2.27373675443232E-13  5.08398224739977E+00
 EXTERNAL_FIELDS_LOAD,      1132 : iP,iLd,i0,i1=    2    3    2    3 ; Wght=  0.7666666667  0.2333333333
 cg2d: Sum(rhs),rhsMax =  -8.52651282912120E-14  5.08796944490831E+00
 EXTERNAL_FIELDS_LOAD,      1133 : iP,iLd,i0,i1=    2    3    2    3 ; Wght=  0.7333333333  0.2666666667
 cg2d: Sum(rhs),rhsMax =  -5.68434188608080E-13  5.09184695991977E+00
 EXTERNAL_FIELDS_LOAD,      1134 : iP,iLd,i0,i1=    2    3    2    3 ; Wght=  0.7000000000  0.3000000000
 cg2d: Sum(rhs),rhsMax =  -5.68434188608080E-14  5.09557228400071E+00
 EXTERNAL_FIELDS_LOAD,      1135 : iP,iLd,i0,i1=    2    3    2    3 ; Wght=  0.6666666667  0.3333333333
 cg2d: Sum(rhs),rhsMax =  -1.98951966012828E-13  5.09910722587568E+00
 Compute Stats, Diag. #    23 "ETAN    " (list#  1) Parms "SM      M1      ", vol(  0 )= 3.639E+14
 Compute Stats, Diag. #    30 "UVEL    " (list#  1) Parms "UUR     MR      ", vol(  0 )= 1.231E+18
 Compute Stats, Diag. #    31 "VVEL    " (list#  1) Parms "VVR     MR      ", vol(  0 )= 1.243E+18
 Compute Stats, Diag. #    32 "WVEL    " (list#  1) Parms "WM      LR      ", vol(  0 )= 1.315E+18
 Compute Stats, Diag. #    26 "THETA   " (list#  1) Parms "SMR     MR      ", vol(  0 )= 1.340E+18
 EXTERNAL_FIELDS_LOAD,      1136 : iP,iLd,i0,i1=    2    3    2    3 ; Wght=  0.6333333333  0.3666666667
 cg2d: Sum(rhs),rhsMax =  -1.70530256582424E-13  5.10241871268510E+00
 EXTERNAL_FIELDS_LOAD,      1137 : iP,iLd,i0,i1=    2    3    2    3 ; Wght=  0.6000000000  0.4000000000
 cg2d: Sum(rhs),rhsMax =  -1.42108547152020E-13  5.10547944568464E+00
 EXTERNAL_FIELDS_LOAD,      1138 : iP,iLd,i0,i1=    2    3    2    3 ; Wght=  0.5666666667  0.4333333333
 cg2d: Sum(rhs),rhsMax =  -2.55795384873636E-13  5.10826849987997E+00
 EXTERNAL_FIELDS_LOAD,      1139 : iP,iLd,i0,i1=    2    3    2    3 ; Wght=  0.5333333333  0.4666666667
 cg2d: Sum(rhs),rhsMax =  -1.42108547152020E-13  5.11077166812868E+00
(PID.TID 0000.0001)      cg2d_init_res =   1.36831747661109E-01
(PID.TID 0000.0001)      cg2d_iters(min,last) =      -1      59
(PID.TID 0000.0001)      cg2d_last_res =   5.79457395311100E-07
(PID.TID 0000.0001) // =======================================================
(PID.TID 0000.0001) // Begin MONITOR dynamic field statistics
(PID.TID 0000.0001) // =======================================================
(PID.TID 0000.0001) %MON time_tsnumber                =                  1140
(PID.TID 0000.0001) %MON time_secondsf                =   9.8496000000000E+07
(PID.TID 0000.0001) %MON dynstat_eta_max              =   8.8419259012311E-01
(PID.TID 0000.0001) %MON dynstat_eta_min              =  -1.8410808280486E+00
(PID.TID 0000.0001) %MON dynstat_eta_mean             =   2.0610808877946E-16
(PID.TID 0000.0001) %MON dynstat_eta_sd               =   6.2440050518933E-01
(PID.TID 0000.0001) %MON dynstat_eta_del2             =   8.7145464261243E-04
(PID.TID 0000.0001) %MON dynstat_uvel_max             =   1.5915183429815E-01
(PID.TID 0000.0001) %MON dynstat_uvel_min             =  -2.5422450224172E-01
(PID.TID 0000.0001) %MON dynstat_uvel_mean            =  -5.0083722887594E-04
(PID.TID 0000.0001) %MON dynstat_uvel_sd              =   1.3046742432553E-02
(PID.TID 0000.0001) %MON dynstat_uvel_del2            =   5.5695293982872E-05
(PID.TID 0000.0001) %MON dynstat_vvel_max             =   1.7741528551911E-01
(PID.TID 0000.0001) %MON dynstat_vvel_min             =  -2.1113158950788E-01
(PID.TID 0000.0001) %MON dynstat_vvel_mean            =  -3.9747690047243E-04
(PID.TID 0000.0001) %MON dynstat_vvel_sd              =   1.3221186018736E-02
(PID.TID 0000.0001) %MON dynstat_vvel_del2            =   5.3737748870851E-05
(PID.TID 0000.0001) %MON dynstat_wvel_max             =   9.8899945368604E-05
(PID.TID 0000.0001) %MON dynstat_wvel_min             =  -2.0862475982698E-04
(PID.TID 0000.0001) %MON dynstat_wvel_mean            =  -1.9871956550276E-22
(PID.TID 0000.0001) %MON dynstat_wvel_sd              =   4.2680427736344E-06
(PID.TID 0000.0001) %MON dynstat_wvel_del2            =   3.2363719711935E-08
(PID.TID 0000.0001) %MON dynstat_theta_max            =   3.1255244539688E+01
(PID.TID 0000.0001) %MON dynstat_theta_min            =  -7.0239576946262E+00
(PID.TID 0000.0001) %MON dynstat_theta_mean           =   3.6129241342991E+00
(PID.TID 0000.0001) %MON dynstat_theta_sd             =   4.4262173927874E+00
(PID.TID 0000.0001) %MON dynstat_theta_del2           =   3.1936360749122E-03
(PID.TID 0000.0001) %MON dynstat_salt_max             =   4.1262721582585E+01
(PID.TID 0000.0001) %MON dynstat_salt_min             =   1.8662783421070E+01
(PID.TID 0000.0001) %MON dynstat_salt_mean            =   3.4721307948461E+01
(PID.TID 0000.0001) %MON dynstat_salt_sd              =   4.9620254091187E-01
(PID.TID 0000.0001) %MON dynstat_salt_del2            =   9.9118563592162E-04
(PID.TID 0000.0001) %MON forcing_qnet_max             =   3.3042634335178E+02
(PID.TID 0000.0001) %MON forcing_qnet_min             =  -1.7660851259454E+02
(PID.TID 0000.0001) %MON forcing_qnet_mean            =  -1.0852729938019E+01
(PID.TID 0000.0001) %MON forcing_qnet_sd              =   7.0657056700312E+01
(PID.TID 0000.0001) %MON forcing_qnet_del2            =   4.2814957942894E-01
(PID.TID 0000.0001) %MON forcing_qsw_max              =   0.0000000000000E+00
(PID.TID 0000.0001) %MON forcing_qsw_min              =   0.0000000000000E+00
(PID.TID 0000.0001) %MON forcing_qsw_mean             =   0.0000000000000E+00
(PID.TID 0000.0001) %MON forcing_qsw_sd               =   0.0000000000000E+00
(PID.TID 0000.0001) %MON forcing_qsw_del2             =   0.0000000000000E+00
(PID.TID 0000.0001) %MON forcing_empmr_max            =   7.6494447208479E-05
(PID.TID 0000.0001) %MON forcing_empmr_min            =  -1.5362614137596E-04
(PID.TID 0000.0001) %MON forcing_empmr_mean           =  -2.7256318706594E-21
(PID.TID 0000.0001) %MON forcing_empmr_sd             =   2.4051723601802E-05
(PID.TID 0000.0001) %MON forcing_empmr_del2           =   1.2276157049243E-07
(PID.TID 0000.0001) %MON forcing_fu_max               =   2.5900680920623E-01
(PID.TID 0000.0001) %MON forcing_fu_min               =  -2.7674482002417E-01
(PID.TID 0000.0001) %MON forcing_fu_mean              =  -6.6071708361519E-03
(PID.TID 0000.0001) %MON forcing_fu_sd                =   6.6479507797018E-02
(PID.TID 0000.0001) %MON forcing_fu_del2              =   2.0283374775688E-04
(PID.TID 0000.0001) %MON forcing_fv_max               =   2.5607026525915E-01
(PID.TID 0000.0001) %MON forcing_fv_min               =  -3.1974616055058E-01
(PID.TID 0000.0001) %MON forcing_fv_mean              =  -1.3204626201289E-02
(PID.TID 0000.0001) %MON forcing_fv_sd                =   7.6035559339825E-02
(PID.TID 0000.0001) %MON forcing_fv_del2              =   2.3251705072657E-04
(PID.TID 0000.0001) %MON trAdv_CFL_u_max              =   7.2545075754567E-02
(PID.TID 0000.0001) %MON trAdv_CFL_v_max              =   9.8712774405816E-02
(PID.TID 0000.0001) %MON trAdv_CFL_w_max              =   1.0822056868334E-01
(PID.TID 0000.0001) %MON advcfl_uvel_max              =   7.2102891140641E-02
(PID.TID 0000.0001) %MON advcfl_vvel_max              =   7.3870186097868E-02
(PID.TID 0000.0001) %MON advcfl_wvel_max              =   6.8019544336040E-02
(PID.TID 0000.0001) %MON advcfl_W_hf_max              =   7.5104913537711E-02
(PID.TID 0000.0001) %MON pe_b_mean                    =   5.1938686741209E-04
(PID.TID 0000.0001) %MON ke_max                       =   3.4395983279307E-02
(PID.TID 0000.0001) %MON ke_mean                      =   1.5948363809872E-04
(PID.TID 0000.0001) %MON ke_vol                       =   1.3398024453628E+18
(PID.TID 0000.0001) %MON vort_r_min                   =  -1.1577604320350E-06
(PID.TID 0000.0001) %MON vort_r_max                   =   1.1373179088600E-06
(PID.TID 0000.0001) %MON vort_a_mean                  =  -2.0549865324846E-05
(PID.TID 0000.0001) %MON vort_a_sd                    =   7.5259621146716E-05
(PID.TID 0000.0001) %MON vort_p_mean                  =  -2.4783522345032E-05
(PID.TID 0000.0001) %MON vort_p_sd                    =   1.2810597129882E-04
(PID.TID 0000.0001) %MON surfExpan_theta_mean         =   7.9317826852809E-08
(PID.TID 0000.0001) %MON surfExpan_salt_mean          =   1.7056484232235E-08
(PID.TID 0000.0001) // =======================================================
(PID.TID 0000.0001) // End MONITOR dynamic field statistics
(PID.TID 0000.0001) // =======================================================
(PID.TID 0000.0001) // =======================================================
(PID.TID 0000.0001) // Begin MONITOR ptracer field statistics
(PID.TID 0000.0001) // =======================================================
(PID.TID 0000.0001) %MON trcstat_ptracer01_max        =   1.0102419626389E+08
(PID.TID 0000.0001) %MON trcstat_ptracer01_min        =  -3.8423698818953E+06
(PID.TID 0000.0001) %MON trcstat_ptracer01_mean       =   9.5203901721518E+07
(PID.TID 0000.0001) %MON trcstat_ptracer01_sd         =   1.4090567882950E+07
(PID.TID 0000.0001) %MON trcstat_ptracer01_del2       =   2.6521544382084E+04
(PID.TID 0000.0001) // =======================================================
(PID.TID 0000.0001) // End MONITOR ptracer field statistics
(PID.TID 0000.0001) // =======================================================
 Computing Diagnostic #    79 "DRHODR  " (list#  1) Parms "SM      LR      ", Count=      10
 Computing Diagnostic #    64 "RHOAnoma" (list#  1) Parms "SMR     MR      ", Count=      10
 Computing Diagnostic #    80 "CONVADJ " (list#  1) Parms "SMR     LR      ", Count=      10
 Computing Diagnostic #   210 "GM_Kwx  " (list#  1) Parms "UM      LR      ", Count=      10
             Vector  Mate for "GM_Kwx  " :  Diagnostic #    211 "GM_Kwy  " exists
 Computing Diagnostic #   211 "GM_Kwy  " (list#  1) Parms "VM      LR      ", Count=      10
             Vector  Mate for "GM_Kwy  " :  Diagnostic #    210 "GM_Kwx  " exists
 Computing Diagnostic #   212 "GM_Kwz  " (list#  1) Parms "WM P    LR      ", Count=      10
 Computing Diagnostic #   213 "GM_PsiX " (list#  1) Parms "UU      LR      ", Count=      10
             Vector  Mate for "GM_PsiX " :  Diagnostic #    214 "GM_PsiY " exists
 Computing Diagnostic #   214 "GM_PsiY " (list#  1) Parms "VV      LR      ", Count=      10
             Vector  Mate for "GM_PsiY " :  Diagnostic #    213 "GM_PsiX " exists
 EXTERNAL_FIELDS_LOAD,      1140 : iP,iLd,i0,i1=    2    3    2    3 ; Wght=  0.5000000000  0.5000000000
 cg2d: Sum(rhs),rhsMax =  -2.55795384873636E-13  5.11298177649118E+00
 EXTERNAL_FIELDS_LOAD,      1141 : iP,iLd,i0,i1=    2    3    2    3 ; Wght=  0.4666666667  0.5333333333
 cg2d: Sum(rhs),rhsMax =   0.00000000000000E+00  5.11489882601849E+00
 EXTERNAL_FIELDS_LOAD,      1142 : iP,iLd,i0,i1=    2    3    2    3 ; Wght=  0.4333333333  0.5666666667
 cg2d: Sum(rhs),rhsMax =  -1.42108547152020E-13  5.11652986649966E+00
 EXTERNAL_FIELDS_LOAD,      1143 : iP,iLd,i0,i1=    2    3    2    3 ; Wght=  0.4000000000  0.6000000000
 cg2d: Sum(rhs),rhsMax =  -1.42108547152020E-13  5.11788886526009E+00
 EXTERNAL_FIELDS_LOAD,      1144 : iP,iLd,i0,i1=    2    3    2    3 ; Wght=  0.3666666667  0.6333333333
 cg2d: Sum(rhs),rhsMax =  -1.98951966012828E-13  5.11899618204443E+00
 EXTERNAL_FIELDS_LOAD,      1145 : iP,iLd,i0,i1=    2    3    2    3 ; Wght=  0.3333333333  0.6666666667
 cg2d: Sum(rhs),rhsMax =  -1.42108547152020E-13  5.11987800236588E+00
 Compute Stats, Diag. #    23 "ETAN    " (list#  1) Parms "SM      M1      ", vol(  0 )= 3.639E+14
 Compute Stats, Diag. #    30 "UVEL    " (list#  1) Parms "UUR     MR      ", vol(  0 )= 1.231E+18
 Compute Stats, Diag. #    31 "VVEL    " (list#  1) Parms "VVR     MR      ", vol(  0 )= 1.243E+18
 Compute Stats, Diag. #    32 "WVEL    " (list#  1) Parms "WM      LR      ", vol(  0 )= 1.315E+18
 Compute Stats, Diag. #    26 "THETA   " (list#  1) Parms "SMR     MR      ", vol(  0 )= 1.340E+18
 EXTERNAL_FIELDS_LOAD,      1146 : iP,iLd,i0,i1=    2    3    2    3 ; Wght=  0.3000000000  0.7000000000
 cg2d: Sum(rhs),rhsMax =  -1.70530256582424E-13  5.12056562624375E+00
 EXTERNAL_FIELDS_LOAD,      1147 : iP,iLd,i0,i1=    2    3    2    3 ; Wght=  0.2666666667  0.7333333333
 cg2d: Sum(rhs),rhsMax =   8.52651282912120E-14  5.12109462863936E+00
 EXTERNAL_FIELDS_LOAD,      1148 : iP,iLd,i0,i1=    2    3    2    3 ; Wght=  0.2333333333  0.7666666667
 cg2d: Sum(rhs),rhsMax =  -2.84217094304040E-14  5.12150416800272E+00
 EXTERNAL_FIELDS_LOAD,      1149 : iP,iLd,i0,i1=    2    3    2    3 ; Wght=  0.2000000000  0.8000000000
 cg2d: Sum(rhs),rhsMax =  -5.68434188608080E-14  5.12183582611173E+00
 Computing Diagnostic #    79 "DRHODR  " (list#  1) Parms "SM      LR      ", Count=      10
 Computing Diagnostic #    64 "RHOAnoma" (list#  1) Parms "SMR     MR      ", Count=      10
 Computing Diagnostic #    80 "CONVADJ " (list#  1) Parms "SMR     LR      ", Count=      10
 Computing Diagnostic #   210 "GM_Kwx  " (list#  1) Parms "UM      LR      ", Count=      10
             Vector  Mate for "GM_Kwx  " :  Diagnostic #    211 "GM_Kwy  " exists
 Computing Diagnostic #   211 "GM_Kwy  " (list#  1) Parms "VM      LR      ", Count=      10
             Vector  Mate for "GM_Kwy  " :  Diagnostic #    210 "GM_Kwx  " exists
 Computing Diagnostic #   212 "GM_Kwz  " (list#  1) Parms "WM P    LR      ", Count=      10
 Computing Diagnostic #   213 "GM_PsiX " (list#  1) Parms "UU      LR      ", Count=      10
             Vector  Mate for "GM_PsiX " :  Diagnostic #    214 "GM_PsiY " exists
 Computing Diagnostic #   214 "GM_PsiY " (list#  1) Parms "VV      LR      ", Count=      10
             Vector  Mate for "GM_PsiY " :  Diagnostic #    213 "GM_PsiX " exists
 EXTERNAL_FIELDS_LOAD,      1150 : iP,iLd,i0,i1=    2    3    2    3 ; Wght=  0.1666666667  0.8333333333
 cg2d: Sum(rhs),rhsMax =  -1.42108547152020E-13  5.12213297100437E+00
 EXTERNAL_FIELDS_LOAD,      1151 : iP,iLd,i0,i1=    2    3    2    3 ; Wght=  0.1333333333  0.8666666667
 cg2d: Sum(rhs),rhsMax =   0.00000000000000E+00  5.12243977455166E+00
 EXTERNAL_FIELDS_LOAD,      1152 : iP,iLd,i0,i1=    2    3    2    3 ; Wght=  0.1000000000  0.9000000000
 cg2d: Sum(rhs),rhsMax =  -1.98951966012828E-13  5.12280046627877E+00
 EXTERNAL_FIELDS_LOAD,      1153 : iP,iLd,i0,i1=    2    3    2    3 ; Wght=  0.0666666667  0.9333333333
 cg2d: Sum(rhs),rhsMax =   8.52651282912120E-14  5.12325840481393E+00
 EXTERNAL_FIELDS_LOAD,      1154 : iP,iLd,i0,i1=    2    3    2    3 ; Wght=  0.0333333333  0.9666666667
 cg2d: Sum(rhs),rhsMax =  -1.42108547152020E-13  5.12385536816385E+00
 EXTERNAL_FIELDS_LOAD,      1155 : iP,iLd,i0,i1=    2    3    3    4 ; Wght=  1.0000000000  0.0000000000
 EXTERNAL_FIELDS_LOAD, it=      1155 : Reading new data, i0,i1=    3    4 (prev=    2    3 )
(PID.TID 0000.0001)  MDS_READ_FIELD: opening global file: trenberth_taux.bin
(PID.TID 0000.0001)  MDS_READ_FIELD: opening global file: trenberth_taux.bin
(PID.TID 0000.0001)  MDS_READ_FIELD: opening global file: trenberth_tauy.bin
(PID.TID 0000.0001)  MDS_READ_FIELD: opening global file: trenberth_tauy.bin
(PID.TID 0000.0001)  MDS_READ_FIELD: opening global file: shiQnet_cs32.bin
(PID.TID 0000.0001)  MDS_READ_FIELD: opening global file: shiQnet_cs32.bin
(PID.TID 0000.0001)  MDS_READ_FIELD: opening global file: shiEmPR_cs32.bin
(PID.TID 0000.0001)  MDS_READ_FIELD: opening global file: shiEmPR_cs32.bin
(PID.TID 0000.0001)  MDS_READ_FIELD: opening global file: lev_surfT_cs_12m.bin
(PID.TID 0000.0001)  MDS_READ_FIELD: opening global file: lev_surfT_cs_12m.bin
(PID.TID 0000.0001)  MDS_READ_FIELD: opening global file: lev_surfS_cs_12m.bin
(PID.TID 0000.0001)  MDS_READ_FIELD: opening global file: lev_surfS_cs_12m.bin
 cg2d: Sum(rhs),rhsMax =  -2.55795384873636E-13  5.12463082153703E+00
 Compute Stats, Diag. #    23 "ETAN    " (list#  1) Parms "SM      M1      ", vol(  0 )= 3.639E+14
 Compute Stats, Diag. #    30 "UVEL    " (list#  1) Parms "UUR     MR      ", vol(  0 )= 1.231E+18
 Compute Stats, Diag. #    31 "VVEL    " (list#  1) Parms "VVR     MR      ", vol(  0 )= 1.243E+18
 Compute Stats, Diag. #    32 "WVEL    " (list#  1) Parms "WM      LR      ", vol(  0 )= 1.315E+18
 Compute Stats, Diag. #    26 "THETA   " (list#  1) Parms "SMR     MR      ", vol(  0 )= 1.340E+18
 EXTERNAL_FIELDS_LOAD,      1156 : iP,iLd,i0,i1=    3    4    3    4 ; Wght=  0.9666666667  0.0333333333
 cg2d: Sum(rhs),rhsMax =  -1.42108547152020E-13  5.12567830270430E+00
 EXTERNAL_FIELDS_LOAD,      1157 : iP,iLd,i0,i1=    3    4    3    4 ; Wght=  0.9333333333  0.0666666667
 cg2d: Sum(rhs),rhsMax =   5.68434188608080E-14  5.12695900696145E+00
 EXTERNAL_FIELDS_LOAD,      1158 : iP,iLd,i0,i1=    3    4    3    4 ; Wght=  0.9000000000  0.1000000000
 cg2d: Sum(rhs),rhsMax =   2.84217094304040E-14  5.12849561630412E+00
 EXTERNAL_FIELDS_LOAD,      1159 : iP,iLd,i0,i1=    3    4    3    4 ; Wght=  0.8666666667  0.1333333333
 cg2d: Sum(rhs),rhsMax =  -8.52651282912120E-14  5.13031711924705E+00
 Computing Diagnostic #    79 "DRHODR  " (list#  1) Parms "SM      LR      ", Count=      10
 Computing Diagnostic #    64 "RHOAnoma" (list#  1) Parms "SMR     MR      ", Count=      10
 Computing Diagnostic #    80 "CONVADJ " (list#  1) Parms "SMR     LR      ", Count=      10
 Computing Diagnostic #   210 "GM_Kwx  " (list#  1) Parms "UM      LR      ", Count=      10
             Vector  Mate for "GM_Kwx  " :  Diagnostic #    211 "GM_Kwy  " exists
 Computing Diagnostic #   211 "GM_Kwy  " (list#  1) Parms "VM      LR      ", Count=      10
             Vector  Mate for "GM_Kwy  " :  Diagnostic #    210 "GM_Kwx  " exists
 Computing Diagnostic #   212 "GM_Kwz  " (list#  1) Parms "WM P    LR      ", Count=      10
 Computing Diagnostic #   213 "GM_PsiX " (list#  1) Parms "UU      LR      ", Count=      10
             Vector  Mate for "GM_PsiX " :  Diagnostic #    214 "GM_PsiY " exists
 Computing Diagnostic #   214 "GM_PsiY " (list#  1) Parms "VV      LR      ", Count=      10
             Vector  Mate for "GM_PsiY " :  Diagnostic #    213 "GM_PsiX " exists
 EXTERNAL_FIELDS_LOAD,      1160 : iP,iLd,i0,i1=    3    4    3    4 ; Wght=  0.8333333333  0.1666666667
 cg2d: Sum(rhs),rhsMax =  -2.27373675443232E-13  5.13244826739754E+00
 EXTERNAL_FIELDS_LOAD,      1161 : iP,iLd,i0,i1=    3    4    3    4 ; Wght=  0.8000000000  0.2000000000
 cg2d: Sum(rhs),rhsMax =  -1.98951966012828E-13  5.13490454279927E+00
 EXTERNAL_FIELDS_LOAD,      1162 : iP,iLd,i0,i1=    3    4    3    4 ; Wght=  0.7666666667  0.2333333333
 cg2d: Sum(rhs),rhsMax =  -1.98951966012828E-13  5.13769365485322E+00
 EXTERNAL_FIELDS_LOAD,      1163 : iP,iLd,i0,i1=    3    4    3    4 ; Wght=  0.7333333333  0.2666666667
 cg2d: Sum(rhs),rhsMax =  -5.68434188608080E-14  5.14081676750989E+00
 EXTERNAL_FIELDS_LOAD,      1164 : iP,iLd,i0,i1=    3    4    3    4 ; Wght=  0.7000000000  0.3000000000
 cg2d: Sum(rhs),rhsMax =   5.68434188608080E-14  5.14426904427788E+00
 EXTERNAL_FIELDS_LOAD,      1165 : iP,iLd,i0,i1=    3    4    3    4 ; Wght=  0.6666666667  0.3333333333
 cg2d: Sum(rhs),rhsMax =  -1.13686837721616E-13  5.14803989900412E+00
 Compute Stats, Diag. #    23 "ETAN    " (list#  1) Parms "SM      M1      ", vol(  0 )= 3.639E+14
 Compute Stats, Diag. #    30 "UVEL    " (list#  1) Parms "UUR     MR      ", vol(  0 )= 1.231E+18
 Compute Stats, Diag. #    31 "VVEL    " (list#  1) Parms "VVR     MR      ", vol(  0 )= 1.243E+18
 Compute Stats, Diag. #    32 "WVEL    " (list#  1) Parms "WM      LR      ", vol(  0 )= 1.315E+18
 Compute Stats, Diag. #    26 "THETA   " (list#  1) Parms "SMR     MR      ", vol(  0 )= 1.340E+18
 EXTERNAL_FIELDS_LOAD,      1166 : iP,iLd,i0,i1=    3    4    3    4 ; Wght=  0.6333333333  0.3666666667
 cg2d: Sum(rhs),rhsMax =  -1.42108547152020E-13  5.15211347108109E+00
 EXTERNAL_FIELDS_LOAD,      1167 : iP,iLd,i0,i1=    3    4    3    4 ; Wght=  0.6000000000  0.4000000000
 cg2d: Sum(rhs),rhsMax =  -1.13686837721616E-13  5.15646951382301E+00
 EXTERNAL_FIELDS_LOAD,      1168 : iP,iLd,i0,i1=    3    4    3    4 ; Wght=  0.5666666667  0.4333333333
 cg2d: Sum(rhs),rhsMax =  -1.70530256582424E-13  5.16108305651578E+00
 EXTERNAL_FIELDS_LOAD,      1169 : iP,iLd,i0,i1=    3    4    3    4 ; Wght=  0.5333333333  0.4666666667
 cg2d: Sum(rhs),rhsMax =  -2.55795384873636E-13  5.16592550736860E+00
(PID.TID 0000.0001)      cg2d_init_res =   1.26793976137781E-01
(PID.TID 0000.0001)      cg2d_iters(min,last) =      -1      60
(PID.TID 0000.0001)      cg2d_last_res =   5.37304073792658E-07
(PID.TID 0000.0001) // =======================================================
(PID.TID 0000.0001) // Begin MONITOR dynamic field statistics
(PID.TID 0000.0001) // =======================================================
(PID.TID 0000.0001) %MON time_tsnumber                =                  1170
(PID.TID 0000.0001) %MON time_secondsf                =   1.0108800000000E+08
(PID.TID 0000.0001) %MON dynstat_eta_max              =   8.9529666944108E-01
(PID.TID 0000.0001) %MON dynstat_eta_min              =  -1.8496019252119E+00
(PID.TID 0000.0001) %MON dynstat_eta_mean             =   2.4732970653535E-16
(PID.TID 0000.0001) %MON dynstat_eta_sd               =   6.2812826307067E-01
(PID.TID 0000.0001) %MON dynstat_eta_del2             =   8.7615935779954E-04
(PID.TID 0000.0001) %MON dynstat_uvel_max             =   1.7417974019259E-01
(PID.TID 0000.0001) %MON dynstat_uvel_min             =  -2.4287438912672E-01
(PID.TID 0000.0001) %MON dynstat_uvel_mean            =  -4.8726011121312E-04
(PID.TID 0000.0001) %MON dynstat_uvel_sd              =   1.3035790242003E-02
(PID.TID 0000.0001) %MON dynstat_uvel_del2            =   5.6057528482123E-05
(PID.TID 0000.0001) %MON dynstat_vvel_max             =   1.8764092730873E-01
(PID.TID 0000.0001) %MON dynstat_vvel_min             =  -2.0302448246235E-01
(PID.TID 0000.0001) %MON dynstat_vvel_mean            =  -3.7592617572355E-04
(PID.TID 0000.0001) %MON dynstat_vvel_sd              =   1.3245563795507E-02
(PID.TID 0000.0001) %MON dynstat_vvel_del2            =   5.4193648993264E-05
(PID.TID 0000.0001) %MON dynstat_wvel_max             =   1.0097735149644E-04
(PID.TID 0000.0001) %MON dynstat_wvel_min             =  -2.0620168520107E-04
(PID.TID 0000.0001) %MON dynstat_wvel_mean            =  -1.1459011441400E-22
(PID.TID 0000.0001) %MON dynstat_wvel_sd              =   4.2944711856124E-06
(PID.TID 0000.0001) %MON dynstat_wvel_del2            =   3.3554613511508E-08
(PID.TID 0000.0001) %MON dynstat_theta_max            =   3.1538904075125E+01
(PID.TID 0000.0001) %MON dynstat_theta_min            =  -7.0372162961233E+00
(PID.TID 0000.0001) %MON dynstat_theta_mean           =   3.6134555671664E+00
(PID.TID 0000.0001) %MON dynstat_theta_sd             =   4.4330466467358E+00
(PID.TID 0000.0001) %MON dynstat_theta_del2           =   3.1905887057681E-03
(PID.TID 0000.0001) %MON dynstat_salt_max             =   4.1274534742757E+01
(PID.TID 0000.0001) %MON dynstat_salt_min             =   1.8637541518214E+01
(PID.TID 0000.0001) %MON dynstat_salt_mean            =   3.4721346315435E+01
(PID.TID 0000.0001) %MON dynstat_salt_sd              =   4.9613707142083E-01
(PID.TID 0000.0001) %MON dynstat_salt_del2            =   1.0040060085112E-03
(PID.TID 0000.0001) %MON forcing_qnet_max             =   2.5831548769935E+02
(PID.TID 0000.0001) %MON forcing_qnet_min             =  -1.7711183959068E+02
(PID.TID 0000.0001) %MON forcing_qnet_mean            =  -2.2000230223660E+00
(PID.TID 0000.0001) %MON forcing_qnet_sd              =   5.4013286575424E+01
(PID.TID 0000.0001) %MON forcing_qnet_del2            =   4.2321284728114E-01
(PID.TID 0000.0001) %MON forcing_qsw_max              =   0.0000000000000E+00
(PID.TID 0000.0001) %MON forcing_qsw_min              =   0.0000000000000E+00
(PID.TID 0000.0001) %MON forcing_qsw_mean             =   0.0000000000000E+00
(PID.TID 0000.0001) %MON forcing_qsw_sd               =   0.0000000000000E+00
(PID.TID 0000.0001) %MON forcing_qsw_del2             =   0.0000000000000E+00
(PID.TID 0000.0001) %MON forcing_empmr_max            =   7.6494447208479E-05
(PID.TID 0000.0001) %MON forcing_empmr_min            =  -1.5362614137596E-04
(PID.TID 0000.0001) %MON forcing_empmr_mean           =  -2.7256318706594E-21
(PID.TID 0000.0001) %MON forcing_empmr_sd             =   2.4051723601802E-05
(PID.TID 0000.0001) %MON forcing_empmr_del2           =   1.2276157049243E-07
(PID.TID 0000.0001) %MON forcing_fu_max               =   2.6643568027634E-01
(PID.TID 0000.0001) %MON forcing_fu_min               =  -3.2484514575530E-01
(PID.TID 0000.0001) %MON forcing_fu_mean              =  -8.6046156021580E-03
(PID.TID 0000.0001) %MON forcing_fu_sd                =   7.1623035383705E-02
(PID.TID 0000.0001) %MON forcing_fu_del2              =   2.0334094197389E-04
(PID.TID 0000.0001) %MON forcing_fv_max               =   2.0001411394083E-01
(PID.TID 0000.0001) %MON forcing_fv_min               =  -3.2442472981373E-01
(PID.TID 0000.0001) %MON forcing_fv_mean              =  -1.2827574480664E-02
(PID.TID 0000.0001) %MON forcing_fv_sd                =   7.4837413411441E-02
(PID.TID 0000.0001) %MON forcing_fv_del2              =   2.2208242510170E-04
(PID.TID 0000.0001) %MON trAdv_CFL_u_max              =   8.2670638654554E-02
(PID.TID 0000.0001) %MON trAdv_CFL_v_max              =   8.2915718621987E-02
(PID.TID 0000.0001) %MON trAdv_CFL_w_max              =   9.6162166272258E-02
(PID.TID 0000.0001) %MON advcfl_uvel_max              =   6.9457622847951E-02
(PID.TID 0000.0001) %MON advcfl_vvel_max              =   7.3868761395056E-02
(PID.TID 0000.0001) %MON advcfl_wvel_max              =   6.7229530571216E-02
(PID.TID 0000.0001) %MON advcfl_W_hf_max              =   7.4232606672385E-02
(PID.TID 0000.0001) %MON pe_b_mean                    =   5.2560700339929E-04
(PID.TID 0000.0001) %MON ke_max                       =   3.3267714684154E-02
(PID.TID 0000.0001) %MON ke_mean                      =   1.5963779332801E-04
(PID.TID 0000.0001) %MON ke_vol                       =   1.3398024453628E+18
(PID.TID 0000.0001) %MON vort_r_min                   =  -1.1435156139316E-06
(PID.TID 0000.0001) %MON vort_r_max                   =   1.2518513127286E-06
(PID.TID 0000.0001) %MON vort_a_mean                  =  -2.0549865324846E-05
(PID.TID 0000.0001) %MON vort_a_sd                    =   7.5259624812906E-05
(PID.TID 0000.0001) %MON vort_p_mean                  =  -2.4783522345032E-05
(PID.TID 0000.0001) %MON vort_p_sd                    =   1.2810594421215E-04
(PID.TID 0000.0001) %MON surfExpan_theta_mean         =   5.4825750117599E-08
(PID.TID 0000.0001) %MON surfExpan_salt_mean          =   1.5622383815197E-08
(PID.TID 0000.0001) // =======================================================
(PID.TID 0000.0001) // End MONITOR dynamic field statistics
(PID.TID 0000.0001) // =======================================================
(PID.TID 0000.0001) // =======================================================
(PID.TID 0000.0001) // Begin MONITOR ptracer field statistics
(PID.TID 0000.0001) // =======================================================
(PID.TID 0000.0001) %MON trcstat_ptracer01_max        =   1.0346697136552E+08
(PID.TID 0000.0001) %MON trcstat_ptracer01_min        =  -2.4910219929578E+06
(PID.TID 0000.0001) %MON trcstat_ptracer01_mean       =   9.7678212281229E+07
(PID.TID 0000.0001) %MON trcstat_ptracer01_sd         =   1.4523266818254E+07
(PID.TID 0000.0001) %MON trcstat_ptracer01_del2       =   2.7061298534255E+04
(PID.TID 0000.0001) // =======================================================
(PID.TID 0000.0001) // End MONITOR ptracer field statistics
(PID.TID 0000.0001) // =======================================================
 Computing Diagnostic #    79 "DRHODR  " (list#  1) Parms "SM      LR      ", Count=      10
 Computing Diagnostic #    64 "RHOAnoma" (list#  1) Parms "SMR     MR      ", Count=      10
 Computing Diagnostic #    80 "CONVADJ " (list#  1) Parms "SMR     LR      ", Count=      10
 Computing Diagnostic #   210 "GM_Kwx  " (list#  1) Parms "UM      LR      ", Count=      10
             Vector  Mate for "GM_Kwx  " :  Diagnostic #    211 "GM_Kwy  " exists
 Computing Diagnostic #   211 "GM_Kwy  " (list#  1) Parms "VM      LR      ", Count=      10
             Vector  Mate for "GM_Kwy  " :  Diagnostic #    210 "GM_Kwx  " exists
 Computing Diagnostic #   212 "GM_Kwz  " (list#  1) Parms "WM P    LR      ", Count=      10
 Computing Diagnostic #   213 "GM_PsiX " (list#  1) Parms "UU      LR      ", Count=      10
             Vector  Mate for "GM_PsiX " :  Diagnostic #    214 "GM_PsiY " exists
 Computing Diagnostic #   214 "GM_PsiY " (list#  1) Parms "VV      LR      ", Count=      10
             Vector  Mate for "GM_PsiY " :  Diagnostic #    213 "GM_PsiX " exists
 EXTERNAL_FIELDS_LOAD,      1170 : iP,iLd,i0,i1=    3    4    3    4 ; Wght=  0.5000000000  0.5000000000
 cg2d: Sum(rhs),rhsMax =   8.52651282912120E-14  5.17096479857281E+00
 EXTERNAL_FIELDS_LOAD,      1171 : iP,iLd,i0,i1=    3    4    3    4 ; Wght=  0.4666666667  0.5333333333
 cg2d: Sum(rhs),rhsMax =   8.52651282912120E-14  5.17616607035549E+00
 EXTERNAL_FIELDS_LOAD,      1172 : iP,iLd,i0,i1=    3    4    3    4 ; Wght=  0.4333333333  0.5666666667
 cg2d: Sum(rhs),rhsMax =  -8.52651282912120E-14  5.18149228289857E+00
 EXTERNAL_FIELDS_LOAD,      1173 : iP,iLd,i0,i1=    3    4    3    4 ; Wght=  0.4000000000  0.6000000000
 cg2d: Sum(rhs),rhsMax =  -1.70530256582424E-13  5.18690503419338E+00
 EXTERNAL_FIELDS_LOAD,      1174 : iP,iLd,i0,i1=    3    4    3    4 ; Wght=  0.3666666667  0.6333333333
 cg2d: Sum(rhs),rhsMax =  -3.69482222595252E-13  5.19236514633975E+00
 EXTERNAL_FIELDS_LOAD,      1175 : iP,iLd,i0,i1=    3    4    3    4 ; Wght=  0.3333333333  0.6666666667
 cg2d: Sum(rhs),rhsMax =  -2.84217094304040E-14  5.19783335460411E+00
 Compute Stats, Diag. #    23 "ETAN    " (list#  1) Parms "SM      M1      ", vol(  0 )= 3.639E+14
 Compute Stats, Diag. #    30 "UVEL    " (list#  1) Parms "UUR     MR      ", vol(  0 )= 1.231E+18
 Compute Stats, Diag. #    31 "VVEL    " (list#  1) Parms "VVR     MR      ", vol(  0 )= 1.243E+18
 Compute Stats, Diag. #    32 "WVEL    " (list#  1) Parms "WM      LR      ", vol(  0 )= 1.315E+18
 Compute Stats, Diag. #    26 "THETA   " (list#  1) Parms "SMR     MR      ", vol(  0 )= 1.340E+18
 EXTERNAL_FIELDS_LOAD,      1176 : iP,iLd,i0,i1=    3    4    3    4 ; Wght=  0.3000000000  0.7000000000
 cg2d: Sum(rhs),rhsMax =  -2.84217094304040E-13  5.20327107789632E+00
 EXTERNAL_FIELDS_LOAD,      1177 : iP,iLd,i0,i1=    3    4    3    4 ; Wght=  0.2666666667  0.7333333333
 cg2d: Sum(rhs),rhsMax =  -1.42108547152020E-13  5.20864119549582E+00
 EXTERNAL_FIELDS_LOAD,      1178 : iP,iLd,i0,i1=    3    4    3    4 ; Wght=  0.2333333333  0.7666666667
 cg2d: Sum(rhs),rhsMax =  -2.55795384873636E-13  5.21390838820480E+00
 EXTERNAL_FIELDS_LOAD,      1179 : iP,iLd,i0,i1=    3    4    3    4 ; Wght=  0.2000000000  0.8000000000
 cg2d: Sum(rhs),rhsMax =  -1.13686837721616E-13  5.21903957833505E+00
 Computing Diagnostic #    79 "DRHODR  " (list#  1) Parms "SM      LR      ", Count=      10
 Computing Diagnostic #    64 "RHOAnoma" (list#  1) Parms "SMR     MR      ", Count=      10
 Computing Diagnostic #    80 "CONVADJ " (list#  1) Parms "SMR     LR      ", Count=      10
 Computing Diagnostic #   210 "GM_Kwx  " (list#  1) Parms "UM      LR      ", Count=      10
             Vector  Mate for "GM_Kwx  " :  Diagnostic #    211 "GM_Kwy  " exists
 Computing Diagnostic #   211 "GM_Kwy  " (list#  1) Parms "VM      LR      ", Count=      10
             Vector  Mate for "GM_Kwy  " :  Diagnostic #    210 "GM_Kwx  " exists
 Computing Diagnostic #   212 "GM_Kwz  " (list#  1) Parms "WM P    LR      ", Count=      10
 Computing Diagnostic #   213 "GM_PsiX " (list#  1) Parms "UU      LR      ", Count=      10
             Vector  Mate for "GM_PsiX " :  Diagnostic #    214 "GM_PsiY " exists
 Computing Diagnostic #   214 "GM_PsiY " (list#  1) Parms "VV      LR      ", Count=      10
             Vector  Mate for "GM_PsiY " :  Diagnostic #    213 "GM_PsiX " exists
 EXTERNAL_FIELDS_LOAD,      1180 : iP,iLd,i0,i1=    3    4    3    4 ; Wght=  0.1666666667  0.8333333333
 cg2d: Sum(rhs),rhsMax =  -2.27373675443232E-13  5.22400429178751E+00
 EXTERNAL_FIELDS_LOAD,      1181 : iP,iLd,i0,i1=    3    4    3    4 ; Wght=  0.1333333333  0.8666666667
 cg2d: Sum(rhs),rhsMax =  -3.97903932025656E-13  5.22877476804939E+00
 EXTERNAL_FIELDS_LOAD,      1182 : iP,iLd,i0,i1=    3    4    3    4 ; Wght=  0.1000000000  0.9000000000
 cg2d: Sum(rhs),rhsMax =  -3.69482222595252E-13  5.23332587864573E+00
 EXTERNAL_FIELDS_LOAD,      1183 : iP,iLd,i0,i1=    3    4    3    4 ; Wght=  0.0666666667  0.9333333333
 cg2d: Sum(rhs),rhsMax =  -3.41060513164848E-13  5.23763569399908E+00
 EXTERNAL_FIELDS_LOAD,      1184 : iP,iLd,i0,i1=    3    4    3    4 ; Wght=  0.0333333333  0.9666666667
 cg2d: Sum(rhs),rhsMax =   5.68434188608080E-14  5.24168446115891E+00
 EXTERNAL_FIELDS_LOAD,      1185 : iP,iLd,i0,i1=    3    4    4    5 ; Wght=  1.0000000000  0.0000000000
 EXTERNAL_FIELDS_LOAD, it=      1185 : Reading new data, i0,i1=    4    5 (prev=    3    4 )
(PID.TID 0000.0001)  MDS_READ_FIELD: opening global file: trenberth_taux.bin
(PID.TID 0000.0001)  MDS_READ_FIELD: opening global file: trenberth_taux.bin
(PID.TID 0000.0001)  MDS_READ_FIELD: opening global file: trenberth_tauy.bin
(PID.TID 0000.0001)  MDS_READ_FIELD: opening global file: trenberth_tauy.bin
(PID.TID 0000.0001)  MDS_READ_FIELD: opening global file: shiQnet_cs32.bin
(PID.TID 0000.0001)  MDS_READ_FIELD: opening global file: shiQnet_cs32.bin
(PID.TID 0000.0001)  MDS_READ_FIELD: opening global file: shiEmPR_cs32.bin
(PID.TID 0000.0001)  MDS_READ_FIELD: opening global file: shiEmPR_cs32.bin
(PID.TID 0000.0001)  MDS_READ_FIELD: opening global file: lev_surfT_cs_12m.bin
(PID.TID 0000.0001)  MDS_READ_FIELD: opening global file: lev_surfT_cs_12m.bin
(PID.TID 0000.0001)  MDS_READ_FIELD: opening global file: lev_surfS_cs_12m.bin
(PID.TID 0000.0001)  MDS_READ_FIELD: opening global file: lev_surfS_cs_12m.bin
 cg2d: Sum(rhs),rhsMax =  -1.13686837721616E-13  5.24545427330161E+00
 Compute Stats, Diag. #    23 "ETAN    " (list#  1) Parms "SM      M1      ", vol(  0 )= 3.639E+14
 Compute Stats, Diag. #    30 "UVEL    " (list#  1) Parms "UUR     MR      ", vol(  0 )= 1.231E+18
 Compute Stats, Diag. #    31 "VVEL    " (list#  1) Parms "VVR     MR      ", vol(  0 )= 1.243E+18
 Compute Stats, Diag. #    32 "WVEL    " (list#  1) Parms "WM      LR      ", vol(  0 )= 1.315E+18
 Compute Stats, Diag. #    26 "THETA   " (list#  1) Parms "SMR     MR      ", vol(  0 )= 1.340E+18
 EXTERNAL_FIELDS_LOAD,      1186 : iP,iLd,i0,i1=    4    5    4    5 ; Wght=  0.9666666667  0.0333333333
 cg2d: Sum(rhs),rhsMax =  -4.26325641456060E-13  5.24880043872257E+00
 EXTERNAL_FIELDS_LOAD,      1187 : iP,iLd,i0,i1=    4    5    4    5 ; Wght=  0.9333333333  0.0666666667
 cg2d: Sum(rhs),rhsMax =   0.00000000000000E+00  5.25187513056851E+00
 EXTERNAL_FIELDS_LOAD,      1188 : iP,iLd,i0,i1=    4    5    4    5 ; Wght=  0.9000000000  0.1000000000
 cg2d: Sum(rhs),rhsMax =   5.68434188608080E-14  5.25463781980018E+00
 EXTERNAL_FIELDS_LOAD,      1189 : iP,iLd,i0,i1=    4    5    4    5 ; Wght=  0.8666666667  0.1333333333
 cg2d: Sum(rhs),rhsMax =  -1.98951966012828E-13  5.25706273175690E+00
 Computing Diagnostic #    79 "DRHODR  " (list#  1) Parms "SM      LR      ", Count=      10
 Computing Diagnostic #    64 "RHOAnoma" (list#  1) Parms "SMR     MR      ", Count=      10
 Computing Diagnostic #    80 "CONVADJ " (list#  1) Parms "SMR     LR      ", Count=      10
 Computing Diagnostic #   210 "GM_Kwx  " (list#  1) Parms "UM      LR      ", Count=      10
             Vector  Mate for "GM_Kwx  " :  Diagnostic #    211 "GM_Kwy  " exists
 Computing Diagnostic #   211 "GM_Kwy  " (list#  1) Parms "VM      LR      ", Count=      10
             Vector  Mate for "GM_Kwy  " :  Diagnostic #    210 "GM_Kwx  " exists
 Computing Diagnostic #   212 "GM_Kwz  " (list#  1) Parms "WM P    LR      ", Count=      10
 Computing Diagnostic #   213 "GM_PsiX " (list#  1) Parms "UU      LR      ", Count=      10
             Vector  Mate for "GM_PsiX " :  Diagnostic #    214 "GM_PsiY " exists
 Computing Diagnostic #   214 "GM_PsiY " (list#  1) Parms "VV      LR      ", Count=      10
             Vector  Mate for "GM_PsiY " :  Diagnostic #    213 "GM_PsiX " exists
 EXTERNAL_FIELDS_LOAD,      1190 : iP,iLd,i0,i1=    4    5    4    5 ; Wght=  0.8333333333  0.1666666667
 cg2d: Sum(rhs),rhsMax =  -1.42108547152020E-13  5.25912242288053E+00
 EXTERNAL_FIELDS_LOAD,      1191 : iP,iLd,i0,i1=    4    5    4    5 ; Wght=  0.8000000000  0.2000000000
 cg2d: Sum(rhs),rhsMax =  -2.84217094304040E-13  5.26079339423719E+00
 EXTERNAL_FIELDS_LOAD,      1192 : iP,iLd,i0,i1=    4    5    4    5 ; Wght=  0.7666666667  0.2333333333
 cg2d: Sum(rhs),rhsMax =  -1.70530256582424E-13  5.26206027360249E+00
 EXTERNAL_FIELDS_LOAD,      1193 : iP,iLd,i0,i1=    4    5    4    5 ; Wght=  0.7333333333  0.2666666667
 cg2d: Sum(rhs),rhsMax =  -8.52651282912120E-14  5.26292983996742E+00
 EXTERNAL_FIELDS_LOAD,      1194 : iP,iLd,i0,i1=    4    5    4    5 ; Wght=  0.7000000000  0.3000000000
 cg2d: Sum(rhs),rhsMax =  -5.68434188608080E-14  5.26345726411477E+00
 EXTERNAL_FIELDS_LOAD,      1195 : iP,iLd,i0,i1=    4    5    4    5 ; Wght=  0.6666666667  0.3333333333
 cg2d: Sum(rhs),rhsMax =  -5.68434188608080E-14  5.26375625721703E+00
 Compute Stats, Diag. #    23 "ETAN    " (list#  1) Parms "SM      M1      ", vol(  0 )= 3.639E+14
 Compute Stats, Diag. #    30 "UVEL    " (list#  1) Parms "UUR     MR      ", vol(  0 )= 1.231E+18
 Compute Stats, Diag. #    31 "VVEL    " (list#  1) Parms "VVR     MR      ", vol(  0 )= 1.243E+18
 Compute Stats, Diag. #    32 "WVEL    " (list#  1) Parms "WM      LR      ", vol(  0 )= 1.315E+18
 Compute Stats, Diag. #    26 "THETA   " (list#  1) Parms "SMR     MR      ", vol(  0 )= 1.340E+18
 EXTERNAL_FIELDS_LOAD,      1196 : iP,iLd,i0,i1=    4    5    4    5 ; Wght=  0.6333333333  0.3666666667
 cg2d: Sum(rhs),rhsMax =   5.68434188608080E-14  5.26392868185994E+00
 EXTERNAL_FIELDS_LOAD,      1197 : iP,iLd,i0,i1=    4    5    4    5 ; Wght=  0.6000000000  0.4000000000
 cg2d: Sum(rhs),rhsMax =  -2.55795384873636E-13  5.26402103805814E+00
 EXTERNAL_FIELDS_LOAD,      1198 : iP,iLd,i0,i1=    4    5    4    5 ; Wght=  0.5666666667  0.4333333333
 cg2d: Sum(rhs),rhsMax =  -1.98951966012828E-13  5.26400695513926E+00
 EXTERNAL_FIELDS_LOAD,      1199 : iP,iLd,i0,i1=    4    5    4    5 ; Wght=  0.5333333333  0.4666666667
 cg2d: Sum(rhs),rhsMax =  -1.13686837721616E-13  5.26387986433522E+00
(PID.TID 0000.0001)      cg2d_init_res =   1.37998354094322E-01
(PID.TID 0000.0001)      cg2d_iters(min,last) =      -1      63
(PID.TID 0000.0001)      cg2d_last_res =   4.86690332769888E-07
(PID.TID 0000.0001) // =======================================================
(PID.TID 0000.0001) // Begin MONITOR dynamic field statistics
(PID.TID 0000.0001) // =======================================================
(PID.TID 0000.0001) %MON time_tsnumber                =                  1200
(PID.TID 0000.0001) %MON time_secondsf                =   1.0368000000000E+08
(PID.TID 0000.0001) %MON dynstat_eta_max              =   9.1735894241565E-01
(PID.TID 0000.0001) %MON dynstat_eta_min              =  -1.8539459281534E+00
(PID.TID 0000.0001) %MON dynstat_eta_mean             =   4.2595671681088E-16
(PID.TID 0000.0001) %MON dynstat_eta_sd               =   6.3019710273830E-01
(PID.TID 0000.0001) %MON dynstat_eta_del2             =   8.7724658135205E-04
(PID.TID 0000.0001) %MON dynstat_uvel_max             =   1.8078331312883E-01
(PID.TID 0000.0001) %MON dynstat_uvel_min             =  -2.3405065302832E-01
(PID.TID 0000.0001) %MON dynstat_uvel_mean            =  -4.8556658897280E-04
(PID.TID 0000.0001) %MON dynstat_uvel_sd              =   1.3012464139461E-02
(PID.TID 0000.0001) %MON dynstat_uvel_del2            =   5.5278768228807E-05
(PID.TID 0000.0001) %MON dynstat_vvel_max             =   1.9469875397811E-01
(PID.TID 0000.0001) %MON dynstat_vvel_min             =  -2.0022387448180E-01
(PID.TID 0000.0001) %MON dynstat_vvel_mean            =  -3.7660485783266E-04
(PID.TID 0000.0001) %MON dynstat_vvel_sd              =   1.3303621567188E-02
(PID.TID 0000.0001) %MON dynstat_vvel_del2            =   5.4354976922609E-05
(PID.TID 0000.0001) %MON dynstat_wvel_max             =   1.1595903124544E-04
(PID.TID 0000.0001) %MON dynstat_wvel_min             =  -2.0618048405700E-04
(PID.TID 0000.0001) %MON dynstat_wvel_mean            =  -4.6416248876558E-23
(PID.TID 0000.0001) %MON dynstat_wvel_sd              =   4.3129296639885E-06
(PID.TID 0000.0001) %MON dynstat_wvel_del2            =   3.4006813432610E-08
(PID.TID 0000.0001) %MON dynstat_theta_max            =   3.1517941647453E+01
(PID.TID 0000.0001) %MON dynstat_theta_min            =  -7.0594091179355E+00
(PID.TID 0000.0001) %MON dynstat_theta_mean           =   3.6125445046354E+00
(PID.TID 0000.0001) %MON dynstat_theta_sd             =   4.4335098278644E+00
(PID.TID 0000.0001) %MON dynstat_theta_del2           =   3.0946461683867E-03
(PID.TID 0000.0001) %MON dynstat_salt_max             =   4.1281737515419E+01
(PID.TID 0000.0001) %MON dynstat_salt_min             =   1.8639131205739E+01
(PID.TID 0000.0001) %MON dynstat_salt_mean            =   3.4721391857507E+01
(PID.TID 0000.0001) %MON dynstat_salt_sd              =   4.9605451489680E-01
(PID.TID 0000.0001) %MON dynstat_salt_del2            =   9.9522046720263E-04
(PID.TID 0000.0001) %MON forcing_qnet_max             =   2.1934515500016E+02
(PID.TID 0000.0001) %MON forcing_qnet_min             =  -1.6486040907681E+02
(PID.TID 0000.0001) %MON forcing_qnet_mean            =   8.9314966133584E+00
(PID.TID 0000.0001) %MON forcing_qnet_sd              =   6.7768604997073E+01
(PID.TID 0000.0001) %MON forcing_qnet_del2            =   3.9934967955079E-01
(PID.TID 0000.0001) %MON forcing_qsw_max              =   0.0000000000000E+00
(PID.TID 0000.0001) %MON forcing_qsw_min              =   0.0000000000000E+00
(PID.TID 0000.0001) %MON forcing_qsw_mean             =   0.0000000000000E+00
(PID.TID 0000.0001) %MON forcing_qsw_sd               =   0.0000000000000E+00
(PID.TID 0000.0001) %MON forcing_qsw_del2             =   0.0000000000000E+00
(PID.TID 0000.0001) %MON forcing_empmr_max            =   7.6494447208479E-05
(PID.TID 0000.0001) %MON forcing_empmr_min            =  -1.5362614137596E-04
(PID.TID 0000.0001) %MON forcing_empmr_mean           =  -2.7256318706594E-21
(PID.TID 0000.0001) %MON forcing_empmr_sd             =   2.4051723601802E-05
(PID.TID 0000.0001) %MON forcing_empmr_del2           =   1.2276157049243E-07
(PID.TID 0000.0001) %MON forcing_fu_max               =   2.6376707634895E-01
(PID.TID 0000.0001) %MON forcing_fu_min               =  -3.5181701991123E-01
(PID.TID 0000.0001) %MON forcing_fu_mean              =  -9.1725361907261E-03
(PID.TID 0000.0001) %MON forcing_fu_sd                =   7.3147688306408E-02
(PID.TID 0000.0001) %MON forcing_fu_del2              =   2.0151832318310E-04
(PID.TID 0000.0001) %MON forcing_fv_max               =   2.3362458312789E-01
(PID.TID 0000.0001) %MON forcing_fv_min               =  -3.0178655558957E-01
(PID.TID 0000.0001) %MON forcing_fv_mean              =  -1.1987018747997E-02
(PID.TID 0000.0001) %MON forcing_fv_sd                =   7.0322777084510E-02
(PID.TID 0000.0001) %MON forcing_fv_del2              =   2.0736000433565E-04
(PID.TID 0000.0001) %MON trAdv_CFL_u_max              =   9.3906078119892E-02
(PID.TID 0000.0001) %MON trAdv_CFL_v_max              =   9.2213262970744E-02
(PID.TID 0000.0001) %MON trAdv_CFL_w_max              =   7.9237544228161E-02
(PID.TID 0000.0001) %MON advcfl_uvel_max              =   7.1787049026392E-02
(PID.TID 0000.0001) %MON advcfl_vvel_max              =   8.4866443901307E-02
(PID.TID 0000.0001) %MON advcfl_wvel_max              =   6.7222618198207E-02
(PID.TID 0000.0001) %MON advcfl_W_hf_max              =   7.4224974260520E-02
(PID.TID 0000.0001) %MON pe_b_mean                    =   5.2907504468488E-04
(PID.TID 0000.0001) %MON ke_max                       =   3.1483997666854E-02
(PID.TID 0000.0001) %MON ke_mean                      =   1.6007306049324E-04
(PID.TID 0000.0001) %MON ke_vol                       =   1.3398024453628E+18
(PID.TID 0000.0001) %MON vort_r_min                   =  -1.0809226136082E-06
(PID.TID 0000.0001) %MON vort_r_max                   =   1.3466371871248E-06
(PID.TID 0000.0001) %MON vort_a_mean                  =  -2.0549865324846E-05
(PID.TID 0000.0001) %MON vort_a_sd                    =   7.5259628247898E-05
(PID.TID 0000.0001) %MON vort_p_mean                  =  -2.4783522345032E-05
(PID.TID 0000.0001) %MON vort_p_sd                    =   1.2810597917343E-04
(PID.TID 0000.0001) %MON surfExpan_theta_mean         =   6.2031070485461E-08
(PID.TID 0000.0001) %MON surfExpan_salt_mean          =   1.4902280991780E-08
(PID.TID 0000.0001) // =======================================================
(PID.TID 0000.0001) // End MONITOR dynamic field statistics
(PID.TID 0000.0001) // =======================================================
(PID.TID 0000.0001) // =======================================================
(PID.TID 0000.0001) // Begin MONITOR ptracer field statistics
(PID.TID 0000.0001) // =======================================================
(PID.TID 0000.0001) %MON trcstat_ptracer01_max        =   1.0618796919116E+08
(PID.TID 0000.0001) %MON trcstat_ptracer01_min        =  -2.9335339994225E+06
(PID.TID 0000.0001) %MON trcstat_ptracer01_mean       =   1.0015706991207E+08
(PID.TID 0000.0001) %MON trcstat_ptracer01_sd         =   1.4944764554976E+07
(PID.TID 0000.0001) %MON trcstat_ptracer01_del2       =   2.7647697149566E+04
(PID.TID 0000.0001) // =======================================================
(PID.TID 0000.0001) // End MONITOR ptracer field statistics
(PID.TID 0000.0001) // =======================================================
 Computing Diagnostic #    79 "DRHODR  " (list#  1) Parms "SM      LR      ", Count=      10
 Computing Diagnostic #    64 "RHOAnoma" (list#  1) Parms "SMR     MR      ", Count=      10
 Computing Diagnostic #    80 "CONVADJ " (list#  1) Parms "SMR     LR      ", Count=      10
 Computing Diagnostic #   210 "GM_Kwx  " (list#  1) Parms "UM      LR      ", Count=      10
             Vector  Mate for "GM_Kwx  " :  Diagnostic #    211 "GM_Kwy  " exists
 Computing Diagnostic #   211 "GM_Kwy  " (list#  1) Parms "VM      LR      ", Count=      10
             Vector  Mate for "GM_Kwy  " :  Diagnostic #    210 "GM_Kwx  " exists
 Computing Diagnostic #   212 "GM_Kwz  " (list#  1) Parms "WM P    LR      ", Count=      10
 Computing Diagnostic #   213 "GM_PsiX " (list#  1) Parms "UU      LR      ", Count=      10
             Vector  Mate for "GM_PsiX " :  Diagnostic #    214 "GM_PsiY " exists
 Computing Diagnostic #   214 "GM_PsiY " (list#  1) Parms "VV      LR      ", Count=      10
             Vector  Mate for "GM_PsiY " :  Diagnostic #    213 "GM_PsiX " exists
 EXTERNAL_FIELDS_LOAD,      1200 : iP,iLd,i0,i1=    4    5    4    5 ; Wght=  0.5000000000  0.5000000000
 cg2d: Sum(rhs),rhsMax =  -1.42108547152020E-13  5.26367000657624E+00
 EXTERNAL_FIELDS_LOAD,      1201 : iP,iLd,i0,i1=    4    5    4    5 ; Wght=  0.4666666667  0.5333333333
 cg2d: Sum(rhs),rhsMax =  -2.27373675443232E-13  5.26340750837894E+00
 EXTERNAL_FIELDS_LOAD,      1202 : iP,iLd,i0,i1=    4    5    4    5 ; Wght=  0.4333333333  0.5666666667
 cg2d: Sum(rhs),rhsMax =  -1.42108547152020E-13  5.26311760884457E+00
 EXTERNAL_FIELDS_LOAD,      1203 : iP,iLd,i0,i1=    4    5    4    5 ; Wght=  0.4000000000  0.6000000000
 cg2d: Sum(rhs),rhsMax =  -1.42108547152020E-13  5.26282174339189E+00
 EXTERNAL_FIELDS_LOAD,      1204 : iP,iLd,i0,i1=    4    5    4    5 ; Wght=  0.3666666667  0.6333333333
 cg2d: Sum(rhs),rhsMax =  -1.42108547152020E-13  5.26254002057262E+00
 EXTERNAL_FIELDS_LOAD,      1205 : iP,iLd,i0,i1=    4    5    4    5 ; Wght=  0.3333333333  0.6666666667
 cg2d: Sum(rhs),rhsMax =  -4.54747350886464E-13  5.26229020600097E+00
 Compute Stats, Diag. #    23 "ETAN    " (list#  1) Parms "SM      M1      ", vol(  0 )= 3.639E+14
 Compute Stats, Diag. #    30 "UVEL    " (list#  1) Parms "UUR     MR      ", vol(  0 )= 1.231E+18
 Compute Stats, Diag. #    31 "VVEL    " (list#  1) Parms "VVR     MR      ", vol(  0 )= 1.243E+18
 Compute Stats, Diag. #    32 "WVEL    " (list#  1) Parms "WM      LR      ", vol(  0 )= 1.315E+18
 Compute Stats, Diag. #    26 "THETA   " (list#  1) Parms "SMR     MR      ", vol(  0 )= 1.340E+18
 EXTERNAL_FIELDS_LOAD,      1206 : iP,iLd,i0,i1=    4    5    4    5 ; Wght=  0.3000000000  0.7000000000
 cg2d: Sum(rhs),rhsMax =  -1.42108547152020E-13  5.26208911704170E+00
 EXTERNAL_FIELDS_LOAD,      1207 : iP,iLd,i0,i1=    4    5    4    5 ; Wght=  0.2666666667  0.7333333333
 cg2d: Sum(rhs),rhsMax =  -3.41060513164848E-13  5.26195056947384E+00
 EXTERNAL_FIELDS_LOAD,      1208 : iP,iLd,i0,i1=    4    5    4    5 ; Wght=  0.2333333333  0.7666666667
 cg2d: Sum(rhs),rhsMax =   0.00000000000000E+00  5.26188719813005E+00
 EXTERNAL_FIELDS_LOAD,      1209 : iP,iLd,i0,i1=    4    5    4    5 ; Wght=  0.2000000000  0.8000000000
 cg2d: Sum(rhs),rhsMax =  -2.27373675443232E-13  5.26190752022073E+00
 Computing Diagnostic #    79 "DRHODR  " (list#  1) Parms "SM      LR      ", Count=      10
 Computing Diagnostic #    64 "RHOAnoma" (list#  1) Parms "SMR     MR      ", Count=      10
 Computing Diagnostic #    80 "CONVADJ " (list#  1) Parms "SMR     LR      ", Count=      10
 Computing Diagnostic #   210 "GM_Kwx  " (list#  1) Parms "UM      LR      ", Count=      10
             Vector  Mate for "GM_Kwx  " :  Diagnostic #    211 "GM_Kwy  " exists
 Computing Diagnostic #   211 "GM_Kwy  " (list#  1) Parms "VM      LR      ", Count=      10
             Vector  Mate for "GM_Kwy  " :  Diagnostic #    210 "GM_Kwx  " exists
 Computing Diagnostic #   212 "GM_Kwz  " (list#  1) Parms "WM P    LR      ", Count=      10
 Computing Diagnostic #   213 "GM_PsiX " (list#  1) Parms "UU      LR      ", Count=      10
             Vector  Mate for "GM_PsiX " :  Diagnostic #    214 "GM_PsiY " exists
 Computing Diagnostic #   214 "GM_PsiY " (list#  1) Parms "VV      LR      ", Count=      10
             Vector  Mate for "GM_PsiY " :  Diagnostic #    213 "GM_PsiX " exists
 EXTERNAL_FIELDS_LOAD,      1210 : iP,iLd,i0,i1=    4    5    4    5 ; Wght=  0.1666666667  0.8333333333
 cg2d: Sum(rhs),rhsMax =  -3.41060513164848E-13  5.26201884523157E+00
 EXTERNAL_FIELDS_LOAD,      1211 : iP,iLd,i0,i1=    4    5    4    5 ; Wght=  0.1333333333  0.8666666667
 cg2d: Sum(rhs),rhsMax =  -2.84217094304040E-14  5.26222487800873E+00
 EXTERNAL_FIELDS_LOAD,      1212 : iP,iLd,i0,i1=    4    5    4    5 ; Wght=  0.1000000000  0.9000000000
 cg2d: Sum(rhs),rhsMax =  -8.52651282912120E-14  5.26252863850638E+00
 EXTERNAL_FIELDS_LOAD,      1213 : iP,iLd,i0,i1=    4    5    4    5 ; Wght=  0.0666666667  0.9333333333
 cg2d: Sum(rhs),rhsMax =   1.70530256582424E-13  5.26292595746149E+00
 EXTERNAL_FIELDS_LOAD,      1214 : iP,iLd,i0,i1=    4    5    4    5 ; Wght=  0.0333333333  0.9666666667
 cg2d: Sum(rhs),rhsMax =  -2.84217094304040E-14  5.26341395521936E+00
 EXTERNAL_FIELDS_LOAD,      1215 : iP,iLd,i0,i1=    4    5    5    6 ; Wght=  1.0000000000  0.0000000000
 EXTERNAL_FIELDS_LOAD, it=      1215 : Reading new data, i0,i1=    5    6 (prev=    4    5 )
(PID.TID 0000.0001)  MDS_READ_FIELD: opening global file: trenberth_taux.bin
(PID.TID 0000.0001)  MDS_READ_FIELD: opening global file: trenberth_taux.bin
(PID.TID 0000.0001)  MDS_READ_FIELD: opening global file: trenberth_tauy.bin
(PID.TID 0000.0001)  MDS_READ_FIELD: opening global file: trenberth_tauy.bin
(PID.TID 0000.0001)  MDS_READ_FIELD: opening global file: shiQnet_cs32.bin
(PID.TID 0000.0001)  MDS_READ_FIELD: opening global file: shiQnet_cs32.bin
(PID.TID 0000.0001)  MDS_READ_FIELD: opening global file: shiEmPR_cs32.bin
(PID.TID 0000.0001)  MDS_READ_FIELD: opening global file: shiEmPR_cs32.bin
(PID.TID 0000.0001)  MDS_READ_FIELD: opening global file: lev_surfT_cs_12m.bin
(PID.TID 0000.0001)  MDS_READ_FIELD: opening global file: lev_surfT_cs_12m.bin
(PID.TID 0000.0001)  MDS_READ_FIELD: opening global file: lev_surfS_cs_12m.bin
(PID.TID 0000.0001)  MDS_READ_FIELD: opening global file: lev_surfS_cs_12m.bin
 cg2d: Sum(rhs),rhsMax =  -1.98951966012828E-13  5.26398595587076E+00
 Compute Stats, Diag. #    23 "ETAN    " (list#  1) Parms "SM      M1      ", vol(  0 )= 3.639E+14
 Compute Stats, Diag. #    30 "UVEL    " (list#  1) Parms "UUR     MR      ", vol(  0 )= 1.231E+18
 Compute Stats, Diag. #    31 "VVEL    " (list#  1) Parms "VVR     MR      ", vol(  0 )= 1.243E+18
 Compute Stats, Diag. #    32 "WVEL    " (list#  1) Parms "WM      LR      ", vol(  0 )= 1.315E+18
 Compute Stats, Diag. #    26 "THETA   " (list#  1) Parms "SMR     MR      ", vol(  0 )= 1.340E+18
 EXTERNAL_FIELDS_LOAD,      1216 : iP,iLd,i0,i1=    5    6    5    6 ; Wght=  0.9666666667  0.0333333333
 cg2d: Sum(rhs),rhsMax =  -3.12638803734444E-13  5.26477726132671E+00
 EXTERNAL_FIELDS_LOAD,      1217 : iP,iLd,i0,i1=    5    6    5    6 ; Wght=  0.9333333333  0.0666666667
 cg2d: Sum(rhs),rhsMax =  -5.68434188608080E-14  5.26560924860525E+00
 EXTERNAL_FIELDS_LOAD,      1218 : iP,iLd,i0,i1=    5    6    5    6 ; Wght=  0.9000000000  0.1000000000
 cg2d: Sum(rhs),rhsMax =  -3.12638803734444E-13  5.26649758401856E+00
 EXTERNAL_FIELDS_LOAD,      1219 : iP,iLd,i0,i1=    5    6    5    6 ; Wght=  0.8666666667  0.1333333333
 cg2d: Sum(rhs),rhsMax =   5.68434188608080E-14  5.26745456058484E+00
 Computing Diagnostic #    79 "DRHODR  " (list#  1) Parms "SM      LR      ", Count=      10
 Computing Diagnostic #    64 "RHOAnoma" (list#  1) Parms "SMR     MR      ", Count=      10
 Computing Diagnostic #    80 "CONVADJ " (list#  1) Parms "SMR     LR      ", Count=      10
 Computing Diagnostic #   210 "GM_Kwx  " (list#  1) Parms "UM      LR      ", Count=      10
             Vector  Mate for "GM_Kwx  " :  Diagnostic #    211 "GM_Kwy  " exists
 Computing Diagnostic #   211 "GM_Kwy  " (list#  1) Parms "VM      LR      ", Count=      10
             Vector  Mate for "GM_Kwy  " :  Diagnostic #    210 "GM_Kwx  " exists
 Computing Diagnostic #   212 "GM_Kwz  " (list#  1) Parms "WM P    LR      ", Count=      10
 Computing Diagnostic #   213 "GM_PsiX " (list#  1) Parms "UU      LR      ", Count=      10
             Vector  Mate for "GM_PsiX " :  Diagnostic #    214 "GM_PsiY " exists
 Computing Diagnostic #   214 "GM_PsiY " (list#  1) Parms "VV      LR      ", Count=      10
             Vector  Mate for "GM_PsiY " :  Diagnostic #    213 "GM_PsiX " exists
 EXTERNAL_FIELDS_LOAD,      1220 : iP,iLd,i0,i1=    5    6    5    6 ; Wght=  0.8333333333  0.1666666667
 cg2d: Sum(rhs),rhsMax =   0.00000000000000E+00  5.26848924830530E+00
 EXTERNAL_FIELDS_LOAD,      1221 : iP,iLd,i0,i1=    5    6    5    6 ; Wght=  0.8000000000  0.2000000000
 cg2d: Sum(rhs),rhsMax =  -3.41060513164848E-13  5.26960727160899E+00
 EXTERNAL_FIELDS_LOAD,      1222 : iP,iLd,i0,i1=    5    6    5    6 ; Wght=  0.7666666667  0.2333333333
 cg2d: Sum(rhs),rhsMax =  -1.42108547152020E-13  5.27081355275519E+00
 EXTERNAL_FIELDS_LOAD,      1223 : iP,iLd,i0,i1=    5    6    5    6 ; Wght=  0.7333333333  0.2666666667
 cg2d: Sum(rhs),rhsMax =  -2.84217094304040E-14  5.27211516912732E+00
 EXTERNAL_FIELDS_LOAD,      1224 : iP,iLd,i0,i1=    5    6    5    6 ; Wght=  0.7000000000  0.3000000000
 cg2d: Sum(rhs),rhsMax =  -3.12638803734444E-13  5.27351971781798E+00
 EXTERNAL_FIELDS_LOAD,      1225 : iP,iLd,i0,i1=    5    6    5    6 ; Wght=  0.6666666667  0.3333333333
 cg2d: Sum(rhs),rhsMax =  -1.13686837721616E-13  5.27503608049321E+00
 Compute Stats, Diag. #    23 "ETAN    " (list#  1) Parms "SM      M1      ", vol(  0 )= 3.639E+14
 Compute Stats, Diag. #    30 "UVEL    " (list#  1) Parms "UUR     MR      ", vol(  0 )= 1.231E+18
 Compute Stats, Diag. #    31 "VVEL    " (list#  1) Parms "VVR     MR      ", vol(  0 )= 1.243E+18
 Compute Stats, Diag. #    32 "WVEL    " (list#  1) Parms "WM      LR      ", vol(  0 )= 1.315E+18
 Compute Stats, Diag. #    26 "THETA   " (list#  1) Parms "SMR     MR      ", vol(  0 )= 1.340E+18
 EXTERNAL_FIELDS_LOAD,      1226 : iP,iLd,i0,i1=    5    6    5    6 ; Wght=  0.6333333333  0.3666666667
 cg2d: Sum(rhs),rhsMax =  -2.27373675443232E-13  5.27666863986792E+00
 EXTERNAL_FIELDS_LOAD,      1227 : iP,iLd,i0,i1=    5    6    5    6 ; Wght=  0.6000000000  0.4000000000
 cg2d: Sum(rhs),rhsMax =  -8.52651282912120E-14  5.27842096192578E+00
 EXTERNAL_FIELDS_LOAD,      1228 : iP,iLd,i0,i1=    5    6    5    6 ; Wght=  0.5666666667  0.4333333333
 cg2d: Sum(rhs),rhsMax =  -1.70530256582424E-13  5.28028648205796E+00
 EXTERNAL_FIELDS_LOAD,      1229 : iP,iLd,i0,i1=    5    6    5    6 ; Wght=  0.5333333333  0.4666666667
 cg2d: Sum(rhs),rhsMax =  -4.26325641456060E-13  5.28226300205575E+00
(PID.TID 0000.0001)      cg2d_init_res =   1.42770151815039E-01
(PID.TID 0000.0001)      cg2d_iters(min,last) =      -1      62
(PID.TID 0000.0001)      cg2d_last_res =   5.17519618121510E-07
(PID.TID 0000.0001) // =======================================================
(PID.TID 0000.0001) // Begin MONITOR dynamic field statistics
(PID.TID 0000.0001) // =======================================================
(PID.TID 0000.0001) %MON time_tsnumber                =                  1230
(PID.TID 0000.0001) %MON time_secondsf                =   1.0627200000000E+08
(PID.TID 0000.0001) %MON dynstat_eta_max              =   9.5095001306364E-01
(PID.TID 0000.0001) %MON dynstat_eta_min              =  -1.8591446851527E+00
(PID.TID 0000.0001) %MON dynstat_eta_mean             =   3.4351348129910E-16
(PID.TID 0000.0001) %MON dynstat_eta_sd               =   6.2968331027867E-01
(PID.TID 0000.0001) %MON dynstat_eta_del2             =   8.7102881688945E-04
(PID.TID 0000.0001) %MON dynstat_uvel_max             =   1.8265272678935E-01
(PID.TID 0000.0001) %MON dynstat_uvel_min             =  -2.2940459117704E-01
(PID.TID 0000.0001) %MON dynstat_uvel_mean            =  -4.8907776893308E-04
(PID.TID 0000.0001) %MON dynstat_uvel_sd              =   1.3112002698088E-02
(PID.TID 0000.0001) %MON dynstat_uvel_del2            =   5.5247145706874E-05
(PID.TID 0000.0001) %MON dynstat_vvel_max             =   1.8319658092567E-01
(PID.TID 0000.0001) %MON dynstat_vvel_min             =  -1.9778741922324E-01
(PID.TID 0000.0001) %MON dynstat_vvel_mean            =  -3.7830703117170E-04
(PID.TID 0000.0001) %MON dynstat_vvel_sd              =   1.3249786588361E-02
(PID.TID 0000.0001) %MON dynstat_vvel_del2            =   5.3741442426196E-05
(PID.TID 0000.0001) %MON dynstat_wvel_max             =   1.1438476067450E-04
(PID.TID 0000.0001) %MON dynstat_wvel_min             =  -2.1465749631355E-04
(PID.TID 0000.0001) %MON dynstat_wvel_mean            =   5.0767772208735E-23
(PID.TID 0000.0001) %MON dynstat_wvel_sd              =   4.3879862430467E-06
(PID.TID 0000.0001) %MON dynstat_wvel_del2            =   3.3426345893655E-08
(PID.TID 0000.0001) %MON dynstat_theta_max            =   3.1774219067288E+01
(PID.TID 0000.0001) %MON dynstat_theta_min            =  -7.1030571642207E+00
(PID.TID 0000.0001) %MON dynstat_theta_mean           =   3.6105281589596E+00
(PID.TID 0000.0001) %MON dynstat_theta_sd             =   4.4262549057644E+00
(PID.TID 0000.0001) %MON dynstat_theta_del2           =   3.0439758645845E-03
(PID.TID 0000.0001) %MON dynstat_salt_max             =   4.1286608256912E+01
(PID.TID 0000.0001) %MON dynstat_salt_min             =   1.8657368074347E+01
(PID.TID 0000.0001) %MON dynstat_salt_mean            =   3.4721434437102E+01
(PID.TID 0000.0001) %MON dynstat_salt_sd              =   4.9596246479618E-01
(PID.TID 0000.0001) %MON dynstat_salt_del2            =   9.8344062892440E-04
(PID.TID 0000.0001) %MON forcing_qnet_max             =   2.1306198854283E+02
(PID.TID 0000.0001) %MON forcing_qnet_min             =  -1.8612587055834E+02
(PID.TID 0000.0001) %MON forcing_qnet_mean            =   1.7779209533326E+01
(PID.TID 0000.0001) %MON forcing_qnet_sd              =   8.6039549543257E+01
(PID.TID 0000.0001) %MON forcing_qnet_del2            =   3.9274976073871E-01
(PID.TID 0000.0001) %MON forcing_qsw_max              =   0.0000000000000E+00
(PID.TID 0000.0001) %MON forcing_qsw_min              =   0.0000000000000E+00
(PID.TID 0000.0001) %MON forcing_qsw_mean             =   0.0000000000000E+00
(PID.TID 0000.0001) %MON forcing_qsw_sd               =   0.0000000000000E+00
(PID.TID 0000.0001) %MON forcing_qsw_del2             =   0.0000000000000E+00
(PID.TID 0000.0001) %MON forcing_empmr_max            =   7.6494447208479E-05
(PID.TID 0000.0001) %MON forcing_empmr_min            =  -1.5362614137596E-04
(PID.TID 0000.0001) %MON forcing_empmr_mean           =  -2.7256318706594E-21
(PID.TID 0000.0001) %MON forcing_empmr_sd             =   2.4051723601802E-05
(PID.TID 0000.0001) %MON forcing_empmr_del2           =   1.2276157049243E-07
(PID.TID 0000.0001) %MON forcing_fu_max               =   2.7087502733075E-01
(PID.TID 0000.0001) %MON forcing_fu_min               =  -3.1157384005291E-01
(PID.TID 0000.0001) %MON forcing_fu_mean              =  -5.9802452710338E-03
(PID.TID 0000.0001) %MON forcing_fu_sd                =   7.3367932669566E-02
(PID.TID 0000.0001) %MON forcing_fu_del2              =   2.0043372226090E-04
(PID.TID 0000.0001) %MON forcing_fv_max               =   2.7394949129489E-01
(PID.TID 0000.0001) %MON forcing_fv_min               =  -2.9997476765686E-01
(PID.TID 0000.0001) %MON forcing_fv_mean              =  -8.5312903702452E-03
(PID.TID 0000.0001) %MON forcing_fv_sd                =   6.8612871399238E-02
(PID.TID 0000.0001) %MON forcing_fv_del2              =   2.1212490881227E-04
(PID.TID 0000.0001) %MON trAdv_CFL_u_max              =   8.3840351435323E-02
(PID.TID 0000.0001) %MON trAdv_CFL_v_max              =   1.4403433280599E-01
(PID.TID 0000.0001) %MON trAdv_CFL_w_max              =   1.3686242636344E-01
(PID.TID 0000.0001) %MON advcfl_uvel_max              =   7.2481859572040E-02
(PID.TID 0000.0001) %MON advcfl_vvel_max              =   7.5157388492521E-02
(PID.TID 0000.0001) %MON advcfl_wvel_max              =   6.9986444081097E-02
(PID.TID 0000.0001) %MON advcfl_W_hf_max              =   7.7276698672878E-02
(PID.TID 0000.0001) %MON pe_b_mean                    =   5.2821269874430E-04
(PID.TID 0000.0001) %MON ke_max                       =   3.0819125022087E-02
(PID.TID 0000.0001) %MON ke_mean                      =   1.6060635378221E-04
(PID.TID 0000.0001) %MON ke_vol                       =   1.3398024453628E+18
(PID.TID 0000.0001) %MON vort_r_min                   =  -9.8904212538594E-07
(PID.TID 0000.0001) %MON vort_r_max                   =   1.3515259841383E-06
(PID.TID 0000.0001) %MON vort_a_mean                  =  -2.0549865324846E-05
(PID.TID 0000.0001) %MON vort_a_sd                    =   7.5259628753279E-05
(PID.TID 0000.0001) %MON vort_p_mean                  =  -2.4783522345032E-05
(PID.TID 0000.0001) %MON vort_p_sd                    =   1.2810599917021E-04
(PID.TID 0000.0001) %MON surfExpan_theta_mean         =   5.3252464898702E-08
(PID.TID 0000.0001) %MON surfExpan_salt_mean          =   1.4061232535008E-08
(PID.TID 0000.0001) // =======================================================
(PID.TID 0000.0001) // End MONITOR dynamic field statistics
(PID.TID 0000.0001) // =======================================================
(PID.TID 0000.0001) // =======================================================
(PID.TID 0000.0001) // Begin MONITOR ptracer field statistics
(PID.TID 0000.0001) // =======================================================
(PID.TID 0000.0001) %MON trcstat_ptracer01_max        =   1.0832661136508E+08
(PID.TID 0000.0001) %MON trcstat_ptracer01_min        =  -5.4836959207449E+06
(PID.TID 0000.0001) %MON trcstat_ptracer01_mean       =   1.0264103481118E+08
(PID.TID 0000.0001) %MON trcstat_ptracer01_sd         =   1.5337749740017E+07
(PID.TID 0000.0001) %MON trcstat_ptracer01_del2       =   2.9324053692842E+04
(PID.TID 0000.0001) // =======================================================
(PID.TID 0000.0001) // End MONITOR ptracer field statistics
(PID.TID 0000.0001) // =======================================================
 Computing Diagnostic #    79 "DRHODR  " (list#  1) Parms "SM      LR      ", Count=      10
 Computing Diagnostic #    64 "RHOAnoma" (list#  1) Parms "SMR     MR      ", Count=      10
 Computing Diagnostic #    80 "CONVADJ " (list#  1) Parms "SMR     LR      ", Count=      10
 Computing Diagnostic #   210 "GM_Kwx  " (list#  1) Parms "UM      LR      ", Count=      10
             Vector  Mate for "GM_Kwx  " :  Diagnostic #    211 "GM_Kwy  " exists
 Computing Diagnostic #   211 "GM_Kwy  " (list#  1) Parms "VM      LR      ", Count=      10
             Vector  Mate for "GM_Kwy  " :  Diagnostic #    210 "GM_Kwx  " exists
 Computing Diagnostic #   212 "GM_Kwz  " (list#  1) Parms "WM P    LR      ", Count=      10
 Computing Diagnostic #   213 "GM_PsiX " (list#  1) Parms "UU      LR      ", Count=      10
             Vector  Mate for "GM_PsiX " :  Diagnostic #    214 "GM_PsiY " exists
 Computing Diagnostic #   214 "GM_PsiY " (list#  1) Parms "VV      LR      ", Count=      10
             Vector  Mate for "GM_PsiY " :  Diagnostic #    213 "GM_PsiX " exists
 EXTERNAL_FIELDS_LOAD,      1230 : iP,iLd,i0,i1=    5    6    5    6 ; Wght=  0.5000000000  0.5000000000
 cg2d: Sum(rhs),rhsMax =  -2.84217094304040E-13  5.28433186409171E+00
 EXTERNAL_FIELDS_LOAD,      1231 : iP,iLd,i0,i1=    5    6    5    6 ; Wght=  0.4666666667  0.5333333333
 cg2d: Sum(rhs),rhsMax =  -1.70530256582424E-13  5.28648909685757E+00
 EXTERNAL_FIELDS_LOAD,      1232 : iP,iLd,i0,i1=    5    6    5    6 ; Wght=  0.4333333333  0.5666666667
 cg2d: Sum(rhs),rhsMax =  -1.70530256582424E-13  5.28871102811667E+00
 EXTERNAL_FIELDS_LOAD,      1233 : iP,iLd,i0,i1=    5    6    5    6 ; Wght=  0.4000000000  0.6000000000
 cg2d: Sum(rhs),rhsMax =  -2.55795384873636E-13  5.29100072399456E+00
 EXTERNAL_FIELDS_LOAD,      1234 : iP,iLd,i0,i1=    5    6    5    6 ; Wght=  0.3666666667  0.6333333333
 cg2d: Sum(rhs),rhsMax =  -1.98951966012828E-13  5.29332781221590E+00
 EXTERNAL_FIELDS_LOAD,      1235 : iP,iLd,i0,i1=    5    6    5    6 ; Wght=  0.3333333333  0.6666666667
 cg2d: Sum(rhs),rhsMax =  -4.26325641456060E-13  5.29570611052525E+00
 Compute Stats, Diag. #    23 "ETAN    " (list#  1) Parms "SM      M1      ", vol(  0 )= 3.639E+14
 Compute Stats, Diag. #    30 "UVEL    " (list#  1) Parms "UUR     MR      ", vol(  0 )= 1.231E+18
 Compute Stats, Diag. #    31 "VVEL    " (list#  1) Parms "VVR     MR      ", vol(  0 )= 1.243E+18
 Compute Stats, Diag. #    32 "WVEL    " (list#  1) Parms "WM      LR      ", vol(  0 )= 1.315E+18
 Compute Stats, Diag. #    26 "THETA   " (list#  1) Parms "SMR     MR      ", vol(  0 )= 1.340E+18
 EXTERNAL_FIELDS_LOAD,      1236 : iP,iLd,i0,i1=    5    6    5    6 ; Wght=  0.3000000000  0.7000000000
 cg2d: Sum(rhs),rhsMax =  -1.70530256582424E-13  5.29809909583329E+00
 EXTERNAL_FIELDS_LOAD,      1237 : iP,iLd,i0,i1=    5    6    5    6 ; Wght=  0.2666666667  0.7333333333
 cg2d: Sum(rhs),rhsMax =  -3.41060513164848E-13  5.30053103866640E+00
 EXTERNAL_FIELDS_LOAD,      1238 : iP,iLd,i0,i1=    5    6    5    6 ; Wght=  0.2333333333  0.7666666667
 cg2d: Sum(rhs),rhsMax =  -1.13686837721616E-13  5.30295990002299E+00
 EXTERNAL_FIELDS_LOAD,      1239 : iP,iLd,i0,i1=    5    6    5    6 ; Wght=  0.2000000000  0.8000000000
 cg2d: Sum(rhs),rhsMax =  -1.13686837721616E-13  5.30542278301790E+00
 Computing Diagnostic #    79 "DRHODR  " (list#  1) Parms "SM      LR      ", Count=      10
 Computing Diagnostic #    64 "RHOAnoma" (list#  1) Parms "SMR     MR      ", Count=      10
 Computing Diagnostic #    80 "CONVADJ " (list#  1) Parms "SMR     LR      ", Count=      10
 Computing Diagnostic #   210 "GM_Kwx  " (list#  1) Parms "UM      LR      ", Count=      10
             Vector  Mate for "GM_Kwx  " :  Diagnostic #    211 "GM_Kwy  " exists
 Computing Diagnostic #   211 "GM_Kwy  " (list#  1) Parms "VM      LR      ", Count=      10
             Vector  Mate for "GM_Kwy  " :  Diagnostic #    210 "GM_Kwx  " exists
 Computing Diagnostic #   212 "GM_Kwz  " (list#  1) Parms "WM P    LR      ", Count=      10
 Computing Diagnostic #   213 "GM_PsiX " (list#  1) Parms "UU      LR      ", Count=      10
             Vector  Mate for "GM_PsiX " :  Diagnostic #    214 "GM_PsiY " exists
 Computing Diagnostic #   214 "GM_PsiY " (list#  1) Parms "VV      LR      ", Count=      10
             Vector  Mate for "GM_PsiY " :  Diagnostic #    213 "GM_PsiX " exists
 EXTERNAL_FIELDS_LOAD,      1240 : iP,iLd,i0,i1=    5    6    5    6 ; Wght=  0.1666666667  0.8333333333
 cg2d: Sum(rhs),rhsMax =  -1.70530256582424E-13  5.30786647776016E+00
 EXTERNAL_FIELDS_LOAD,      1241 : iP,iLd,i0,i1=    5    6    5    6 ; Wght=  0.1333333333  0.8666666667
 cg2d: Sum(rhs),rhsMax =   0.00000000000000E+00  5.31034383207334E+00
 EXTERNAL_FIELDS_LOAD,      1242 : iP,iLd,i0,i1=    5    6    5    6 ; Wght=  0.1000000000  0.9000000000
 cg2d: Sum(rhs),rhsMax =  -1.42108547152020E-13  5.31278379639206E+00
 EXTERNAL_FIELDS_LOAD,      1243 : iP,iLd,i0,i1=    5    6    5    6 ; Wght=  0.0666666667  0.9333333333
 cg2d: Sum(rhs),rhsMax =  -1.13686837721616E-13  5.31525995722004E+00
 EXTERNAL_FIELDS_LOAD,      1244 : iP,iLd,i0,i1=    5    6    5    6 ; Wght=  0.0333333333  0.9666666667
 cg2d: Sum(rhs),rhsMax =  -4.26325641456060E-13  5.31768883655419E+00
 EXTERNAL_FIELDS_LOAD,      1245 : iP,iLd,i0,i1=    5    6    6    7 ; Wght=  1.0000000000  0.0000000000
 EXTERNAL_FIELDS_LOAD, it=      1245 : Reading new data, i0,i1=    6    7 (prev=    5    6 )
(PID.TID 0000.0001)  MDS_READ_FIELD: opening global file: trenberth_taux.bin
(PID.TID 0000.0001)  MDS_READ_FIELD: opening global file: trenberth_taux.bin
(PID.TID 0000.0001)  MDS_READ_FIELD: opening global file: trenberth_tauy.bin
(PID.TID 0000.0001)  MDS_READ_FIELD: opening global file: trenberth_tauy.bin
(PID.TID 0000.0001)  MDS_READ_FIELD: opening global file: shiQnet_cs32.bin
(PID.TID 0000.0001)  MDS_READ_FIELD: opening global file: shiQnet_cs32.bin
(PID.TID 0000.0001)  MDS_READ_FIELD: opening global file: shiEmPR_cs32.bin
(PID.TID 0000.0001)  MDS_READ_FIELD: opening global file: shiEmPR_cs32.bin
(PID.TID 0000.0001)  MDS_READ_FIELD: opening global file: lev_surfT_cs_12m.bin
(PID.TID 0000.0001)  MDS_READ_FIELD: opening global file: lev_surfT_cs_12m.bin
(PID.TID 0000.0001)  MDS_READ_FIELD: opening global file: lev_surfS_cs_12m.bin
(PID.TID 0000.0001)  MDS_READ_FIELD: opening global file: lev_surfS_cs_12m.bin
 cg2d: Sum(rhs),rhsMax =  -8.52651282912120E-14  5.32015449861433E+00
 Compute Stats, Diag. #    23 "ETAN    " (list#  1) Parms "SM      M1      ", vol(  0 )= 3.639E+14
 Compute Stats, Diag. #    30 "UVEL    " (list#  1) Parms "UUR     MR      ", vol(  0 )= 1.231E+18
 Compute Stats, Diag. #    31 "VVEL    " (list#  1) Parms "VVR     MR      ", vol(  0 )= 1.243E+18
 Compute Stats, Diag. #    32 "WVEL    " (list#  1) Parms "WM      LR      ", vol(  0 )= 1.315E+18
 Compute Stats, Diag. #    26 "THETA   " (list#  1) Parms "SMR     MR      ", vol(  0 )= 1.340E+18
 EXTERNAL_FIELDS_LOAD,      1246 : iP,iLd,i0,i1=    6    7    6    7 ; Wght=  0.9666666667  0.0333333333
 cg2d: Sum(rhs),rhsMax =  -8.52651282912120E-14  5.32254665678071E+00
 EXTERNAL_FIELDS_LOAD,      1247 : iP,iLd,i0,i1=    6    7    6    7 ; Wght=  0.9333333333  0.0666666667
 cg2d: Sum(rhs),rhsMax =  -4.26325641456060E-13  5.32495975965175E+00
 EXTERNAL_FIELDS_LOAD,      1248 : iP,iLd,i0,i1=    6    7    6    7 ; Wght=  0.9000000000  0.1000000000
 cg2d: Sum(rhs),rhsMax =  -1.42108547152020E-13  5.32733156320364E+00
 EXTERNAL_FIELDS_LOAD,      1249 : iP,iLd,i0,i1=    6    7    6    7 ; Wght=  0.8666666667  0.1333333333
 cg2d: Sum(rhs),rhsMax =  -1.70530256582424E-13  5.32974469002590E+00
 Computing Diagnostic #    79 "DRHODR  " (list#  1) Parms "SM      LR      ", Count=      10
 Computing Diagnostic #    64 "RHOAnoma" (list#  1) Parms "SMR     MR      ", Count=      10
 Computing Diagnostic #    80 "CONVADJ " (list#  1) Parms "SMR     LR      ", Count=      10
 Computing Diagnostic #   210 "GM_Kwx  " (list#  1) Parms "UM      LR      ", Count=      10
             Vector  Mate for "GM_Kwx  " :  Diagnostic #    211 "GM_Kwy  " exists
 Computing Diagnostic #   211 "GM_Kwy  " (list#  1) Parms "VM      LR      ", Count=      10
             Vector  Mate for "GM_Kwy  " :  Diagnostic #    210 "GM_Kwx  " exists
 Computing Diagnostic #   212 "GM_Kwz  " (list#  1) Parms "WM P    LR      ", Count=      10
 Computing Diagnostic #   213 "GM_PsiX " (list#  1) Parms "UU      LR      ", Count=      10
             Vector  Mate for "GM_PsiX " :  Diagnostic #    214 "GM_PsiY " exists
 Computing Diagnostic #   214 "GM_PsiY " (list#  1) Parms "VV      LR      ", Count=      10
             Vector  Mate for "GM_PsiY " :  Diagnostic #    213 "GM_PsiX " exists
 EXTERNAL_FIELDS_LOAD,      1250 : iP,iLd,i0,i1=    6    7    6    7 ; Wght=  0.8333333333  0.1666666667
 cg2d: Sum(rhs),rhsMax =  -2.55795384873636E-13  5.33212660277454E+00
 EXTERNAL_FIELDS_LOAD,      1251 : iP,iLd,i0,i1=    6    7    6    7 ; Wght=  0.8000000000  0.2000000000
 cg2d: Sum(rhs),rhsMax =  -1.70530256582424E-13  5.33453507038884E+00
 EXTERNAL_FIELDS_LOAD,      1252 : iP,iLd,i0,i1=    6    7    6    7 ; Wght=  0.7666666667  0.2333333333
 cg2d: Sum(rhs),rhsMax =  -2.84217094304040E-14  5.33691420153961E+00
 EXTERNAL_FIELDS_LOAD,      1253 : iP,iLd,i0,i1=    6    7    6    7 ; Wght=  0.7333333333  0.2666666667
 cg2d: Sum(rhs),rhsMax =  -2.84217094304040E-14  5.33931009780267E+00
 EXTERNAL_FIELDS_LOAD,      1254 : iP,iLd,i0,i1=    6    7    6    7 ; Wght=  0.7000000000  0.3000000000
 cg2d: Sum(rhs),rhsMax =  -2.84217094304040E-13  5.34167674729596E+00
 EXTERNAL_FIELDS_LOAD,      1255 : iP,iLd,i0,i1=    6    7    6    7 ; Wght=  0.6666666667  0.3333333333
 cg2d: Sum(rhs),rhsMax =  -3.41060513164848E-13  5.34404903289551E+00
 Compute Stats, Diag. #    23 "ETAN    " (list#  1) Parms "SM      M1      ", vol(  0 )= 3.639E+14
 Compute Stats, Diag. #    30 "UVEL    " (list#  1) Parms "UUR     MR      ", vol(  0 )= 1.231E+18
 Compute Stats, Diag. #    31 "VVEL    " (list#  1) Parms "VVR     MR      ", vol(  0 )= 1.243E+18
 Compute Stats, Diag. #    32 "WVEL    " (list#  1) Parms "WM      LR      ", vol(  0 )= 1.315E+18
 Compute Stats, Diag. #    26 "THETA   " (list#  1) Parms "SMR     MR      ", vol(  0 )= 1.340E+18
 EXTERNAL_FIELDS_LOAD,      1256 : iP,iLd,i0,i1=    6    7    6    7 ; Wght=  0.6333333333  0.3666666667
 cg2d: Sum(rhs),rhsMax =  -1.70530256582424E-13  5.34639149530660E+00
 EXTERNAL_FIELDS_LOAD,      1257 : iP,iLd,i0,i1=    6    7    6    7 ; Wght=  0.6000000000  0.4000000000
 cg2d: Sum(rhs),rhsMax =  -1.13686837721616E-13  5.34872797760999E+00
 EXTERNAL_FIELDS_LOAD,      1258 : iP,iLd,i0,i1=    6    7    6    7 ; Wght=  0.5666666667  0.4333333333
 cg2d: Sum(rhs),rhsMax =  -5.68434188608080E-14  5.35103252182662E+00
 EXTERNAL_FIELDS_LOAD,      1259 : iP,iLd,i0,i1=    6    7    6    7 ; Wght=  0.5333333333  0.4666666667
 cg2d: Sum(rhs),rhsMax =  -3.12638803734444E-13  5.35332011346803E+00
(PID.TID 0000.0001)      cg2d_init_res =   1.60054360586833E-01
(PID.TID 0000.0001)      cg2d_iters(min,last) =      -1      62
(PID.TID 0000.0001)      cg2d_last_res =   5.48498832273346E-07
(PID.TID 0000.0001) // =======================================================
(PID.TID 0000.0001) // Begin MONITOR dynamic field statistics
(PID.TID 0000.0001) // =======================================================
(PID.TID 0000.0001) %MON time_tsnumber                =                  1260
(PID.TID 0000.0001) %MON time_secondsf                =   1.0886400000000E+08
(PID.TID 0000.0001) %MON dynstat_eta_max              =   9.9238281591312E-01
(PID.TID 0000.0001) %MON dynstat_eta_min              =  -1.8638032131244E+00
(PID.TID 0000.0001) %MON dynstat_eta_mean             =   2.7481078503928E-16
(PID.TID 0000.0001) %MON dynstat_eta_sd               =   6.2989417530837E-01
(PID.TID 0000.0001) %MON dynstat_eta_del2             =   8.6512062158704E-04
(PID.TID 0000.0001) %MON dynstat_uvel_max             =   2.5510891319326E-01
(PID.TID 0000.0001) %MON dynstat_uvel_min             =  -2.3257403939303E-01
(PID.TID 0000.0001) %MON dynstat_uvel_mean            =  -4.9269258432778E-04
(PID.TID 0000.0001) %MON dynstat_uvel_sd              =   1.3186215914137E-02
(PID.TID 0000.0001) %MON dynstat_uvel_del2            =   5.5452908888065E-05
(PID.TID 0000.0001) %MON dynstat_vvel_max             =   2.2350192520868E-01
(PID.TID 0000.0001) %MON dynstat_vvel_min             =  -1.9364667612306E-01
(PID.TID 0000.0001) %MON dynstat_vvel_mean            =  -3.7707695131595E-04
(PID.TID 0000.0001) %MON dynstat_vvel_sd              =   1.3327291979419E-02
(PID.TID 0000.0001) %MON dynstat_vvel_del2            =   5.4758504662466E-05
(PID.TID 0000.0001) %MON dynstat_wvel_max             =   1.1588482893909E-04
(PID.TID 0000.0001) %MON dynstat_wvel_min             =  -2.1436674121712E-04
(PID.TID 0000.0001) %MON dynstat_wvel_mean            =  -2.0307108883494E-22
(PID.TID 0000.0001) %MON dynstat_wvel_sd              =   4.3790401037713E-06
(PID.TID 0000.0001) %MON dynstat_wvel_del2            =   3.3262076440714E-08
(PID.TID 0000.0001) %MON dynstat_theta_max            =   3.1539298042740E+01
(PID.TID 0000.0001) %MON dynstat_theta_min            =  -7.1700028014388E+00
(PID.TID 0000.0001) %MON dynstat_theta_mean           =   3.6082840242074E+00
(PID.TID 0000.0001) %MON dynstat_theta_sd             =   4.4158972701143E+00
(PID.TID 0000.0001) %MON dynstat_theta_del2           =   3.0646487884450E-03
(PID.TID 0000.0001) %MON dynstat_salt_max             =   4.1299264603803E+01
(PID.TID 0000.0001) %MON dynstat_salt_min             =   1.8666701818219E+01
(PID.TID 0000.0001) %MON dynstat_salt_mean            =   3.4721463179634E+01
(PID.TID 0000.0001) %MON dynstat_salt_sd              =   4.9590680170863E-01
(PID.TID 0000.0001) %MON dynstat_salt_del2            =   9.7385277584411E-04
(PID.TID 0000.0001) %MON forcing_qnet_max             =   2.0229973837998E+02
(PID.TID 0000.0001) %MON forcing_qnet_min             =  -1.9718863546915E+02
(PID.TID 0000.0001) %MON forcing_qnet_mean            =   1.9596147289475E+01
(PID.TID 0000.0001) %MON forcing_qnet_sd              =   9.2166533481062E+01
(PID.TID 0000.0001) %MON forcing_qnet_del2            =   3.9201995701631E-01
(PID.TID 0000.0001) %MON forcing_qsw_max              =   0.0000000000000E+00
(PID.TID 0000.0001) %MON forcing_qsw_min              =   0.0000000000000E+00
(PID.TID 0000.0001) %MON forcing_qsw_mean             =   0.0000000000000E+00
(PID.TID 0000.0001) %MON forcing_qsw_sd               =   0.0000000000000E+00
(PID.TID 0000.0001) %MON forcing_qsw_del2             =   0.0000000000000E+00
(PID.TID 0000.0001) %MON forcing_empmr_max            =   7.6494447208479E-05
(PID.TID 0000.0001) %MON forcing_empmr_min            =  -1.5362614137596E-04
(PID.TID 0000.0001) %MON forcing_empmr_mean           =  -2.7256318706594E-21
(PID.TID 0000.0001) %MON forcing_empmr_sd             =   2.4051723601802E-05
(PID.TID 0000.0001) %MON forcing_empmr_del2           =   1.2276157049243E-07
(PID.TID 0000.0001) %MON forcing_fu_max               =   3.3519419512490E-01
(PID.TID 0000.0001) %MON forcing_fu_min               =  -2.6040991621841E-01
(PID.TID 0000.0001) %MON forcing_fu_mean              =  -2.7210120622396E-03
(PID.TID 0000.0001) %MON forcing_fu_sd                =   8.0360246474857E-02
(PID.TID 0000.0001) %MON forcing_fu_del2              =   2.2269164233251E-04
(PID.TID 0000.0001) %MON forcing_fv_max               =   3.3932416083857E-01
(PID.TID 0000.0001) %MON forcing_fv_min               =  -3.6036762335569E-01
(PID.TID 0000.0001) %MON forcing_fv_mean              =  -7.2632087421189E-03
(PID.TID 0000.0001) %MON forcing_fv_sd                =   7.4683547988714E-02
(PID.TID 0000.0001) %MON forcing_fv_del2              =   2.4339892805045E-04
(PID.TID 0000.0001) %MON trAdv_CFL_u_max              =   1.1385907596118E-01
(PID.TID 0000.0001) %MON trAdv_CFL_v_max              =   1.5532120109611E-01
(PID.TID 0000.0001) %MON trAdv_CFL_w_max              =   1.3324037558613E-01
(PID.TID 0000.0001) %MON advcfl_uvel_max              =   7.3791932901155E-02
(PID.TID 0000.0001) %MON advcfl_vvel_max              =   8.2091609987462E-02
(PID.TID 0000.0001) %MON advcfl_wvel_max              =   6.9891646947769E-02
(PID.TID 0000.0001) %MON advcfl_W_hf_max              =   7.7172026838162E-02
(PID.TID 0000.0001) %MON pe_b_mean                    =   5.2856652815040E-04
(PID.TID 0000.0001) %MON ke_max                       =   4.0153081738307E-02
(PID.TID 0000.0001) %MON ke_mean                      =   1.6246015340906E-04
(PID.TID 0000.0001) %MON ke_vol                       =   1.3398024453628E+18
(PID.TID 0000.0001) %MON vort_r_min                   =  -9.2564294924464E-07
(PID.TID 0000.0001) %MON vort_r_max                   =   1.4160334135013E-06
(PID.TID 0000.0001) %MON vort_a_mean                  =  -2.0549865324846E-05
(PID.TID 0000.0001) %MON vort_a_sd                    =   7.5259629464364E-05
(PID.TID 0000.0001) %MON vort_p_mean                  =  -2.4783522345032E-05
(PID.TID 0000.0001) %MON vort_p_sd                    =   1.2810599774963E-04
(PID.TID 0000.0001) %MON surfExpan_theta_mean         =   4.8913166684273E-08
(PID.TID 0000.0001) %MON surfExpan_salt_mean          =   1.5711532817211E-08
(PID.TID 0000.0001) // =======================================================
(PID.TID 0000.0001) // End MONITOR dynamic field statistics
(PID.TID 0000.0001) // =======================================================
(PID.TID 0000.0001) // =======================================================
(PID.TID 0000.0001) // Begin MONITOR ptracer field statistics
(PID.TID 0000.0001) // =======================================================
(PID.TID 0000.0001) %MON trcstat_ptracer01_max        =   1.1078159507146E+08
(PID.TID 0000.0001) %MON trcstat_ptracer01_min        =  -6.1964066217314E+06
(PID.TID 0000.0001) %MON trcstat_ptracer01_mean       =   1.0511561243065E+08
(PID.TID 0000.0001) %MON trcstat_ptracer01_sd         =   1.5719015590702E+07
(PID.TID 0000.0001) %MON trcstat_ptracer01_del2       =   3.3069866925945E+04
(PID.TID 0000.0001) // =======================================================
(PID.TID 0000.0001) // End MONITOR ptracer field statistics
(PID.TID 0000.0001) // =======================================================
 Computing Diagnostic #    79 "DRHODR  " (list#  1) Parms "SM      LR      ", Count=      10
 Computing Diagnostic #    64 "RHOAnoma" (list#  1) Parms "SMR     MR      ", Count=      10
 Computing Diagnostic #    80 "CONVADJ " (list#  1) Parms "SMR     LR      ", Count=      10
 Computing Diagnostic #   210 "GM_Kwx  " (list#  1) Parms "UM      LR      ", Count=      10
             Vector  Mate for "GM_Kwx  " :  Diagnostic #    211 "GM_Kwy  " exists
 Computing Diagnostic #   211 "GM_Kwy  " (list#  1) Parms "VM      LR      ", Count=      10
             Vector  Mate for "GM_Kwy  " :  Diagnostic #    210 "GM_Kwx  " exists
 Computing Diagnostic #   212 "GM_Kwz  " (list#  1) Parms "WM P    LR      ", Count=      10
 Computing Diagnostic #   213 "GM_PsiX " (list#  1) Parms "UU      LR      ", Count=      10
             Vector  Mate for "GM_PsiX " :  Diagnostic #    214 "GM_PsiY " exists
 Computing Diagnostic #   214 "GM_PsiY " (list#  1) Parms "VV      LR      ", Count=      10
             Vector  Mate for "GM_PsiY " :  Diagnostic #    213 "GM_PsiX " exists
 EXTERNAL_FIELDS_LOAD,      1260 : iP,iLd,i0,i1=    6    7    6    7 ; Wght=  0.5000000000  0.5000000000
 cg2d: Sum(rhs),rhsMax =   2.84217094304040E-14  5.35557364757961E+00
 EXTERNAL_FIELDS_LOAD,      1261 : iP,iLd,i0,i1=    6    7    6    7 ; Wght=  0.4666666667  0.5333333333
 cg2d: Sum(rhs),rhsMax =  -1.42108547152020E-13  5.35780125918179E+00
 EXTERNAL_FIELDS_LOAD,      1262 : iP,iLd,i0,i1=    6    7    6    7 ; Wght=  0.4333333333  0.5666666667
 cg2d: Sum(rhs),rhsMax =  -3.41060513164848E-13  5.35998925367266E+00
 EXTERNAL_FIELDS_LOAD,      1263 : iP,iLd,i0,i1=    6    7    6    7 ; Wght=  0.4000000000  0.6000000000
 cg2d: Sum(rhs),rhsMax =  -4.54747350886464E-13  5.36214235347278E+00
 EXTERNAL_FIELDS_LOAD,      1264 : iP,iLd,i0,i1=    6    7    6    7 ; Wght=  0.3666666667  0.6333333333
 cg2d: Sum(rhs),rhsMax =   2.84217094304040E-14  5.36424522795242E+00
 EXTERNAL_FIELDS_LOAD,      1265 : iP,iLd,i0,i1=    6    7    6    7 ; Wght=  0.3333333333  0.6666666667
 cg2d: Sum(rhs),rhsMax =  -3.41060513164848E-13  5.36630738936897E+00
 Compute Stats, Diag. #    23 "ETAN    " (list#  1) Parms "SM      M1      ", vol(  0 )= 3.639E+14
 Compute Stats, Diag. #    30 "UVEL    " (list#  1) Parms "UUR     MR      ", vol(  0 )= 1.231E+18
 Compute Stats, Diag. #    31 "VVEL    " (list#  1) Parms "VVR     MR      ", vol(  0 )= 1.243E+18
 Compute Stats, Diag. #    32 "WVEL    " (list#  1) Parms "WM      LR      ", vol(  0 )= 1.315E+18
 Compute Stats, Diag. #    26 "THETA   " (list#  1) Parms "SMR     MR      ", vol(  0 )= 1.340E+18
 EXTERNAL_FIELDS_LOAD,      1266 : iP,iLd,i0,i1=    6    7    6    7 ; Wght=  0.3000000000  0.7000000000
 cg2d: Sum(rhs),rhsMax =  -1.98951966012828E-13  5.36830681340535E+00
 EXTERNAL_FIELDS_LOAD,      1267 : iP,iLd,i0,i1=    6    7    6    7 ; Wght=  0.2666666667  0.7333333333
 cg2d: Sum(rhs),rhsMax =  -2.27373675443232E-13  5.37025866935088E+00
 EXTERNAL_FIELDS_LOAD,      1268 : iP,iLd,i0,i1=    6    7    6    7 ; Wght=  0.2333333333  0.7666666667
 cg2d: Sum(rhs),rhsMax =  -1.98951966012828E-13  5.37213802664922E+00
 EXTERNAL_FIELDS_LOAD,      1269 : iP,iLd,i0,i1=    6    7    6    7 ; Wght=  0.2000000000  0.8000000000
 cg2d: Sum(rhs),rhsMax =  -8.52651282912120E-14  5.37396223176337E+00
 Computing Diagnostic #    79 "DRHODR  " (list#  1) Parms "SM      LR      ", Count=      10
 Computing Diagnostic #    64 "RHOAnoma" (list#  1) Parms "SMR     MR      ", Count=      10
 Computing Diagnostic #    80 "CONVADJ " (list#  1) Parms "SMR     LR      ", Count=      10
 Computing Diagnostic #   210 "GM_Kwx  " (list#  1) Parms "UM      LR      ", Count=      10
             Vector  Mate for "GM_Kwx  " :  Diagnostic #    211 "GM_Kwy  " exists
 Computing Diagnostic #   211 "GM_Kwy  " (list#  1) Parms "VM      LR      ", Count=      10
             Vector  Mate for "GM_Kwy  " :  Diagnostic #    210 "GM_Kwx  " exists
 Computing Diagnostic #   212 "GM_Kwz  " (list#  1) Parms "WM P    LR      ", Count=      10
 Computing Diagnostic #   213 "GM_PsiX " (list#  1) Parms "UU      LR      ", Count=      10
             Vector  Mate for "GM_PsiX " :  Diagnostic #    214 "GM_PsiY " exists
 Computing Diagnostic #   214 "GM_PsiY " (list#  1) Parms "VV      LR      ", Count=      10
             Vector  Mate for "GM_PsiY " :  Diagnostic #    213 "GM_PsiX " exists
 EXTERNAL_FIELDS_LOAD,      1270 : iP,iLd,i0,i1=    6    7    6    7 ; Wght=  0.1666666667  0.8333333333
 cg2d: Sum(rhs),rhsMax =  -3.12638803734444E-13  5.37570871265440E+00
 EXTERNAL_FIELDS_LOAD,      1271 : iP,iLd,i0,i1=    6    7    6    7 ; Wght=  0.1333333333  0.8666666667
 cg2d: Sum(rhs),rhsMax =  -8.52651282912120E-14  5.37739232025712E+00
 EXTERNAL_FIELDS_LOAD,      1272 : iP,iLd,i0,i1=    6    7    6    7 ; Wght=  0.1000000000  0.9000000000
 cg2d: Sum(rhs),rhsMax =  -1.70530256582424E-13  5.37899624200044E+00
 EXTERNAL_FIELDS_LOAD,      1273 : iP,iLd,i0,i1=    6    7    6    7 ; Wght=  0.0666666667  0.9333333333
 cg2d: Sum(rhs),rhsMax =  -3.12638803734444E-13  5.38053111803322E+00
 EXTERNAL_FIELDS_LOAD,      1274 : iP,iLd,i0,i1=    6    7    6    7 ; Wght=  0.0333333333  0.9666666667
 cg2d: Sum(rhs),rhsMax =  -1.98951966012828E-13  5.38198626151314E+00
 EXTERNAL_FIELDS_LOAD,      1275 : iP,iLd,i0,i1=    6    7    7    8 ; Wght=  1.0000000000  0.0000000000
 EXTERNAL_FIELDS_LOAD, it=      1275 : Reading new data, i0,i1=    7    8 (prev=    6    7 )
(PID.TID 0000.0001)  MDS_READ_FIELD: opening global file: trenberth_taux.bin
(PID.TID 0000.0001)  MDS_READ_FIELD: opening global file: trenberth_taux.bin
(PID.TID 0000.0001)  MDS_READ_FIELD: opening global file: trenberth_tauy.bin
(PID.TID 0000.0001)  MDS_READ_FIELD: opening global file: trenberth_tauy.bin
(PID.TID 0000.0001)  MDS_READ_FIELD: opening global file: shiQnet_cs32.bin
(PID.TID 0000.0001)  MDS_READ_FIELD: opening global file: shiQnet_cs32.bin
(PID.TID 0000.0001)  MDS_READ_FIELD: opening global file: shiEmPR_cs32.bin
(PID.TID 0000.0001)  MDS_READ_FIELD: opening global file: shiEmPR_cs32.bin
(PID.TID 0000.0001)  MDS_READ_FIELD: opening global file: lev_surfT_cs_12m.bin
(PID.TID 0000.0001)  MDS_READ_FIELD: opening global file: lev_surfT_cs_12m.bin
(PID.TID 0000.0001)  MDS_READ_FIELD: opening global file: lev_surfS_cs_12m.bin
(PID.TID 0000.0001)  MDS_READ_FIELD: opening global file: lev_surfS_cs_12m.bin
 cg2d: Sum(rhs),rhsMax =  -2.27373675443232E-13  5.38336861427725E+00
 Compute Stats, Diag. #    23 "ETAN    " (list#  1) Parms "SM      M1      ", vol(  0 )= 3.639E+14
 Compute Stats, Diag. #    30 "UVEL    " (list#  1) Parms "UUR     MR      ", vol(  0 )= 1.231E+18
 Compute Stats, Diag. #    31 "VVEL    " (list#  1) Parms "VVR     MR      ", vol(  0 )= 1.243E+18
 Compute Stats, Diag. #    32 "WVEL    " (list#  1) Parms "WM      LR      ", vol(  0 )= 1.315E+18
 Compute Stats, Diag. #    26 "THETA   " (list#  1) Parms "SMR     MR      ", vol(  0 )= 1.340E+18
 EXTERNAL_FIELDS_LOAD,      1276 : iP,iLd,i0,i1=    7    8    7    8 ; Wght=  0.9666666667  0.0333333333
 cg2d: Sum(rhs),rhsMax =  -2.84217094304040E-14  5.38461448886800E+00
 EXTERNAL_FIELDS_LOAD,      1277 : iP,iLd,i0,i1=    7    8    7    8 ; Wght=  0.9333333333  0.0666666667
 cg2d: Sum(rhs),rhsMax =  -2.84217094304040E-14  5.38587949308039E+00
 EXTERNAL_FIELDS_LOAD,      1278 : iP,iLd,i0,i1=    7    8    7    8 ; Wght=  0.9000000000  0.1000000000
 cg2d: Sum(rhs),rhsMax =  -3.12638803734444E-13  5.38709096444310E+00
 EXTERNAL_FIELDS_LOAD,      1279 : iP,iLd,i0,i1=    7    8    7    8 ; Wght=  0.8666666667  0.1333333333
 cg2d: Sum(rhs),rhsMax =  -2.84217094304040E-13  5.38824820744515E+00
 Computing Diagnostic #    79 "DRHODR  " (list#  1) Parms "SM      LR      ", Count=      10
 Computing Diagnostic #    64 "RHOAnoma" (list#  1) Parms "SMR     MR      ", Count=      10
 Computing Diagnostic #    80 "CONVADJ " (list#  1) Parms "SMR     LR      ", Count=      10
 Computing Diagnostic #   210 "GM_Kwx  " (list#  1) Parms "UM      LR      ", Count=      10
             Vector  Mate for "GM_Kwx  " :  Diagnostic #    211 "GM_Kwy  " exists
 Computing Diagnostic #   211 "GM_Kwy  " (list#  1) Parms "VM      LR      ", Count=      10
             Vector  Mate for "GM_Kwy  " :  Diagnostic #    210 "GM_Kwx  " exists
 Computing Diagnostic #   212 "GM_Kwz  " (list#  1) Parms "WM P    LR      ", Count=      10
 Computing Diagnostic #   213 "GM_PsiX " (list#  1) Parms "UU      LR      ", Count=      10
             Vector  Mate for "GM_PsiX " :  Diagnostic #    214 "GM_PsiY " exists
 Computing Diagnostic #   214 "GM_PsiY " (list#  1) Parms "VV      LR      ", Count=      10
             Vector  Mate for "GM_PsiY " :  Diagnostic #    213 "GM_PsiX " exists
 EXTERNAL_FIELDS_LOAD,      1280 : iP,iLd,i0,i1=    7    8    7    8 ; Wght=  0.8333333333  0.1666666667
 cg2d: Sum(rhs),rhsMax =  -2.27373675443232E-13  5.38934901588299E+00
 EXTERNAL_FIELDS_LOAD,      1281 : iP,iLd,i0,i1=    7    8    7    8 ; Wght=  0.8000000000  0.2000000000
 cg2d: Sum(rhs),rhsMax =  -4.54747350886464E-13  5.39039697453390E+00
 EXTERNAL_FIELDS_LOAD,      1282 : iP,iLd,i0,i1=    7    8    7    8 ; Wght=  0.7666666667  0.2333333333
 cg2d: Sum(rhs),rhsMax =  -3.12638803734444E-13  5.39139449976387E+00
 EXTERNAL_FIELDS_LOAD,      1283 : iP,iLd,i0,i1=    7    8    7    8 ; Wght=  0.7333333333  0.2666666667
 cg2d: Sum(rhs),rhsMax =   3.12638803734444E-13  5.39234771504845E+00
 EXTERNAL_FIELDS_LOAD,      1284 : iP,iLd,i0,i1=    7    8    7    8 ; Wght=  0.7000000000  0.3000000000
 cg2d: Sum(rhs),rhsMax =  -1.42108547152020E-13  5.39326146116891E+00
 EXTERNAL_FIELDS_LOAD,      1285 : iP,iLd,i0,i1=    7    8    7    8 ; Wght=  0.6666666667  0.3333333333
 cg2d: Sum(rhs),rhsMax =  -3.69482222595252E-13  5.39414624286343E+00
 Compute Stats, Diag. #    23 "ETAN    " (list#  1) Parms "SM      M1      ", vol(  0 )= 3.639E+14
 Compute Stats, Diag. #    30 "UVEL    " (list#  1) Parms "UUR     MR      ", vol(  0 )= 1.231E+18
 Compute Stats, Diag. #    31 "VVEL    " (list#  1) Parms "VVR     MR      ", vol(  0 )= 1.243E+18
 Compute Stats, Diag. #    32 "WVEL    " (list#  1) Parms "WM      LR      ", vol(  0 )= 1.315E+18
 Compute Stats, Diag. #    26 "THETA   " (list#  1) Parms "SMR     MR      ", vol(  0 )= 1.340E+18
 EXTERNAL_FIELDS_LOAD,      1286 : iP,iLd,i0,i1=    7    8    7    8 ; Wght=  0.6333333333  0.3666666667
 cg2d: Sum(rhs),rhsMax =  -2.84217094304040E-13  5.39500647518782E+00
 EXTERNAL_FIELDS_LOAD,      1287 : iP,iLd,i0,i1=    7    8    7    8 ; Wght=  0.6000000000  0.4000000000
 cg2d: Sum(rhs),rhsMax =  -2.84217094304040E-13  5.39585525180570E+00
 EXTERNAL_FIELDS_LOAD,      1288 : iP,iLd,i0,i1=    7    8    7    8 ; Wght=  0.5666666667  0.4333333333
 cg2d: Sum(rhs),rhsMax =  -1.98951966012828E-13  5.39669614907242E+00
 EXTERNAL_FIELDS_LOAD,      1289 : iP,iLd,i0,i1=    7    8    7    8 ; Wght=  0.5333333333  0.4666666667
 cg2d: Sum(rhs),rhsMax =  -3.12638803734444E-13  5.39754342409757E+00
(PID.TID 0000.0001)      cg2d_init_res =   1.68348833218982E-01
(PID.TID 0000.0001)      cg2d_iters(min,last) =      -1      61
(PID.TID 0000.0001)      cg2d_last_res =   5.55444312724248E-07
(PID.TID 0000.0001) // =======================================================
(PID.TID 0000.0001) // Begin MONITOR dynamic field statistics
(PID.TID 0000.0001) // =======================================================
(PID.TID 0000.0001) %MON time_tsnumber                =                  1290
(PID.TID 0000.0001) %MON time_secondsf                =   1.1145600000000E+08
(PID.TID 0000.0001) %MON dynstat_eta_max              =   1.0263695647989E+00
(PID.TID 0000.0001) %MON dynstat_eta_min              =  -1.8695875874267E+00
(PID.TID 0000.0001) %MON dynstat_eta_mean             =   2.8855132429124E-16
(PID.TID 0000.0001) %MON dynstat_eta_sd               =   6.3155769949215E-01
(PID.TID 0000.0001) %MON dynstat_eta_del2             =   8.6540718294653E-04
(PID.TID 0000.0001) %MON dynstat_uvel_max             =   3.8979487286497E-01
(PID.TID 0000.0001) %MON dynstat_uvel_min             =  -2.4029370897604E-01
(PID.TID 0000.0001) %MON dynstat_uvel_mean            =  -5.1332153843968E-04
(PID.TID 0000.0001) %MON dynstat_uvel_sd              =   1.3506546862063E-02
(PID.TID 0000.0001) %MON dynstat_uvel_del2            =   5.5990779636653E-05
(PID.TID 0000.0001) %MON dynstat_vvel_max             =   3.1476615968441E-01
(PID.TID 0000.0001) %MON dynstat_vvel_min             =  -2.1242331187478E-01
(PID.TID 0000.0001) %MON dynstat_vvel_mean            =  -3.9266864406745E-04
(PID.TID 0000.0001) %MON dynstat_vvel_sd              =   1.3505604348045E-02
(PID.TID 0000.0001) %MON dynstat_vvel_del2            =   5.5628855669725E-05
(PID.TID 0000.0001) %MON dynstat_wvel_max             =   1.1415401997275E-04
(PID.TID 0000.0001) %MON dynstat_wvel_min             =  -2.1640063763412E-04
(PID.TID 0000.0001) %MON dynstat_wvel_mean            =   5.8020311095697E-24
(PID.TID 0000.0001) %MON dynstat_wvel_sd              =   4.3594785494410E-06
(PID.TID 0000.0001) %MON dynstat_wvel_del2            =   3.3297126478116E-08
(PID.TID 0000.0001) %MON dynstat_theta_max            =   3.1230592525837E+01
(PID.TID 0000.0001) %MON dynstat_theta_min            =  -7.2591974999492E+00
(PID.TID 0000.0001) %MON dynstat_theta_mean           =   3.6071070709865E+00
(PID.TID 0000.0001) %MON dynstat_theta_sd             =   4.4110820814015E+00
(PID.TID 0000.0001) %MON dynstat_theta_del2           =   3.1174246145006E-03
(PID.TID 0000.0001) %MON dynstat_salt_max             =   4.1305441275062E+01
(PID.TID 0000.0001) %MON dynstat_salt_min             =   1.8688999268752E+01
(PID.TID 0000.0001) %MON dynstat_salt_mean            =   3.4721478325187E+01
(PID.TID 0000.0001) %MON dynstat_salt_sd              =   4.9591884386364E-01
(PID.TID 0000.0001) %MON dynstat_salt_del2            =   9.6627996349452E-04
(PID.TID 0000.0001) %MON forcing_qnet_max             =   2.6623444985897E+02
(PID.TID 0000.0001) %MON forcing_qnet_min             =  -2.1164738352902E+02
(PID.TID 0000.0001) %MON forcing_qnet_mean            =   1.3490614180387E+01
(PID.TID 0000.0001) %MON forcing_qnet_sd              =   7.9941125037902E+01
(PID.TID 0000.0001) %MON forcing_qnet_del2            =   3.9351193552263E-01
(PID.TID 0000.0001) %MON forcing_qsw_max              =   0.0000000000000E+00
(PID.TID 0000.0001) %MON forcing_qsw_min              =   0.0000000000000E+00
(PID.TID 0000.0001) %MON forcing_qsw_mean             =   0.0000000000000E+00
(PID.TID 0000.0001) %MON forcing_qsw_sd               =   0.0000000000000E+00
(PID.TID 0000.0001) %MON forcing_qsw_del2             =   0.0000000000000E+00
(PID.TID 0000.0001) %MON forcing_empmr_max            =   7.6494447208479E-05
(PID.TID 0000.0001) %MON forcing_empmr_min            =  -1.5362614137596E-04
(PID.TID 0000.0001) %MON forcing_empmr_mean           =  -2.7256318706594E-21
(PID.TID 0000.0001) %MON forcing_empmr_sd             =   2.4051723601802E-05
(PID.TID 0000.0001) %MON forcing_empmr_del2           =   1.2276157049243E-07
(PID.TID 0000.0001) %MON forcing_fu_max               =   3.7939488069330E-01
(PID.TID 0000.0001) %MON forcing_fu_min               =  -3.0387787452663E-01
(PID.TID 0000.0001) %MON forcing_fu_mean              =  -4.7816371445427E-03
(PID.TID 0000.0001) %MON forcing_fu_sd                =   8.4774595803944E-02
(PID.TID 0000.0001) %MON forcing_fu_del2              =   2.3419656372830E-04
(PID.TID 0000.0001) %MON forcing_fv_max               =   3.6307584767778E-01
(PID.TID 0000.0001) %MON forcing_fv_min               =  -3.9408330405910E-01
(PID.TID 0000.0001) %MON forcing_fv_mean              =  -7.2982255147446E-03
(PID.TID 0000.0001) %MON forcing_fv_sd                =   8.0365850907335E-02
(PID.TID 0000.0001) %MON forcing_fv_del2              =   2.4868806625824E-04
(PID.TID 0000.0001) %MON trAdv_CFL_u_max              =   1.1345464525785E-01
(PID.TID 0000.0001) %MON trAdv_CFL_v_max              =   1.5343217738875E-01
(PID.TID 0000.0001) %MON trAdv_CFL_w_max              =   1.3915246135168E-01
(PID.TID 0000.0001) %MON advcfl_uvel_max              =   1.1275073357345E-01
(PID.TID 0000.0001) %MON advcfl_vvel_max              =   9.0490199183310E-02
(PID.TID 0000.0001) %MON advcfl_wvel_max              =   7.0554773930520E-02
(PID.TID 0000.0001) %MON advcfl_W_hf_max              =   7.7904229548282E-02
(PID.TID 0000.0001) %MON pe_b_mean                    =   5.3136205892975E-04
(PID.TID 0000.0001) %MON ke_max                       =   7.6946598337458E-02
(PID.TID 0000.0001) %MON ke_mean                      =   1.6862336795349E-04
(PID.TID 0000.0001) %MON ke_vol                       =   1.3398024453628E+18
(PID.TID 0000.0001) %MON vort_r_min                   =  -9.5480140139578E-07
(PID.TID 0000.0001) %MON vort_r_max                   =   1.7473878155731E-06
(PID.TID 0000.0001) %MON vort_a_mean                  =  -2.0549865324846E-05
(PID.TID 0000.0001) %MON vort_a_sd                    =   7.5259628921864E-05
(PID.TID 0000.0001) %MON vort_p_mean                  =  -2.4783522345032E-05
(PID.TID 0000.0001) %MON vort_p_sd                    =   1.2810604414109E-04
(PID.TID 0000.0001) %MON surfExpan_theta_mean         =   5.7982483167597E-08
(PID.TID 0000.0001) %MON surfExpan_salt_mean          =   1.5083950550353E-08
(PID.TID 0000.0001) // =======================================================
(PID.TID 0000.0001) // End MONITOR dynamic field statistics
(PID.TID 0000.0001) // =======================================================
(PID.TID 0000.0001) // =======================================================
(PID.TID 0000.0001) // Begin MONITOR ptracer field statistics
(PID.TID 0000.0001) // =======================================================
(PID.TID 0000.0001) %MON trcstat_ptracer01_max        =   1.1333257412172E+08
(PID.TID 0000.0001) %MON trcstat_ptracer01_min        =  -5.2590446070681E+06
(PID.TID 0000.0001) %MON trcstat_ptracer01_mean       =   1.0755818124754E+08
(PID.TID 0000.0001) %MON trcstat_ptracer01_sd         =   1.6192909140928E+07
(PID.TID 0000.0001) %MON trcstat_ptracer01_del2       =   3.5380457128071E+04
(PID.TID 0000.0001) // =======================================================
(PID.TID 0000.0001) // End MONITOR ptracer field statistics
(PID.TID 0000.0001) // =======================================================
 Computing Diagnostic #    79 "DRHODR  " (list#  1) Parms "SM      LR      ", Count=      10
 Computing Diagnostic #    64 "RHOAnoma" (list#  1) Parms "SMR     MR      ", Count=      10
 Computing Diagnostic #    80 "CONVADJ " (list#  1) Parms "SMR     LR      ", Count=      10
 Computing Diagnostic #   210 "GM_Kwx  " (list#  1) Parms "UM      LR      ", Count=      10
             Vector  Mate for "GM_Kwx  " :  Diagnostic #    211 "GM_Kwy  " exists
 Computing Diagnostic #   211 "GM_Kwy  " (list#  1) Parms "VM      LR      ", Count=      10
             Vector  Mate for "GM_Kwy  " :  Diagnostic #    210 "GM_Kwx  " exists
 Computing Diagnostic #   212 "GM_Kwz  " (list#  1) Parms "WM P    LR      ", Count=      10
 Computing Diagnostic #   213 "GM_PsiX " (list#  1) Parms "UU      LR      ", Count=      10
             Vector  Mate for "GM_PsiX " :  Diagnostic #    214 "GM_PsiY " exists
 Computing Diagnostic #   214 "GM_PsiY " (list#  1) Parms "VV      LR      ", Count=      10
             Vector  Mate for "GM_PsiY " :  Diagnostic #    213 "GM_PsiX " exists
 EXTERNAL_FIELDS_LOAD,      1290 : iP,iLd,i0,i1=    7    8    7    8 ; Wght=  0.5000000000  0.5000000000
 cg2d: Sum(rhs),rhsMax =  -1.13686837721616E-13  5.39839879511449E+00
 EXTERNAL_FIELDS_LOAD,      1291 : iP,iLd,i0,i1=    7    8    7    8 ; Wght=  0.4666666667  0.5333333333
 cg2d: Sum(rhs),rhsMax =  -3.97903932025656E-13  5.39927903507099E+00
 EXTERNAL_FIELDS_LOAD,      1292 : iP,iLd,i0,i1=    7    8    7    8 ; Wght=  0.4333333333  0.5666666667
 cg2d: Sum(rhs),rhsMax =  -1.70530256582424E-13  5.40018511563912E+00
 EXTERNAL_FIELDS_LOAD,      1293 : iP,iLd,i0,i1=    7    8    7    8 ; Wght=  0.4000000000  0.6000000000
 cg2d: Sum(rhs),rhsMax =  -2.84217094304040E-13  5.40113421061006E+00
 EXTERNAL_FIELDS_LOAD,      1294 : iP,iLd,i0,i1=    7    8    7    8 ; Wght=  0.3666666667  0.6333333333
 cg2d: Sum(rhs),rhsMax =  -3.41060513164848E-13  5.40212578861022E+00
 EXTERNAL_FIELDS_LOAD,      1295 : iP,iLd,i0,i1=    7    8    7    8 ; Wght=  0.3333333333  0.6666666667
 cg2d: Sum(rhs),rhsMax =  -3.41060513164848E-13  5.40317751282335E+00
 Compute Stats, Diag. #    23 "ETAN    " (list#  1) Parms "SM      M1      ", vol(  0 )= 3.639E+14
 Compute Stats, Diag. #    30 "UVEL    " (list#  1) Parms "UUR     MR      ", vol(  0 )= 1.231E+18
 Compute Stats, Diag. #    31 "VVEL    " (list#  1) Parms "VVR     MR      ", vol(  0 )= 1.243E+18
 Compute Stats, Diag. #    32 "WVEL    " (list#  1) Parms "WM      LR      ", vol(  0 )= 1.315E+18
 Compute Stats, Diag. #    26 "THETA   " (list#  1) Parms "SMR     MR      ", vol(  0 )= 1.340E+18
 EXTERNAL_FIELDS_LOAD,      1296 : iP,iLd,i0,i1=    7    8    7    8 ; Wght=  0.3000000000  0.7000000000
 cg2d: Sum(rhs),rhsMax =  -3.41060513164848E-13  5.40428633576521E+00
 EXTERNAL_FIELDS_LOAD,      1297 : iP,iLd,i0,i1=    7    8    7    8 ; Wght=  0.2666666667  0.7333333333
 cg2d: Sum(rhs),rhsMax =  -8.52651282912120E-14  5.40547024565800E+00
 EXTERNAL_FIELDS_LOAD,      1298 : iP,iLd,i0,i1=    7    8    7    8 ; Wght=  0.2333333333  0.7666666667
 cg2d: Sum(rhs),rhsMax =   5.68434188608080E-14  5.40672275998062E+00
 EXTERNAL_FIELDS_LOAD,      1299 : iP,iLd,i0,i1=    7    8    7    8 ; Wght=  0.2000000000  0.8000000000
 cg2d: Sum(rhs),rhsMax =  -1.98951966012828E-13  5.40806190492381E+00
 Computing Diagnostic #    79 "DRHODR  " (list#  1) Parms "SM      LR      ", Count=      10
 Computing Diagnostic #    64 "RHOAnoma" (list#  1) Parms "SMR     MR      ", Count=      10
 Computing Diagnostic #    80 "CONVADJ " (list#  1) Parms "SMR     LR      ", Count=      10
 Computing Diagnostic #   210 "GM_Kwx  " (list#  1) Parms "UM      LR      ", Count=      10
             Vector  Mate for "GM_Kwx  " :  Diagnostic #    211 "GM_Kwy  " exists
 Computing Diagnostic #   211 "GM_Kwy  " (list#  1) Parms "VM      LR      ", Count=      10
             Vector  Mate for "GM_Kwy  " :  Diagnostic #    210 "GM_Kwx  " exists
 Computing Diagnostic #   212 "GM_Kwz  " (list#  1) Parms "WM P    LR      ", Count=      10
 Computing Diagnostic #   213 "GM_PsiX " (list#  1) Parms "UU      LR      ", Count=      10
             Vector  Mate for "GM_PsiX " :  Diagnostic #    214 "GM_PsiY " exists
 Computing Diagnostic #   214 "GM_PsiY " (list#  1) Parms "VV      LR      ", Count=      10
             Vector  Mate for "GM_PsiY " :  Diagnostic #    213 "GM_PsiX " exists
 EXTERNAL_FIELDS_LOAD,      1300 : iP,iLd,i0,i1=    7    8    7    8 ; Wght=  0.1666666667  0.8333333333
 cg2d: Sum(rhs),rhsMax =  -1.13686837721616E-13  5.40947757972314E+00
 EXTERNAL_FIELDS_LOAD,      1301 : iP,iLd,i0,i1=    7    8    7    8 ; Wght=  0.1333333333  0.8666666667
 cg2d: Sum(rhs),rhsMax =  -2.55795384873636E-13  5.41098743645973E+00
 EXTERNAL_FIELDS_LOAD,      1302 : iP,iLd,i0,i1=    7    8    7    8 ; Wght=  0.1000000000  0.9000000000
 cg2d: Sum(rhs),rhsMax =  -2.55795384873636E-13  5.41257783801159E+00
 EXTERNAL_FIELDS_LOAD,      1303 : iP,iLd,i0,i1=    7    8    7    8 ; Wght=  0.0666666667  0.9333333333
 cg2d: Sum(rhs),rhsMax =  -2.84217094304040E-13  5.41426585213524E+00
 EXTERNAL_FIELDS_LOAD,      1304 : iP,iLd,i0,i1=    7    8    7    8 ; Wght=  0.0333333333  0.9666666667
 cg2d: Sum(rhs),rhsMax =  -4.83169060316868E-13  5.41603425312832E+00
 EXTERNAL_FIELDS_LOAD,      1305 : iP,iLd,i0,i1=    7    8    8    9 ; Wght=  1.0000000000  0.0000000000
 EXTERNAL_FIELDS_LOAD, it=      1305 : Reading new data, i0,i1=    8    9 (prev=    7    8 )
(PID.TID 0000.0001)  MDS_READ_FIELD: opening global file: trenberth_taux.bin
(PID.TID 0000.0001)  MDS_READ_FIELD: opening global file: trenberth_taux.bin
(PID.TID 0000.0001)  MDS_READ_FIELD: opening global file: trenberth_tauy.bin
(PID.TID 0000.0001)  MDS_READ_FIELD: opening global file: trenberth_tauy.bin
(PID.TID 0000.0001)  MDS_READ_FIELD: opening global file: shiQnet_cs32.bin
(PID.TID 0000.0001)  MDS_READ_FIELD: opening global file: shiQnet_cs32.bin
(PID.TID 0000.0001)  MDS_READ_FIELD: opening global file: shiEmPR_cs32.bin
(PID.TID 0000.0001)  MDS_READ_FIELD: opening global file: shiEmPR_cs32.bin
(PID.TID 0000.0001)  MDS_READ_FIELD: opening global file: lev_surfT_cs_12m.bin
(PID.TID 0000.0001)  MDS_READ_FIELD: opening global file: lev_surfT_cs_12m.bin
(PID.TID 0000.0001)  MDS_READ_FIELD: opening global file: lev_surfS_cs_12m.bin
(PID.TID 0000.0001)  MDS_READ_FIELD: opening global file: lev_surfS_cs_12m.bin
 cg2d: Sum(rhs),rhsMax =  -1.42108547152020E-13  5.41789935347539E+00
 Compute Stats, Diag. #    23 "ETAN    " (list#  1) Parms "SM      M1      ", vol(  0 )= 3.639E+14
 Compute Stats, Diag. #    30 "UVEL    " (list#  1) Parms "UUR     MR      ", vol(  0 )= 1.231E+18
 Compute Stats, Diag. #    31 "VVEL    " (list#  1) Parms "VVR     MR      ", vol(  0 )= 1.243E+18
 Compute Stats, Diag. #    32 "WVEL    " (list#  1) Parms "WM      LR      ", vol(  0 )= 1.315E+18
 Compute Stats, Diag. #    26 "THETA   " (list#  1) Parms "SMR     MR      ", vol(  0 )= 1.340E+18
 EXTERNAL_FIELDS_LOAD,      1306 : iP,iLd,i0,i1=    8    9    8    9 ; Wght=  0.9666666667  0.0333333333
 cg2d: Sum(rhs),rhsMax =  -3.12638803734444E-13  5.41979921452250E+00
 EXTERNAL_FIELDS_LOAD,      1307 : iP,iLd,i0,i1=    8    9    8    9 ; Wght=  0.9333333333  0.0666666667
 cg2d: Sum(rhs),rhsMax =  -1.13686837721616E-13  5.42175447248188E+00
 EXTERNAL_FIELDS_LOAD,      1308 : iP,iLd,i0,i1=    8    9    8    9 ; Wght=  0.9000000000  0.1000000000
 cg2d: Sum(rhs),rhsMax =  -4.54747350886464E-13  5.42377109524834E+00
 EXTERNAL_FIELDS_LOAD,      1309 : iP,iLd,i0,i1=    8    9    8    9 ; Wght=  0.8666666667  0.1333333333
 cg2d: Sum(rhs),rhsMax =  -2.84217094304040E-13  5.42585526977432E+00
 Computing Diagnostic #    79 "DRHODR  " (list#  1) Parms "SM      LR      ", Count=      10
 Computing Diagnostic #    64 "RHOAnoma" (list#  1) Parms "SMR     MR      ", Count=      10
 Computing Diagnostic #    80 "CONVADJ " (list#  1) Parms "SMR     LR      ", Count=      10
 Computing Diagnostic #   210 "GM_Kwx  " (list#  1) Parms "UM      LR      ", Count=      10
             Vector  Mate for "GM_Kwx  " :  Diagnostic #    211 "GM_Kwy  " exists
 Computing Diagnostic #   211 "GM_Kwy  " (list#  1) Parms "VM      LR      ", Count=      10
             Vector  Mate for "GM_Kwy  " :  Diagnostic #    210 "GM_Kwx  " exists
 Computing Diagnostic #   212 "GM_Kwz  " (list#  1) Parms "WM P    LR      ", Count=      10
 Computing Diagnostic #   213 "GM_PsiX " (list#  1) Parms "UU      LR      ", Count=      10
             Vector  Mate for "GM_PsiX " :  Diagnostic #    214 "GM_PsiY " exists
 Computing Diagnostic #   214 "GM_PsiY " (list#  1) Parms "VV      LR      ", Count=      10
             Vector  Mate for "GM_PsiY " :  Diagnostic #    213 "GM_PsiX " exists
 EXTERNAL_FIELDS_LOAD,      1310 : iP,iLd,i0,i1=    8    9    8    9 ; Wght=  0.8333333333  0.1666666667
 cg2d: Sum(rhs),rhsMax =   0.00000000000000E+00  5.42797897495295E+00
 EXTERNAL_FIELDS_LOAD,      1311 : iP,iLd,i0,i1=    8    9    8    9 ; Wght=  0.8000000000  0.2000000000
 cg2d: Sum(rhs),rhsMax =  -3.12638803734444E-13  5.43014442163474E+00
 EXTERNAL_FIELDS_LOAD,      1312 : iP,iLd,i0,i1=    8    9    8    9 ; Wght=  0.7666666667  0.2333333333
 cg2d: Sum(rhs),rhsMax =  -3.41060513164848E-13  5.43232269792853E+00
 EXTERNAL_FIELDS_LOAD,      1313 : iP,iLd,i0,i1=    8    9    8    9 ; Wght=  0.7333333333  0.2666666667
 cg2d: Sum(rhs),rhsMax =  -2.55795384873636E-13  5.43451195175890E+00
 EXTERNAL_FIELDS_LOAD,      1314 : iP,iLd,i0,i1=    8    9    8    9 ; Wght=  0.7000000000  0.3000000000
 cg2d: Sum(rhs),rhsMax =  -1.42108547152020E-13  5.43668377441918E+00
 EXTERNAL_FIELDS_LOAD,      1315 : iP,iLd,i0,i1=    8    9    8    9 ; Wght=  0.6666666667  0.3333333333
 cg2d: Sum(rhs),rhsMax =  -2.84217094304040E-13  5.43883288551632E+00
 Compute Stats, Diag. #    23 "ETAN    " (list#  1) Parms "SM      M1      ", vol(  0 )= 3.639E+14
 Compute Stats, Diag. #    30 "UVEL    " (list#  1) Parms "UUR     MR      ", vol(  0 )= 1.231E+18
 Compute Stats, Diag. #    31 "VVEL    " (list#  1) Parms "VVR     MR      ", vol(  0 )= 1.243E+18
 Compute Stats, Diag. #    32 "WVEL    " (list#  1) Parms "WM      LR      ", vol(  0 )= 1.315E+18
 Compute Stats, Diag. #    26 "THETA   " (list#  1) Parms "SMR     MR      ", vol(  0 )= 1.340E+18
 EXTERNAL_FIELDS_LOAD,      1316 : iP,iLd,i0,i1=    8    9    8    9 ; Wght=  0.6333333333  0.3666666667
 cg2d: Sum(rhs),rhsMax =  -1.70530256582424E-13  5.44093350602466E+00
 EXTERNAL_FIELDS_LOAD,      1317 : iP,iLd,i0,i1=    8    9    8    9 ; Wght=  0.6000000000  0.4000000000
 cg2d: Sum(rhs),rhsMax =  -2.84217094304040E-13  5.44297772524501E+00
 EXTERNAL_FIELDS_LOAD,      1318 : iP,iLd,i0,i1=    8    9    8    9 ; Wght=  0.5666666667  0.4333333333
 cg2d: Sum(rhs),rhsMax =  -3.12638803734444E-13  5.44494395027096E+00
 EXTERNAL_FIELDS_LOAD,      1319 : iP,iLd,i0,i1=    8    9    8    9 ; Wght=  0.5333333333  0.4666666667
 cg2d: Sum(rhs),rhsMax =  -3.12638803734444E-13  5.44682305387543E+00
(PID.TID 0000.0001)      cg2d_init_res =   1.52355508346848E-01
(PID.TID 0000.0001)      cg2d_iters(min,last) =      -1      57
(PID.TID 0000.0001)      cg2d_last_res =   5.53799029046797E-07
(PID.TID 0000.0001) // =======================================================
(PID.TID 0000.0001) // Begin MONITOR dynamic field statistics
(PID.TID 0000.0001) // =======================================================
(PID.TID 0000.0001) %MON time_tsnumber                =                  1320
(PID.TID 0000.0001) %MON time_secondsf                =   1.1404800000000E+08
(PID.TID 0000.0001) %MON dynstat_eta_max              =   1.0363423395331E+00
(PID.TID 0000.0001) %MON dynstat_eta_min              =  -1.8667320407289E+00
(PID.TID 0000.0001) %MON dynstat_eta_mean             =   3.2977294204714E-16
(PID.TID 0000.0001) %MON dynstat_eta_sd               =   6.3181590546196E-01
(PID.TID 0000.0001) %MON dynstat_eta_del2             =   8.6260639632744E-04
(PID.TID 0000.0001) %MON dynstat_uvel_max             =   4.2046019791000E-01
(PID.TID 0000.0001) %MON dynstat_uvel_min             =  -2.5664030817676E-01
(PID.TID 0000.0001) %MON dynstat_uvel_mean            =  -5.2592776084933E-04
(PID.TID 0000.0001) %MON dynstat_uvel_sd              =   1.3494701326419E-02
(PID.TID 0000.0001) %MON dynstat_uvel_del2            =   5.7131195144815E-05
(PID.TID 0000.0001) %MON dynstat_vvel_max             =   3.5558751995239E-01
(PID.TID 0000.0001) %MON dynstat_vvel_min             =  -2.5128565983264E-01
(PID.TID 0000.0001) %MON dynstat_vvel_mean            =  -3.9990637698666E-04
(PID.TID 0000.0001) %MON dynstat_vvel_sd              =   1.3697108844526E-02
(PID.TID 0000.0001) %MON dynstat_vvel_del2            =   5.7358496585278E-05
(PID.TID 0000.0001) %MON dynstat_wvel_max             =   1.1694078518625E-04
(PID.TID 0000.0001) %MON dynstat_wvel_min             =  -2.1354753831671E-04
(PID.TID 0000.0001) %MON dynstat_wvel_mean            =   2.4078429104714E-22
(PID.TID 0000.0001) %MON dynstat_wvel_sd              =   4.3430744166833E-06
(PID.TID 0000.0001) %MON dynstat_wvel_del2            =   3.4142963774908E-08
(PID.TID 0000.0001) %MON dynstat_theta_max            =   3.2244628125693E+01
(PID.TID 0000.0001) %MON dynstat_theta_min            =  -7.3578700122273E+00
(PID.TID 0000.0001) %MON dynstat_theta_mean           =   3.6070073257610E+00
(PID.TID 0000.0001) %MON dynstat_theta_sd             =   4.4133656443297E+00
(PID.TID 0000.0001) %MON dynstat_theta_del2           =   3.1599687130905E-03
(PID.TID 0000.0001) %MON dynstat_salt_max             =   4.1311406240259E+01
(PID.TID 0000.0001) %MON dynstat_salt_min             =   1.8680993344168E+01
(PID.TID 0000.0001) %MON dynstat_salt_mean            =   3.4721480785778E+01
(PID.TID 0000.0001) %MON dynstat_salt_sd              =   4.9602769526189E-01
(PID.TID 0000.0001) %MON dynstat_salt_del2            =   9.6898019872257E-04
(PID.TID 0000.0001) %MON forcing_qnet_max             =   2.3762888233198E+02
(PID.TID 0000.0001) %MON forcing_qnet_min             =  -1.4205239650770E+02
(PID.TID 0000.0001) %MON forcing_qnet_mean            =   3.5901723567551E+00
(PID.TID 0000.0001) %MON forcing_qnet_sd              =   5.3668616368277E+01
(PID.TID 0000.0001) %MON forcing_qnet_del2            =   3.8165863800027E-01
(PID.TID 0000.0001) %MON forcing_qsw_max              =   0.0000000000000E+00
(PID.TID 0000.0001) %MON forcing_qsw_min              =   0.0000000000000E+00
(PID.TID 0000.0001) %MON forcing_qsw_mean             =   0.0000000000000E+00
(PID.TID 0000.0001) %MON forcing_qsw_sd               =   0.0000000000000E+00
(PID.TID 0000.0001) %MON forcing_qsw_del2             =   0.0000000000000E+00
(PID.TID 0000.0001) %MON forcing_empmr_max            =   7.6494447208479E-05
(PID.TID 0000.0001) %MON forcing_empmr_min            =  -1.5362614137596E-04
(PID.TID 0000.0001) %MON forcing_empmr_mean           =  -2.7256318706594E-21
(PID.TID 0000.0001) %MON forcing_empmr_sd             =   2.4051723601802E-05
(PID.TID 0000.0001) %MON forcing_empmr_del2           =   1.2276157049243E-07
(PID.TID 0000.0001) %MON forcing_fu_max               =   3.7705416461979E-01
(PID.TID 0000.0001) %MON forcing_fu_min               =  -2.9191218893916E-01
(PID.TID 0000.0001) %MON forcing_fu_mean              =  -4.5636136682750E-03
(PID.TID 0000.0001) %MON forcing_fu_sd                =   8.2258737971817E-02
(PID.TID 0000.0001) %MON forcing_fu_del2              =   2.2845714929796E-04
(PID.TID 0000.0001) %MON forcing_fv_max               =   3.0904070945947E-01
(PID.TID 0000.0001) %MON forcing_fv_min               =  -3.7009336865929E-01
(PID.TID 0000.0001) %MON forcing_fv_mean              =  -6.1537312399580E-03
(PID.TID 0000.0001) %MON forcing_fv_sd                =   7.8247752992835E-02
(PID.TID 0000.0001) %MON forcing_fv_del2              =   2.2910904370404E-04
(PID.TID 0000.0001) %MON trAdv_CFL_u_max              =   1.2238016946787E-01
(PID.TID 0000.0001) %MON trAdv_CFL_v_max              =   1.2178032779088E-01
(PID.TID 0000.0001) %MON trAdv_CFL_w_max              =   1.1460382801392E-01
(PID.TID 0000.0001) %MON advcfl_uvel_max              =   1.2162088075800E-01
(PID.TID 0000.0001) %MON advcfl_vvel_max              =   1.0222568251890E-01
(PID.TID 0000.0001) %MON advcfl_wvel_max              =   6.9624555888919E-02
(PID.TID 0000.0001) %MON advcfl_W_hf_max              =   7.6877113794015E-02
(PID.TID 0000.0001) %MON pe_b_mean                    =   5.3179663174057E-04
(PID.TID 0000.0001) %MON ke_max                       =   8.5977446982577E-02
(PID.TID 0000.0001) %MON ke_mean                      =   1.7090235958024E-04
(PID.TID 0000.0001) %MON ke_vol                       =   1.3398024453628E+18
(PID.TID 0000.0001) %MON vort_r_min                   =  -1.0605342351316E-06
(PID.TID 0000.0001) %MON vort_r_max                   =   2.0339325625479E-06
(PID.TID 0000.0001) %MON vort_a_mean                  =  -2.0549865324846E-05
(PID.TID 0000.0001) %MON vort_a_sd                    =   7.5259626298146E-05
(PID.TID 0000.0001) %MON vort_p_mean                  =  -2.4783522345032E-05
(PID.TID 0000.0001) %MON vort_p_sd                    =   1.2810601511402E-04
(PID.TID 0000.0001) %MON surfExpan_theta_mean         =   5.0852016431393E-08
(PID.TID 0000.0001) %MON surfExpan_salt_mean          =   1.5442559915131E-08
(PID.TID 0000.0001) // =======================================================
(PID.TID 0000.0001) // End MONITOR dynamic field statistics
(PID.TID 0000.0001) // =======================================================
(PID.TID 0000.0001) // =======================================================
(PID.TID 0000.0001) // Begin MONITOR ptracer field statistics
(PID.TID 0000.0001) // =======================================================
(PID.TID 0000.0001) %MON trcstat_ptracer01_max        =   1.1600580657315E+08
(PID.TID 0000.0001) %MON trcstat_ptracer01_min        =  -3.9000396084746E+06
(PID.TID 0000.0001) %MON trcstat_ptracer01_mean       =   1.0997649600672E+08
(PID.TID 0000.0001) %MON trcstat_ptracer01_sd         =   1.6748450001238E+07
(PID.TID 0000.0001) %MON trcstat_ptracer01_del2       =   3.7798775010053E+04
(PID.TID 0000.0001) // =======================================================
(PID.TID 0000.0001) // End MONITOR ptracer field statistics
(PID.TID 0000.0001) // =======================================================
 Computing Diagnostic #    79 "DRHODR  " (list#  1) Parms "SM      LR      ", Count=      10
 Computing Diagnostic #    64 "RHOAnoma" (list#  1) Parms "SMR     MR      ", Count=      10
 Computing Diagnostic #    80 "CONVADJ " (list#  1) Parms "SMR     LR      ", Count=      10
 Computing Diagnostic #   210 "GM_Kwx  " (list#  1) Parms "UM      LR      ", Count=      10
             Vector  Mate for "GM_Kwx  " :  Diagnostic #    211 "GM_Kwy  " exists
 Computing Diagnostic #   211 "GM_Kwy  " (list#  1) Parms "VM      LR      ", Count=      10
             Vector  Mate for "GM_Kwy  " :  Diagnostic #    210 "GM_Kwx  " exists
 Computing Diagnostic #   212 "GM_Kwz  " (list#  1) Parms "WM P    LR      ", Count=      10
 Computing Diagnostic #   213 "GM_PsiX " (list#  1) Parms "UU      LR      ", Count=      10
             Vector  Mate for "GM_PsiX " :  Diagnostic #    214 "GM_PsiY " exists
 Computing Diagnostic #   214 "GM_PsiY " (list#  1) Parms "VV      LR      ", Count=      10
             Vector  Mate for "GM_PsiY " :  Diagnostic #    213 "GM_PsiX " exists
 EXTERNAL_FIELDS_LOAD,      1320 : iP,iLd,i0,i1=    8    9    8    9 ; Wght=  0.5000000000  0.5000000000
 cg2d: Sum(rhs),rhsMax =  -1.42108547152020E-13  5.44859731066596E+00
 EXTERNAL_FIELDS_LOAD,      1321 : iP,iLd,i0,i1=    8    9    8    9 ; Wght=  0.4666666667  0.5333333333
 cg2d: Sum(rhs),rhsMax =  -2.55795384873636E-13  5.45025759905739E+00
 EXTERNAL_FIELDS_LOAD,      1322 : iP,iLd,i0,i1=    8    9    8    9 ; Wght=  0.4333333333  0.5666666667
 cg2d: Sum(rhs),rhsMax =   2.84217094304040E-14  5.45178974513699E+00
 EXTERNAL_FIELDS_LOAD,      1323 : iP,iLd,i0,i1=    8    9    8    9 ; Wght=  0.4000000000  0.6000000000
 cg2d: Sum(rhs),rhsMax =  -1.42108547152020E-13  5.45318567721759E+00
 EXTERNAL_FIELDS_LOAD,      1324 : iP,iLd,i0,i1=    8    9    8    9 ; Wght=  0.3666666667  0.6333333333
 cg2d: Sum(rhs),rhsMax =  -1.42108547152020E-13  5.45443505840611E+00
 EXTERNAL_FIELDS_LOAD,      1325 : iP,iLd,i0,i1=    8    9    8    9 ; Wght=  0.3333333333  0.6666666667
 cg2d: Sum(rhs),rhsMax =  -1.42108547152020E-13  5.45553205732784E+00
 Compute Stats, Diag. #    23 "ETAN    " (list#  1) Parms "SM      M1      ", vol(  0 )= 3.639E+14
 Compute Stats, Diag. #    30 "UVEL    " (list#  1) Parms "UUR     MR      ", vol(  0 )= 1.231E+18
 Compute Stats, Diag. #    31 "VVEL    " (list#  1) Parms "VVR     MR      ", vol(  0 )= 1.243E+18
 Compute Stats, Diag. #    32 "WVEL    " (list#  1) Parms "WM      LR      ", vol(  0 )= 1.315E+18
 Compute Stats, Diag. #    26 "THETA   " (list#  1) Parms "SMR     MR      ", vol(  0 )= 1.340E+18
 EXTERNAL_FIELDS_LOAD,      1326 : iP,iLd,i0,i1=    8    9    8    9 ; Wght=  0.3000000000  0.7000000000
 cg2d: Sum(rhs),rhsMax =  -3.12638803734444E-13  5.45647051864441E+00
 EXTERNAL_FIELDS_LOAD,      1327 : iP,iLd,i0,i1=    8    9    8    9 ; Wght=  0.2666666667  0.7333333333
 cg2d: Sum(rhs),rhsMax =  -3.97903932025656E-13  5.45724789880404E+00
 EXTERNAL_FIELDS_LOAD,      1328 : iP,iLd,i0,i1=    8    9    8    9 ; Wght=  0.2333333333  0.7666666667
 cg2d: Sum(rhs),rhsMax =  -4.54747350886464E-13  5.45786258676084E+00
 EXTERNAL_FIELDS_LOAD,      1329 : iP,iLd,i0,i1=    8    9    8    9 ; Wght=  0.2000000000  0.8000000000
 cg2d: Sum(rhs),rhsMax =  -1.42108547152020E-13  5.45831672836392E+00
 Computing Diagnostic #    79 "DRHODR  " (list#  1) Parms "SM      LR      ", Count=      10
 Computing Diagnostic #    64 "RHOAnoma" (list#  1) Parms "SMR     MR      ", Count=      10
 Computing Diagnostic #    80 "CONVADJ " (list#  1) Parms "SMR     LR      ", Count=      10
 Computing Diagnostic #   210 "GM_Kwx  " (list#  1) Parms "UM      LR      ", Count=      10
             Vector  Mate for "GM_Kwx  " :  Diagnostic #    211 "GM_Kwy  " exists
 Computing Diagnostic #   211 "GM_Kwy  " (list#  1) Parms "VM      LR      ", Count=      10
             Vector  Mate for "GM_Kwy  " :  Diagnostic #    210 "GM_Kwx  " exists
 Computing Diagnostic #   212 "GM_Kwz  " (list#  1) Parms "WM P    LR      ", Count=      10
 Computing Diagnostic #   213 "GM_PsiX " (list#  1) Parms "UU      LR      ", Count=      10
             Vector  Mate for "GM_PsiX " :  Diagnostic #    214 "GM_PsiY " exists
 Computing Diagnostic #   214 "GM_PsiY " (list#  1) Parms "VV      LR      ", Count=      10
             Vector  Mate for "GM_PsiY " :  Diagnostic #    213 "GM_PsiX " exists
 EXTERNAL_FIELDS_LOAD,      1330 : iP,iLd,i0,i1=    8    9    8    9 ; Wght=  0.1666666667  0.8333333333
 cg2d: Sum(rhs),rhsMax =  -1.70530256582424E-13  5.45861428110765E+00
 EXTERNAL_FIELDS_LOAD,      1331 : iP,iLd,i0,i1=    8    9    8    9 ; Wght=  0.1333333333  0.8666666667
 cg2d: Sum(rhs),rhsMax =  -3.41060513164848E-13  5.45876108354920E+00
 EXTERNAL_FIELDS_LOAD,      1332 : iP,iLd,i0,i1=    8    9    8    9 ; Wght=  0.1000000000  0.9000000000
 cg2d: Sum(rhs),rhsMax =  -1.42108547152020E-13  5.45876495590749E+00
 EXTERNAL_FIELDS_LOAD,      1333 : iP,iLd,i0,i1=    8    9    8    9 ; Wght=  0.0666666667  0.9333333333
 cg2d: Sum(rhs),rhsMax =  -1.98951966012828E-13  5.45863595070985E+00
 EXTERNAL_FIELDS_LOAD,      1334 : iP,iLd,i0,i1=    8    9    8    9 ; Wght=  0.0333333333  0.9666666667
 cg2d: Sum(rhs),rhsMax =  -1.70530256582424E-13  5.45838562344152E+00
 EXTERNAL_FIELDS_LOAD,      1335 : iP,iLd,i0,i1=    8    9    9   10 ; Wght=  1.0000000000  0.0000000000
 EXTERNAL_FIELDS_LOAD, it=      1335 : Reading new data, i0,i1=    9   10 (prev=    8    9 )
(PID.TID 0000.0001)  MDS_READ_FIELD: opening global file: trenberth_taux.bin
(PID.TID 0000.0001)  MDS_READ_FIELD: opening global file: trenberth_taux.bin
(PID.TID 0000.0001)  MDS_READ_FIELD: opening global file: trenberth_tauy.bin
(PID.TID 0000.0001)  MDS_READ_FIELD: opening global file: trenberth_tauy.bin
(PID.TID 0000.0001)  MDS_READ_FIELD: opening global file: shiQnet_cs32.bin
(PID.TID 0000.0001)  MDS_READ_FIELD: opening global file: shiQnet_cs32.bin
(PID.TID 0000.0001)  MDS_READ_FIELD: opening global file: shiEmPR_cs32.bin
(PID.TID 0000.0001)  MDS_READ_FIELD: opening global file: shiEmPR_cs32.bin
(PID.TID 0000.0001)  MDS_READ_FIELD: opening global file: lev_surfT_cs_12m.bin
(PID.TID 0000.0001)  MDS_READ_FIELD: opening global file: lev_surfT_cs_12m.bin
(PID.TID 0000.0001)  MDS_READ_FIELD: opening global file: lev_surfS_cs_12m.bin
(PID.TID 0000.0001)  MDS_READ_FIELD: opening global file: lev_surfS_cs_12m.bin
 cg2d: Sum(rhs),rhsMax =  -4.54747350886464E-13  5.45802705896370E+00
 Compute Stats, Diag. #    23 "ETAN    " (list#  1) Parms "SM      M1      ", vol(  0 )= 3.639E+14
 Compute Stats, Diag. #    30 "UVEL    " (list#  1) Parms "UUR     MR      ", vol(  0 )= 1.231E+18
 Compute Stats, Diag. #    31 "VVEL    " (list#  1) Parms "VVR     MR      ", vol(  0 )= 1.243E+18
 Compute Stats, Diag. #    32 "WVEL    " (list#  1) Parms "WM      LR      ", vol(  0 )= 1.315E+18
 Compute Stats, Diag. #    26 "THETA   " (list#  1) Parms "SMR     MR      ", vol(  0 )= 1.340E+18
 EXTERNAL_FIELDS_LOAD,      1336 : iP,iLd,i0,i1=    9   10    9   10 ; Wght=  0.9666666667  0.0333333333
 cg2d: Sum(rhs),rhsMax =  -1.42108547152020E-13  5.45768942803395E+00
 EXTERNAL_FIELDS_LOAD,      1337 : iP,iLd,i0,i1=    9   10    9   10 ; Wght=  0.9333333333  0.0666666667
 cg2d: Sum(rhs),rhsMax =  -2.84217094304040E-14  5.45727072796271E+00
 EXTERNAL_FIELDS_LOAD,      1338 : iP,iLd,i0,i1=    9   10    9   10 ; Wght=  0.9000000000  0.1000000000
 cg2d: Sum(rhs),rhsMax =  -3.12638803734444E-13  5.45680616147539E+00
 EXTERNAL_FIELDS_LOAD,      1339 : iP,iLd,i0,i1=    9   10    9   10 ; Wght=  0.8666666667  0.1333333333
 cg2d: Sum(rhs),rhsMax =   0.00000000000000E+00  5.45632940484465E+00
 Computing Diagnostic #    79 "DRHODR  " (list#  1) Parms "SM      LR      ", Count=      10
 Computing Diagnostic #    64 "RHOAnoma" (list#  1) Parms "SMR     MR      ", Count=      10
 Computing Diagnostic #    80 "CONVADJ " (list#  1) Parms "SMR     LR      ", Count=      10
 Computing Diagnostic #   210 "GM_Kwx  " (list#  1) Parms "UM      LR      ", Count=      10
             Vector  Mate for "GM_Kwx  " :  Diagnostic #    211 "GM_Kwy  " exists
 Computing Diagnostic #   211 "GM_Kwy  " (list#  1) Parms "VM      LR      ", Count=      10
             Vector  Mate for "GM_Kwy  " :  Diagnostic #    210 "GM_Kwx  " exists
 Computing Diagnostic #   212 "GM_Kwz  " (list#  1) Parms "WM P    LR      ", Count=      10
 Computing Diagnostic #   213 "GM_PsiX " (list#  1) Parms "UU      LR      ", Count=      10
             Vector  Mate for "GM_PsiX " :  Diagnostic #    214 "GM_PsiY " exists
 Computing Diagnostic #   214 "GM_PsiY " (list#  1) Parms "VV      LR      ", Count=      10
             Vector  Mate for "GM_PsiY " :  Diagnostic #    213 "GM_PsiX " exists
 EXTERNAL_FIELDS_LOAD,      1340 : iP,iLd,i0,i1=    9   10    9   10 ; Wght=  0.8333333333  0.1666666667
 cg2d: Sum(rhs),rhsMax =  -4.54747350886464E-13  5.45586630956585E+00
 EXTERNAL_FIELDS_LOAD,      1341 : iP,iLd,i0,i1=    9   10    9   10 ; Wght=  0.8000000000  0.2000000000
 cg2d: Sum(rhs),rhsMax =  -1.13686837721616E-13  5.45544252949681E+00
 EXTERNAL_FIELDS_LOAD,      1342 : iP,iLd,i0,i1=    9   10    9   10 ; Wght=  0.7666666667  0.2333333333
 cg2d: Sum(rhs),rhsMax =  -2.55795384873636E-13  5.45508343871622E+00
 EXTERNAL_FIELDS_LOAD,      1343 : iP,iLd,i0,i1=    9   10    9   10 ; Wght=  0.7333333333  0.2666666667
 cg2d: Sum(rhs),rhsMax =  -2.84217094304040E-13  5.45481312206577E+00
 EXTERNAL_FIELDS_LOAD,      1344 : iP,iLd,i0,i1=    9   10    9   10 ; Wght=  0.7000000000  0.3000000000
 cg2d: Sum(rhs),rhsMax =  -1.98951966012828E-13  5.45465462834765E+00
 EXTERNAL_FIELDS_LOAD,      1345 : iP,iLd,i0,i1=    9   10    9   10 ; Wght=  0.6666666667  0.3333333333
 cg2d: Sum(rhs),rhsMax =   2.84217094304040E-14  5.45462850403795E+00
 Compute Stats, Diag. #    23 "ETAN    " (list#  1) Parms "SM      M1      ", vol(  0 )= 3.639E+14
 Compute Stats, Diag. #    30 "UVEL    " (list#  1) Parms "UUR     MR      ", vol(  0 )= 1.231E+18
 Compute Stats, Diag. #    31 "VVEL    " (list#  1) Parms "VVR     MR      ", vol(  0 )= 1.243E+18
 Compute Stats, Diag. #    32 "WVEL    " (list#  1) Parms "WM      LR      ", vol(  0 )= 1.315E+18
 Compute Stats, Diag. #    26 "THETA   " (list#  1) Parms "SMR     MR      ", vol(  0 )= 1.340E+18
 EXTERNAL_FIELDS_LOAD,      1346 : iP,iLd,i0,i1=    9   10    9   10 ; Wght=  0.6333333333  0.3666666667
 cg2d: Sum(rhs),rhsMax =  -1.70530256582424E-13  5.45475253373694E+00
 EXTERNAL_FIELDS_LOAD,      1347 : iP,iLd,i0,i1=    9   10    9   10 ; Wght=  0.6000000000  0.4000000000
 cg2d: Sum(rhs),rhsMax =  -1.42108547152020E-13  5.45504073067069E+00
 EXTERNAL_FIELDS_LOAD,      1348 : iP,iLd,i0,i1=    9   10    9   10 ; Wght=  0.5666666667  0.4333333333
 cg2d: Sum(rhs),rhsMax =  -2.27373675443232E-13  5.45550209428172E+00
 EXTERNAL_FIELDS_LOAD,      1349 : iP,iLd,i0,i1=    9   10    9   10 ; Wght=  0.5333333333  0.4666666667
 cg2d: Sum(rhs),rhsMax =  -3.12638803734444E-13  5.45614927097940E+00
(PID.TID 0000.0001)      cg2d_init_res =   1.51559999931121E-01
(PID.TID 0000.0001)      cg2d_iters(min,last) =      -1      59
(PID.TID 0000.0001)      cg2d_last_res =   5.54674972110645E-07
(PID.TID 0000.0001) // =======================================================
(PID.TID 0000.0001) // Begin MONITOR dynamic field statistics
(PID.TID 0000.0001) // =======================================================
(PID.TID 0000.0001) %MON time_tsnumber                =                  1350
(PID.TID 0000.0001) %MON time_secondsf                =   1.1664000000000E+08
(PID.TID 0000.0001) %MON dynstat_eta_max              =   1.0415682475616E+00
(PID.TID 0000.0001) %MON dynstat_eta_min              =  -1.8659855836194E+00
(PID.TID 0000.0001) %MON dynstat_eta_mean             =   4.1221617755892E-16
(PID.TID 0000.0001) %MON dynstat_eta_sd               =   6.3281728014098E-01
(PID.TID 0000.0001) %MON dynstat_eta_del2             =   8.5980347878057E-04
(PID.TID 0000.0001) %MON dynstat_uvel_max             =   2.8608806155924E-01
(PID.TID 0000.0001) %MON dynstat_uvel_min             =  -2.7040017173817E-01
(PID.TID 0000.0001) %MON dynstat_uvel_mean            =  -5.1834246595237E-04
(PID.TID 0000.0001) %MON dynstat_uvel_sd              =   1.3297469137584E-02
(PID.TID 0000.0001) %MON dynstat_uvel_del2            =   5.7625272140704E-05
(PID.TID 0000.0001) %MON dynstat_vvel_max             =   3.1535546406093E-01
(PID.TID 0000.0001) %MON dynstat_vvel_min             =  -2.6455941791651E-01
(PID.TID 0000.0001) %MON dynstat_vvel_mean            =  -3.9463308090894E-04
(PID.TID 0000.0001) %MON dynstat_vvel_sd              =   1.3763568543378E-02
(PID.TID 0000.0001) %MON dynstat_vvel_del2            =   5.7855002649844E-05
(PID.TID 0000.0001) %MON dynstat_wvel_max             =   1.1392129693929E-04
(PID.TID 0000.0001) %MON dynstat_wvel_min             =  -2.1613102884970E-04
(PID.TID 0000.0001) %MON dynstat_wvel_mean            =   2.8429952436892E-22
(PID.TID 0000.0001) %MON dynstat_wvel_sd              =   4.3488553830433E-06
(PID.TID 0000.0001) %MON dynstat_wvel_del2            =   3.4800251518217E-08
(PID.TID 0000.0001) %MON dynstat_theta_max            =   3.2407725757037E+01
(PID.TID 0000.0001) %MON dynstat_theta_min            =  -7.4491243782447E+00
(PID.TID 0000.0001) %MON dynstat_theta_mean           =   3.6076833372329E+00
(PID.TID 0000.0001) %MON dynstat_theta_sd             =   4.4182306202504E+00
(PID.TID 0000.0001) %MON dynstat_theta_del2           =   3.1636677742010E-03
(PID.TID 0000.0001) %MON dynstat_salt_max             =   4.1318446848349E+01
(PID.TID 0000.0001) %MON dynstat_salt_min             =   1.8676988272075E+01
(PID.TID 0000.0001) %MON dynstat_salt_mean            =   3.4721475451331E+01
(PID.TID 0000.0001) %MON dynstat_salt_sd              =   4.9621896753934E-01
(PID.TID 0000.0001) %MON dynstat_salt_del2            =   9.6750559597059E-04
(PID.TID 0000.0001) %MON forcing_qnet_max             =   1.7226335228087E+02
(PID.TID 0000.0001) %MON forcing_qnet_min             =  -1.2167347573012E+02
(PID.TID 0000.0001) %MON forcing_qnet_mean            =  -5.4581290897012E+00
(PID.TID 0000.0001) %MON forcing_qnet_sd              =   4.6003165005274E+01
(PID.TID 0000.0001) %MON forcing_qnet_del2            =   3.6665444476665E-01
(PID.TID 0000.0001) %MON forcing_qsw_max              =   0.0000000000000E+00
(PID.TID 0000.0001) %MON forcing_qsw_min              =   0.0000000000000E+00
(PID.TID 0000.0001) %MON forcing_qsw_mean             =   0.0000000000000E+00
(PID.TID 0000.0001) %MON forcing_qsw_sd               =   0.0000000000000E+00
(PID.TID 0000.0001) %MON forcing_qsw_del2             =   0.0000000000000E+00
(PID.TID 0000.0001) %MON forcing_empmr_max            =   7.6494447208479E-05
(PID.TID 0000.0001) %MON forcing_empmr_min            =  -1.5362614137596E-04
(PID.TID 0000.0001) %MON forcing_empmr_mean           =  -2.7256318706594E-21
(PID.TID 0000.0001) %MON forcing_empmr_sd             =   2.4051723601802E-05
(PID.TID 0000.0001) %MON forcing_empmr_del2           =   1.2276157049243E-07
(PID.TID 0000.0001) %MON forcing_fu_max               =   3.2743992123322E-01
(PID.TID 0000.0001) %MON forcing_fu_min               =  -2.8385275945570E-01
(PID.TID 0000.0001) %MON forcing_fu_mean              =  -4.6229742049373E-03
(PID.TID 0000.0001) %MON forcing_fu_sd                =   7.7186806088874E-02
(PID.TID 0000.0001) %MON forcing_fu_del2              =   2.0806739202098E-04
(PID.TID 0000.0001) %MON forcing_fv_max               =   2.4905121089957E-01
(PID.TID 0000.0001) %MON forcing_fv_min               =  -3.3699518760212E-01
(PID.TID 0000.0001) %MON forcing_fv_mean              =  -8.2032430591580E-03
(PID.TID 0000.0001) %MON forcing_fv_sd                =   7.5566589024491E-02
(PID.TID 0000.0001) %MON forcing_fv_del2              =   2.1186363648930E-04
(PID.TID 0000.0001) %MON trAdv_CFL_u_max              =   1.0187866437626E-01
(PID.TID 0000.0001) %MON trAdv_CFL_v_max              =   9.0474335769976E-02
(PID.TID 0000.0001) %MON trAdv_CFL_w_max              =   8.9880448634818E-02
(PID.TID 0000.0001) %MON advcfl_uvel_max              =   8.3248607079809E-02
(PID.TID 0000.0001) %MON advcfl_vvel_max              =   9.0659614696286E-02
(PID.TID 0000.0001) %MON advcfl_wvel_max              =   7.0466871292883E-02
(PID.TID 0000.0001) %MON advcfl_W_hf_max              =   7.7807170385891E-02
(PID.TID 0000.0001) %MON pe_b_mean                    =   5.3348367279932E-04
(PID.TID 0000.0001) %MON ke_max                       =   6.5623160924446E-02
(PID.TID 0000.0001) %MON ke_mean                      =   1.6931585396475E-04
(PID.TID 0000.0001) %MON ke_vol                       =   1.3398024453628E+18
(PID.TID 0000.0001) %MON vort_r_min                   =  -1.0228764017349E-06
(PID.TID 0000.0001) %MON vort_r_max                   =   1.8620723105926E-06
(PID.TID 0000.0001) %MON vort_a_mean                  =  -2.0549865324846E-05
(PID.TID 0000.0001) %MON vort_a_sd                    =   7.5259629731658E-05
(PID.TID 0000.0001) %MON vort_p_mean                  =  -2.4783522345032E-05
(PID.TID 0000.0001) %MON vort_p_sd                    =   1.2810601511986E-04
(PID.TID 0000.0001) %MON surfExpan_theta_mean         =   4.8286269686191E-08
(PID.TID 0000.0001) %MON surfExpan_salt_mean          =   1.6077495358587E-08
(PID.TID 0000.0001) // =======================================================
(PID.TID 0000.0001) // End MONITOR dynamic field statistics
(PID.TID 0000.0001) // =======================================================
(PID.TID 0000.0001) // =======================================================
(PID.TID 0000.0001) // Begin MONITOR ptracer field statistics
(PID.TID 0000.0001) // =======================================================
(PID.TID 0000.0001) %MON trcstat_ptracer01_max        =   1.1867173946270E+08
(PID.TID 0000.0001) %MON trcstat_ptracer01_min        =  -3.9376626660484E+06
(PID.TID 0000.0001) %MON trcstat_ptracer01_mean       =   1.1239267652519E+08
(PID.TID 0000.0001) %MON trcstat_ptracer01_sd         =   1.7325957728384E+07
(PID.TID 0000.0001) %MON trcstat_ptracer01_del2       =   3.8367514770652E+04
(PID.TID 0000.0001) // =======================================================
(PID.TID 0000.0001) // End MONITOR ptracer field statistics
(PID.TID 0000.0001) // =======================================================
 Computing Diagnostic #    79 "DRHODR  " (list#  1) Parms "SM      LR      ", Count=      10
 Computing Diagnostic #    64 "RHOAnoma" (list#  1) Parms "SMR     MR      ", Count=      10
 Computing Diagnostic #    80 "CONVADJ " (list#  1) Parms "SMR     LR      ", Count=      10
 Computing Diagnostic #   210 "GM_Kwx  " (list#  1) Parms "UM      LR      ", Count=      10
             Vector  Mate for "GM_Kwx  " :  Diagnostic #    211 "GM_Kwy  " exists
 Computing Diagnostic #   211 "GM_Kwy  " (list#  1) Parms "VM      LR      ", Count=      10
             Vector  Mate for "GM_Kwy  " :  Diagnostic #    210 "GM_Kwx  " exists
 Computing Diagnostic #   212 "GM_Kwz  " (list#  1) Parms "WM P    LR      ", Count=      10
 Computing Diagnostic #   213 "GM_PsiX " (list#  1) Parms "UU      LR      ", Count=      10
             Vector  Mate for "GM_PsiX " :  Diagnostic #    214 "GM_PsiY " exists
 Computing Diagnostic #   214 "GM_PsiY " (list#  1) Parms "VV      LR      ", Count=      10
             Vector  Mate for "GM_PsiY " :  Diagnostic #    213 "GM_PsiX " exists
 EXTERNAL_FIELDS_LOAD,      1350 : iP,iLd,i0,i1=    9   10    9   10 ; Wght=  0.5000000000  0.5000000000
 cg2d: Sum(rhs),rhsMax =  -2.84217094304040E-13  5.45698827565123E+00
 EXTERNAL_FIELDS_LOAD,      1351 : iP,iLd,i0,i1=    9   10    9   10 ; Wght=  0.4666666667  0.5333333333
 cg2d: Sum(rhs),rhsMax =  -1.98951966012828E-13  5.45801899698450E+00
 EXTERNAL_FIELDS_LOAD,      1352 : iP,iLd,i0,i1=    9   10    9   10 ; Wght=  0.4333333333  0.5666666667
 cg2d: Sum(rhs),rhsMax =  -1.98951966012828E-13  5.45923980350875E+00
 EXTERNAL_FIELDS_LOAD,      1353 : iP,iLd,i0,i1=    9   10    9   10 ; Wght=  0.4000000000  0.6000000000
 cg2d: Sum(rhs),rhsMax =  -3.69482222595252E-13  5.46064500872223E+00
 EXTERNAL_FIELDS_LOAD,      1354 : iP,iLd,i0,i1=    9   10    9   10 ; Wght=  0.3666666667  0.6333333333
 cg2d: Sum(rhs),rhsMax =  -2.27373675443232E-13  5.46222605793905E+00
 EXTERNAL_FIELDS_LOAD,      1355 : iP,iLd,i0,i1=    9   10    9   10 ; Wght=  0.3333333333  0.6666666667
 cg2d: Sum(rhs),rhsMax =  -2.84217094304040E-13  5.46397081898639E+00
 Compute Stats, Diag. #    23 "ETAN    " (list#  1) Parms "SM      M1      ", vol(  0 )= 3.639E+14
 Compute Stats, Diag. #    30 "UVEL    " (list#  1) Parms "UUR     MR      ", vol(  0 )= 1.231E+18
 Compute Stats, Diag. #    31 "VVEL    " (list#  1) Parms "VVR     MR      ", vol(  0 )= 1.243E+18
 Compute Stats, Diag. #    32 "WVEL    " (list#  1) Parms "WM      LR      ", vol(  0 )= 1.315E+18
 Compute Stats, Diag. #    26 "THETA   " (list#  1) Parms "SMR     MR      ", vol(  0 )= 1.340E+18
 EXTERNAL_FIELDS_LOAD,      1356 : iP,iLd,i0,i1=    9   10    9   10 ; Wght=  0.3000000000  0.7000000000
 cg2d: Sum(rhs),rhsMax =  -3.12638803734444E-13  5.46586422771779E+00
 EXTERNAL_FIELDS_LOAD,      1357 : iP,iLd,i0,i1=    9   10    9   10 ; Wght=  0.2666666667  0.7333333333
 cg2d: Sum(rhs),rhsMax =  -1.42108547152020E-13  5.46788829422878E+00
 EXTERNAL_FIELDS_LOAD,      1358 : iP,iLd,i0,i1=    9   10    9   10 ; Wght=  0.2333333333  0.7666666667
 cg2d: Sum(rhs),rhsMax =  -3.12638803734444E-13  5.47002322986069E+00
 EXTERNAL_FIELDS_LOAD,      1359 : iP,iLd,i0,i1=    9   10    9   10 ; Wght=  0.2000000000  0.8000000000
 cg2d: Sum(rhs),rhsMax =  -1.70530256582424E-13  5.47225091522640E+00
 Computing Diagnostic #    79 "DRHODR  " (list#  1) Parms "SM      LR      ", Count=      10
 Computing Diagnostic #    64 "RHOAnoma" (list#  1) Parms "SMR     MR      ", Count=      10
 Computing Diagnostic #    80 "CONVADJ " (list#  1) Parms "SMR     LR      ", Count=      10
 Computing Diagnostic #   210 "GM_Kwx  " (list#  1) Parms "UM      LR      ", Count=      10
             Vector  Mate for "GM_Kwx  " :  Diagnostic #    211 "GM_Kwy  " exists
 Computing Diagnostic #   211 "GM_Kwy  " (list#  1) Parms "VM      LR      ", Count=      10
             Vector  Mate for "GM_Kwy  " :  Diagnostic #    210 "GM_Kwx  " exists
 Computing Diagnostic #   212 "GM_Kwz  " (list#  1) Parms "WM P    LR      ", Count=      10
 Computing Diagnostic #   213 "GM_PsiX " (list#  1) Parms "UU      LR      ", Count=      10
             Vector  Mate for "GM_PsiX " :  Diagnostic #    214 "GM_PsiY " exists
 Computing Diagnostic #   214 "GM_PsiY " (list#  1) Parms "VV      LR      ", Count=      10
             Vector  Mate for "GM_PsiY " :  Diagnostic #    213 "GM_PsiX " exists
 EXTERNAL_FIELDS_LOAD,      1360 : iP,iLd,i0,i1=    9   10    9   10 ; Wght=  0.1666666667  0.8333333333
 cg2d: Sum(rhs),rhsMax =  -4.54747350886464E-13  5.47454762021860E+00
 EXTERNAL_FIELDS_LOAD,      1361 : iP,iLd,i0,i1=    9   10    9   10 ; Wght=  0.1333333333  0.8666666667
 cg2d: Sum(rhs),rhsMax =  -8.52651282912120E-14  5.47689091035530E+00
 EXTERNAL_FIELDS_LOAD,      1362 : iP,iLd,i0,i1=    9   10    9   10 ; Wght=  0.1000000000  0.9000000000
 cg2d: Sum(rhs),rhsMax =  -5.96855898038484E-13  5.47925694293250E+00
 EXTERNAL_FIELDS_LOAD,      1363 : iP,iLd,i0,i1=    9   10    9   10 ; Wght=  0.0666666667  0.9333333333
 cg2d: Sum(rhs),rhsMax =  -2.55795384873636E-13  5.48162252569055E+00
 EXTERNAL_FIELDS_LOAD,      1364 : iP,iLd,i0,i1=    9   10    9   10 ; Wght=  0.0333333333  0.9666666667
 cg2d: Sum(rhs),rhsMax =  -2.27373675443232E-13  5.48396491965016E+00
 EXTERNAL_FIELDS_LOAD,      1365 : iP,iLd,i0,i1=    9   10   10   11 ; Wght=  1.0000000000  0.0000000000
 EXTERNAL_FIELDS_LOAD, it=      1365 : Reading new data, i0,i1=   10   11 (prev=    9   10 )
(PID.TID 0000.0001)  MDS_READ_FIELD: opening global file: trenberth_taux.bin
(PID.TID 0000.0001)  MDS_READ_FIELD: opening global file: trenberth_taux.bin
(PID.TID 0000.0001)  MDS_READ_FIELD: opening global file: trenberth_tauy.bin
(PID.TID 0000.0001)  MDS_READ_FIELD: opening global file: trenberth_tauy.bin
(PID.TID 0000.0001)  MDS_READ_FIELD: opening global file: shiQnet_cs32.bin
(PID.TID 0000.0001)  MDS_READ_FIELD: opening global file: shiQnet_cs32.bin
(PID.TID 0000.0001)  MDS_READ_FIELD: opening global file: shiEmPR_cs32.bin
(PID.TID 0000.0001)  MDS_READ_FIELD: opening global file: shiEmPR_cs32.bin
(PID.TID 0000.0001)  MDS_READ_FIELD: opening global file: lev_surfT_cs_12m.bin
(PID.TID 0000.0001)  MDS_READ_FIELD: opening global file: lev_surfT_cs_12m.bin
(PID.TID 0000.0001)  MDS_READ_FIELD: opening global file: lev_surfS_cs_12m.bin
(PID.TID 0000.0001)  MDS_READ_FIELD: opening global file: lev_surfS_cs_12m.bin
 cg2d: Sum(rhs),rhsMax =  -3.12638803734444E-13  5.48626201245149E+00
 Compute Stats, Diag. #    23 "ETAN    " (list#  1) Parms "SM      M1      ", vol(  0 )= 3.639E+14
 Compute Stats, Diag. #    30 "UVEL    " (list#  1) Parms "UUR     MR      ", vol(  0 )= 1.231E+18
 Compute Stats, Diag. #    31 "VVEL    " (list#  1) Parms "VVR     MR      ", vol(  0 )= 1.243E+18
 Compute Stats, Diag. #    32 "WVEL    " (list#  1) Parms "WM      LR      ", vol(  0 )= 1.315E+18
 Compute Stats, Diag. #    26 "THETA   " (list#  1) Parms "SMR     MR      ", vol(  0 )= 1.340E+18
 EXTERNAL_FIELDS_LOAD,      1366 : iP,iLd,i0,i1=   10   11   10   11 ; Wght=  0.9666666667  0.0333333333
 cg2d: Sum(rhs),rhsMax =  -1.42108547152020E-13  5.48844985067409E+00
 EXTERNAL_FIELDS_LOAD,      1367 : iP,iLd,i0,i1=   10   11   10   11 ; Wght=  0.9333333333  0.0666666667
 cg2d: Sum(rhs),rhsMax =  -5.68434188608080E-14  5.49053891778178E+00
 EXTERNAL_FIELDS_LOAD,      1368 : iP,iLd,i0,i1=   10   11   10   11 ; Wght=  0.9000000000  0.1000000000
 cg2d: Sum(rhs),rhsMax =  -2.55795384873636E-13  5.49248871372309E+00
 EXTERNAL_FIELDS_LOAD,      1369 : iP,iLd,i0,i1=   10   11   10   11 ; Wght=  0.8666666667  0.1333333333
 cg2d: Sum(rhs),rhsMax =  -3.12638803734444E-13  5.49426769037338E+00
 Computing Diagnostic #    79 "DRHODR  " (list#  1) Parms "SM      LR      ", Count=      10
 Computing Diagnostic #    64 "RHOAnoma" (list#  1) Parms "SMR     MR      ", Count=      10
 Computing Diagnostic #    80 "CONVADJ " (list#  1) Parms "SMR     LR      ", Count=      10
 Computing Diagnostic #   210 "GM_Kwx  " (list#  1) Parms "UM      LR      ", Count=      10
             Vector  Mate for "GM_Kwx  " :  Diagnostic #    211 "GM_Kwy  " exists
 Computing Diagnostic #   211 "GM_Kwy  " (list#  1) Parms "VM      LR      ", Count=      10
             Vector  Mate for "GM_Kwy  " :  Diagnostic #    210 "GM_Kwx  " exists
 Computing Diagnostic #   212 "GM_Kwz  " (list#  1) Parms "WM P    LR      ", Count=      10
 Computing Diagnostic #   213 "GM_PsiX " (list#  1) Parms "UU      LR      ", Count=      10
             Vector  Mate for "GM_PsiX " :  Diagnostic #    214 "GM_PsiY " exists
 Computing Diagnostic #   214 "GM_PsiY " (list#  1) Parms "VV      LR      ", Count=      10
             Vector  Mate for "GM_PsiY " :  Diagnostic #    213 "GM_PsiX " exists
 EXTERNAL_FIELDS_LOAD,      1370 : iP,iLd,i0,i1=   10   11   10   11 ; Wght=  0.8333333333  0.1666666667
 cg2d: Sum(rhs),rhsMax =  -1.98951966012828E-13  5.49585570112788E+00
 EXTERNAL_FIELDS_LOAD,      1371 : iP,iLd,i0,i1=   10   11   10   11 ; Wght=  0.8000000000  0.2000000000
 cg2d: Sum(rhs),rhsMax =  -1.98951966012828E-13  5.49723575388391E+00
 EXTERNAL_FIELDS_LOAD,      1372 : iP,iLd,i0,i1=   10   11   10   11 ; Wght=  0.7666666667  0.2333333333
 cg2d: Sum(rhs),rhsMax =   2.84217094304040E-14  5.49839390872489E+00
 EXTERNAL_FIELDS_LOAD,      1373 : iP,iLd,i0,i1=   10   11   10   11 ; Wght=  0.7333333333  0.2666666667
 cg2d: Sum(rhs),rhsMax =  -4.54747350886464E-13  5.49931909879749E+00
 EXTERNAL_FIELDS_LOAD,      1374 : iP,iLd,i0,i1=   10   11   10   11 ; Wght=  0.7000000000  0.3000000000
 cg2d: Sum(rhs),rhsMax =  -2.27373675443232E-13  5.50000356516612E+00
 EXTERNAL_FIELDS_LOAD,      1375 : iP,iLd,i0,i1=   10   11   10   11 ; Wght=  0.6666666667  0.3333333333
 cg2d: Sum(rhs),rhsMax =  -4.54747350886464E-13  5.50044268663553E+00
 Compute Stats, Diag. #    23 "ETAN    " (list#  1) Parms "SM      M1      ", vol(  0 )= 3.639E+14
 Compute Stats, Diag. #    30 "UVEL    " (list#  1) Parms "UUR     MR      ", vol(  0 )= 1.231E+18
 Compute Stats, Diag. #    31 "VVEL    " (list#  1) Parms "VVR     MR      ", vol(  0 )= 1.243E+18
 Compute Stats, Diag. #    32 "WVEL    " (list#  1) Parms "WM      LR      ", vol(  0 )= 1.315E+18
 Compute Stats, Diag. #    26 "THETA   " (list#  1) Parms "SMR     MR      ", vol(  0 )= 1.340E+18
 EXTERNAL_FIELDS_LOAD,      1376 : iP,iLd,i0,i1=   10   11   10   11 ; Wght=  0.6333333333  0.3666666667
 cg2d: Sum(rhs),rhsMax =  -3.69482222595252E-13  5.50063504200960E+00
 EXTERNAL_FIELDS_LOAD,      1377 : iP,iLd,i0,i1=   10   11   10   11 ; Wght=  0.6000000000  0.4000000000
 cg2d: Sum(rhs),rhsMax =  -1.98951966012828E-13  5.50058228633797E+00
 EXTERNAL_FIELDS_LOAD,      1378 : iP,iLd,i0,i1=   10   11   10   11 ; Wght=  0.5666666667  0.4333333333
 cg2d: Sum(rhs),rhsMax =  -1.70530256582424E-13  5.50028901989522E+00
 EXTERNAL_FIELDS_LOAD,      1379 : iP,iLd,i0,i1=   10   11   10   11 ; Wght=  0.5333333333  0.4666666667
 cg2d: Sum(rhs),rhsMax =  -1.98951966012828E-13  5.49976265448043E+00
(PID.TID 0000.0001)      cg2d_init_res =   1.58136285201759E-01
(PID.TID 0000.0001)      cg2d_iters(min,last) =      -1      62
(PID.TID 0000.0001)      cg2d_last_res =   5.64034128077780E-07
(PID.TID 0000.0001) // =======================================================
(PID.TID 0000.0001) // Begin MONITOR dynamic field statistics
(PID.TID 0000.0001) // =======================================================
(PID.TID 0000.0001) %MON time_tsnumber                =                  1380
(PID.TID 0000.0001) %MON time_secondsf                =   1.1923200000000E+08
(PID.TID 0000.0001) %MON dynstat_eta_max              =   1.0155933387610E+00
(PID.TID 0000.0001) %MON dynstat_eta_min              =  -1.8633192980069E+00
(PID.TID 0000.0001) %MON dynstat_eta_mean             =   2.1984862803142E-16
(PID.TID 0000.0001) %MON dynstat_eta_sd               =   6.3333397524576E-01
(PID.TID 0000.0001) %MON dynstat_eta_del2             =   8.5748446368509E-04
(PID.TID 0000.0001) %MON dynstat_uvel_max             =   1.9217530003398E-01
(PID.TID 0000.0001) %MON dynstat_uvel_min             =  -2.8189541455965E-01
(PID.TID 0000.0001) %MON dynstat_uvel_mean            =  -5.1665021791712E-04
(PID.TID 0000.0001) %MON dynstat_uvel_sd              =   1.3161636336886E-02
(PID.TID 0000.0001) %MON dynstat_uvel_del2            =   5.7344028604819E-05
(PID.TID 0000.0001) %MON dynstat_vvel_max             =   2.1411960269949E-01
(PID.TID 0000.0001) %MON dynstat_vvel_min             =  -2.3140661514417E-01
(PID.TID 0000.0001) %MON dynstat_vvel_mean            =  -3.9938269128874E-04
(PID.TID 0000.0001) %MON dynstat_vvel_sd              =   1.3590646612584E-02
(PID.TID 0000.0001) %MON dynstat_vvel_del2            =   5.7349033147420E-05
(PID.TID 0000.0001) %MON dynstat_wvel_max             =   1.1841803878470E-04
(PID.TID 0000.0001) %MON dynstat_wvel_min             =  -2.1354421183988E-04
(PID.TID 0000.0001) %MON dynstat_wvel_mean            =  -6.2371834427875E-23
(PID.TID 0000.0001) %MON dynstat_wvel_sd              =   4.3366862480436E-06
(PID.TID 0000.0001) %MON dynstat_wvel_del2            =   3.4497050789145E-08
(PID.TID 0000.0001) %MON dynstat_theta_max            =   3.1304629327131E+01
(PID.TID 0000.0001) %MON dynstat_theta_min            =  -7.5329312527729E+00
(PID.TID 0000.0001) %MON dynstat_theta_mean           =   3.6085616911432E+00
(PID.TID 0000.0001) %MON dynstat_theta_sd             =   4.4194278037715E+00
(PID.TID 0000.0001) %MON dynstat_theta_del2           =   3.1057709883055E-03
(PID.TID 0000.0001) %MON dynstat_salt_max             =   4.1321556431601E+01
(PID.TID 0000.0001) %MON dynstat_salt_min             =   1.8682237055208E+01
(PID.TID 0000.0001) %MON dynstat_salt_mean            =   3.4721477686569E+01
(PID.TID 0000.0001) %MON dynstat_salt_sd              =   4.9644655014442E-01
(PID.TID 0000.0001) %MON dynstat_salt_del2            =   9.6037249230992E-04
(PID.TID 0000.0001) %MON forcing_qnet_max             =   2.9793704503360E+02
(PID.TID 0000.0001) %MON forcing_qnet_min             =  -1.5960049763274E+02
(PID.TID 0000.0001) %MON forcing_qnet_mean            =  -9.1500673756630E+00
(PID.TID 0000.0001) %MON forcing_qnet_sd              =   7.6297913186258E+01
(PID.TID 0000.0001) %MON forcing_qnet_del2            =   3.7237364511610E-01
(PID.TID 0000.0001) %MON forcing_qsw_max              =   0.0000000000000E+00
(PID.TID 0000.0001) %MON forcing_qsw_min              =   0.0000000000000E+00
(PID.TID 0000.0001) %MON forcing_qsw_mean             =   0.0000000000000E+00
(PID.TID 0000.0001) %MON forcing_qsw_sd               =   0.0000000000000E+00
(PID.TID 0000.0001) %MON forcing_qsw_del2             =   0.0000000000000E+00
(PID.TID 0000.0001) %MON forcing_empmr_max            =   7.6494447208479E-05
(PID.TID 0000.0001) %MON forcing_empmr_min            =  -1.5362614137596E-04
(PID.TID 0000.0001) %MON forcing_empmr_mean           =  -2.7256318706594E-21
(PID.TID 0000.0001) %MON forcing_empmr_sd             =   2.4051723601802E-05
(PID.TID 0000.0001) %MON forcing_empmr_del2           =   1.2276157049243E-07
(PID.TID 0000.0001) %MON forcing_fu_max               =   2.6915244895338E-01
(PID.TID 0000.0001) %MON forcing_fu_min               =  -2.7782947882907E-01
(PID.TID 0000.0001) %MON forcing_fu_mean              =  -6.4828803941406E-03
(PID.TID 0000.0001) %MON forcing_fu_sd                =   7.2811021444024E-02
(PID.TID 0000.0001) %MON forcing_fu_del2              =   1.9167538037379E-04
(PID.TID 0000.0001) %MON forcing_fv_max               =   2.2045225648718E-01
(PID.TID 0000.0001) %MON forcing_fv_min               =  -3.0184930756779E-01
(PID.TID 0000.0001) %MON forcing_fv_mean              =  -9.4338065170268E-03
(PID.TID 0000.0001) %MON forcing_fv_sd                =   7.6063126012394E-02
(PID.TID 0000.0001) %MON forcing_fv_del2              =   2.0735338434629E-04
(PID.TID 0000.0001) %MON trAdv_CFL_u_max              =   1.0123799079767E-01
(PID.TID 0000.0001) %MON trAdv_CFL_v_max              =   1.2386377378742E-01
(PID.TID 0000.0001) %MON trAdv_CFL_w_max              =   1.1845653188918E-01
(PID.TID 0000.0001) %MON advcfl_uvel_max              =   7.9950886754864E-02
(PID.TID 0000.0001) %MON advcfl_vvel_max              =   7.4801739115664E-02
(PID.TID 0000.0001) %MON advcfl_wvel_max              =   6.9623471331945E-02
(PID.TID 0000.0001) %MON advcfl_W_hf_max              =   7.6875916262356E-02
(PID.TID 0000.0001) %MON pe_b_mean                    =   5.3435520695075E-04
(PID.TID 0000.0001) %MON ke_max                       =   4.0905968908797E-02
(PID.TID 0000.0001) %MON ke_mean                      =   1.6547080943366E-04
(PID.TID 0000.0001) %MON ke_vol                       =   1.3398024453628E+18
(PID.TID 0000.0001) %MON vort_r_min                   =  -1.0288844781718E-06
(PID.TID 0000.0001) %MON vort_r_max                   =   1.3738398443983E-06
(PID.TID 0000.0001) %MON vort_a_mean                  =  -2.0549865324846E-05
(PID.TID 0000.0001) %MON vort_a_sd                    =   7.5259629851047E-05
(PID.TID 0000.0001) %MON vort_p_mean                  =  -2.4783522345032E-05
(PID.TID 0000.0001) %MON vort_p_sd                    =   1.2810599410944E-04
(PID.TID 0000.0001) %MON surfExpan_theta_mean         =   4.0358116953745E-08
(PID.TID 0000.0001) %MON surfExpan_salt_mean          =   1.5713206542730E-08
(PID.TID 0000.0001) // =======================================================
(PID.TID 0000.0001) // End MONITOR dynamic field statistics
(PID.TID 0000.0001) // =======================================================
(PID.TID 0000.0001) // =======================================================
(PID.TID 0000.0001) // Begin MONITOR ptracer field statistics
(PID.TID 0000.0001) // =======================================================
(PID.TID 0000.0001) %MON trcstat_ptracer01_max        =   1.2146350459738E+08
(PID.TID 0000.0001) %MON trcstat_ptracer01_min        =  -3.2954043672150E+06
(PID.TID 0000.0001) %MON trcstat_ptracer01_mean       =   1.1482784500542E+08
(PID.TID 0000.0001) %MON trcstat_ptracer01_sd         =   1.7853920344230E+07
(PID.TID 0000.0001) %MON trcstat_ptracer01_del2       =   3.6464998286883E+04
(PID.TID 0000.0001) // =======================================================
(PID.TID 0000.0001) // End MONITOR ptracer field statistics
(PID.TID 0000.0001) // =======================================================
 Computing Diagnostic #    79 "DRHODR  " (list#  1) Parms "SM      LR      ", Count=      10
 Computing Diagnostic #    64 "RHOAnoma" (list#  1) Parms "SMR     MR      ", Count=      10
 Computing Diagnostic #    80 "CONVADJ " (list#  1) Parms "SMR     LR      ", Count=      10
 Computing Diagnostic #   210 "GM_Kwx  " (list#  1) Parms "UM      LR      ", Count=      10
             Vector  Mate for "GM_Kwx  " :  Diagnostic #    211 "GM_Kwy  " exists
 Computing Diagnostic #   211 "GM_Kwy  " (list#  1) Parms "VM      LR      ", Count=      10
             Vector  Mate for "GM_Kwy  " :  Diagnostic #    210 "GM_Kwx  " exists
 Computing Diagnostic #   212 "GM_Kwz  " (list#  1) Parms "WM P    LR      ", Count=      10
 Computing Diagnostic #   213 "GM_PsiX " (list#  1) Parms "UU      LR      ", Count=      10
             Vector  Mate for "GM_PsiX " :  Diagnostic #    214 "GM_PsiY " exists
 Computing Diagnostic #   214 "GM_PsiY " (list#  1) Parms "VV      LR      ", Count=      10
             Vector  Mate for "GM_PsiY " :  Diagnostic #    213 "GM_PsiX " exists
 EXTERNAL_FIELDS_LOAD,      1380 : iP,iLd,i0,i1=   10   11   10   11 ; Wght=  0.5000000000  0.5000000000
 cg2d: Sum(rhs),rhsMax =  -2.27373675443232E-13  5.49901317503840E+00
 EXTERNAL_FIELDS_LOAD,      1381 : iP,iLd,i0,i1=   10   11   10   11 ; Wght=  0.4666666667  0.5333333333
 cg2d: Sum(rhs),rhsMax =  -8.52651282912120E-14  5.49805297879196E+00
 EXTERNAL_FIELDS_LOAD,      1382 : iP,iLd,i0,i1=   10   11   10   11 ; Wght=  0.4333333333  0.5666666667
 cg2d: Sum(rhs),rhsMax =  -8.52651282912120E-14  5.49689665525301E+00
 EXTERNAL_FIELDS_LOAD,      1383 : iP,iLd,i0,i1=   10   11   10   11 ; Wght=  0.4000000000  0.6000000000
 cg2d: Sum(rhs),rhsMax =  -3.41060513164848E-13  5.49556074884167E+00
 EXTERNAL_FIELDS_LOAD,      1384 : iP,iLd,i0,i1=   10   11   10   11 ; Wght=  0.3666666667  0.6333333333
 cg2d: Sum(rhs),rhsMax =  -3.97903932025656E-13  5.49406330120854E+00
 EXTERNAL_FIELDS_LOAD,      1385 : iP,iLd,i0,i1=   10   11   10   11 ; Wght=  0.3333333333  0.6666666667
 cg2d: Sum(rhs),rhsMax =  -1.70530256582424E-13  5.49242386438562E+00
 Compute Stats, Diag. #    23 "ETAN    " (list#  1) Parms "SM      M1      ", vol(  0 )= 3.639E+14
 Compute Stats, Diag. #    30 "UVEL    " (list#  1) Parms "UUR     MR      ", vol(  0 )= 1.231E+18
 Compute Stats, Diag. #    31 "VVEL    " (list#  1) Parms "VVR     MR      ", vol(  0 )= 1.243E+18
 Compute Stats, Diag. #    32 "WVEL    " (list#  1) Parms "WM      LR      ", vol(  0 )= 1.315E+18
 Compute Stats, Diag. #    26 "THETA   " (list#  1) Parms "SMR     MR      ", vol(  0 )= 1.340E+18
 EXTERNAL_FIELDS_LOAD,      1386 : iP,iLd,i0,i1=   10   11   10   11 ; Wght=  0.3000000000  0.7000000000
 cg2d: Sum(rhs),rhsMax =  -4.54747350886464E-13  5.49066282261961E+00
 EXTERNAL_FIELDS_LOAD,      1387 : iP,iLd,i0,i1=   10   11   10   11 ; Wght=  0.2666666667  0.7333333333
 cg2d: Sum(rhs),rhsMax =  -1.42108547152020E-13  5.48880117066675E+00
 EXTERNAL_FIELDS_LOAD,      1388 : iP,iLd,i0,i1=   10   11   10   11 ; Wght=  0.2333333333  0.7666666667
 cg2d: Sum(rhs),rhsMax =  -1.42108547152020E-13  5.48686004390343E+00
 EXTERNAL_FIELDS_LOAD,      1389 : iP,iLd,i0,i1=   10   11   10   11 ; Wght=  0.2000000000  0.8000000000
 cg2d: Sum(rhs),rhsMax =  -2.27373675443232E-13  5.48486033330537E+00
 Computing Diagnostic #    79 "DRHODR  " (list#  1) Parms "SM      LR      ", Count=      10
 Computing Diagnostic #    64 "RHOAnoma" (list#  1) Parms "SMR     MR      ", Count=      10
 Computing Diagnostic #    80 "CONVADJ " (list#  1) Parms "SMR     LR      ", Count=      10
 Computing Diagnostic #   210 "GM_Kwx  " (list#  1) Parms "UM      LR      ", Count=      10
             Vector  Mate for "GM_Kwx  " :  Diagnostic #    211 "GM_Kwy  " exists
 Computing Diagnostic #   211 "GM_Kwy  " (list#  1) Parms "VM      LR      ", Count=      10
             Vector  Mate for "GM_Kwy  " :  Diagnostic #    210 "GM_Kwx  " exists
 Computing Diagnostic #   212 "GM_Kwz  " (list#  1) Parms "WM P    LR      ", Count=      10
 Computing Diagnostic #   213 "GM_PsiX " (list#  1) Parms "UU      LR      ", Count=      10
             Vector  Mate for "GM_PsiX " :  Diagnostic #    214 "GM_PsiY " exists
 Computing Diagnostic #   214 "GM_PsiY " (list#  1) Parms "VV      LR      ", Count=      10
             Vector  Mate for "GM_PsiY " :  Diagnostic #    213 "GM_PsiX " exists
 EXTERNAL_FIELDS_LOAD,      1390 : iP,iLd,i0,i1=   10   11   10   11 ; Wght=  0.1666666667  0.8333333333
 cg2d: Sum(rhs),rhsMax =  -8.52651282912120E-14  5.48282219433147E+00
 EXTERNAL_FIELDS_LOAD,      1391 : iP,iLd,i0,i1=   10   11   10   11 ; Wght=  0.1333333333  0.8666666667
 cg2d: Sum(rhs),rhsMax =  -4.54747350886464E-13  5.48076459234375E+00
 EXTERNAL_FIELDS_LOAD,      1392 : iP,iLd,i0,i1=   10   11   10   11 ; Wght=  0.1000000000  0.9000000000
 cg2d: Sum(rhs),rhsMax =  -2.84217094304040E-13  5.47870524854951E+00
 EXTERNAL_FIELDS_LOAD,      1393 : iP,iLd,i0,i1=   10   11   10   11 ; Wght=  0.0666666667  0.9333333333
 cg2d: Sum(rhs),rhsMax =  -2.84217094304040E-13  5.47666010840090E+00
 EXTERNAL_FIELDS_LOAD,      1394 : iP,iLd,i0,i1=   10   11   10   11 ; Wght=  0.0333333333  0.9666666667
 cg2d: Sum(rhs),rhsMax =  -4.83169060316868E-13  5.47464304478875E+00
 EXTERNAL_FIELDS_LOAD,      1395 : iP,iLd,i0,i1=   10   11   11   12 ; Wght=  1.0000000000  0.0000000000
 EXTERNAL_FIELDS_LOAD, it=      1395 : Reading new data, i0,i1=   11   12 (prev=   10   11 )
(PID.TID 0000.0001)  MDS_READ_FIELD: opening global file: trenberth_taux.bin
(PID.TID 0000.0001)  MDS_READ_FIELD: opening global file: trenberth_taux.bin
(PID.TID 0000.0001)  MDS_READ_FIELD: opening global file: trenberth_tauy.bin
(PID.TID 0000.0001)  MDS_READ_FIELD: opening global file: trenberth_tauy.bin
(PID.TID 0000.0001)  MDS_READ_FIELD: opening global file: shiQnet_cs32.bin
(PID.TID 0000.0001)  MDS_READ_FIELD: opening global file: shiQnet_cs32.bin
(PID.TID 0000.0001)  MDS_READ_FIELD: opening global file: shiEmPR_cs32.bin
(PID.TID 0000.0001)  MDS_READ_FIELD: opening global file: shiEmPR_cs32.bin
(PID.TID 0000.0001)  MDS_READ_FIELD: opening global file: lev_surfT_cs_12m.bin
(PID.TID 0000.0001)  MDS_READ_FIELD: opening global file: lev_surfT_cs_12m.bin
(PID.TID 0000.0001)  MDS_READ_FIELD: opening global file: lev_surfS_cs_12m.bin
(PID.TID 0000.0001)  MDS_READ_FIELD: opening global file: lev_surfS_cs_12m.bin
 cg2d: Sum(rhs),rhsMax =  -8.52651282912120E-14  5.47277294385336E+00
 Compute Stats, Diag. #    23 "ETAN    " (list#  1) Parms "SM      M1      ", vol(  0 )= 3.639E+14
 Compute Stats, Diag. #    30 "UVEL    " (list#  1) Parms "UUR     MR      ", vol(  0 )= 1.231E+18
 Compute Stats, Diag. #    31 "VVEL    " (list#  1) Parms "VVR     MR      ", vol(  0 )= 1.243E+18
 Compute Stats, Diag. #    32 "WVEL    " (list#  1) Parms "WM      LR      ", vol(  0 )= 1.315E+18
 Compute Stats, Diag. #    26 "THETA   " (list#  1) Parms "SMR     MR      ", vol(  0 )= 1.340E+18
 EXTERNAL_FIELDS_LOAD,      1396 : iP,iLd,i0,i1=   11   12   11   12 ; Wght=  0.9666666667  0.0333333333
 cg2d: Sum(rhs),rhsMax =  -2.27373675443232E-13  5.47084902452195E+00
 EXTERNAL_FIELDS_LOAD,      1397 : iP,iLd,i0,i1=   11   12   11   12 ; Wght=  0.9333333333  0.0666666667
 cg2d: Sum(rhs),rhsMax =  -2.84217094304040E-14  5.46898516301675E+00
 EXTERNAL_FIELDS_LOAD,      1398 : iP,iLd,i0,i1=   11   12   11   12 ; Wght=  0.9000000000  0.1000000000
 cg2d: Sum(rhs),rhsMax =  -5.68434188608080E-14  5.46720569713387E+00
 EXTERNAL_FIELDS_LOAD,      1399 : iP,iLd,i0,i1=   11   12   11   12 ; Wght=  0.8666666667  0.1333333333
 cg2d: Sum(rhs),rhsMax =  -2.84217094304040E-13  5.46552463939524E+00
 Computing Diagnostic #    79 "DRHODR  " (list#  1) Parms "SM      LR      ", Count=      10
 Computing Diagnostic #    64 "RHOAnoma" (list#  1) Parms "SMR     MR      ", Count=      10
 Computing Diagnostic #    80 "CONVADJ " (list#  1) Parms "SMR     LR      ", Count=      10
 Computing Diagnostic #   210 "GM_Kwx  " (list#  1) Parms "UM      LR      ", Count=      10
             Vector  Mate for "GM_Kwx  " :  Diagnostic #    211 "GM_Kwy  " exists
 Computing Diagnostic #   211 "GM_Kwy  " (list#  1) Parms "VM      LR      ", Count=      10
             Vector  Mate for "GM_Kwy  " :  Diagnostic #    210 "GM_Kwx  " exists
 Computing Diagnostic #   212 "GM_Kwz  " (list#  1) Parms "WM P    LR      ", Count=      10
 Computing Diagnostic #   213 "GM_PsiX " (list#  1) Parms "UU      LR      ", Count=      10
             Vector  Mate for "GM_PsiX " :  Diagnostic #    214 "GM_PsiY " exists
 Computing Diagnostic #   214 "GM_PsiY " (list#  1) Parms "VV      LR      ", Count=      10
             Vector  Mate for "GM_PsiY " :  Diagnostic #    213 "GM_PsiX " exists
 EXTERNAL_FIELDS_LOAD,      1400 : iP,iLd,i0,i1=   11   12   11   12 ; Wght=  0.8333333333  0.1666666667
 cg2d: Sum(rhs),rhsMax =  -2.84217094304040E-13  5.46394544071478E+00
 EXTERNAL_FIELDS_LOAD,      1401 : iP,iLd,i0,i1=   11   12   11   12 ; Wght=  0.8000000000  0.2000000000
 cg2d: Sum(rhs),rhsMax =  -2.84217094304040E-13  5.46246834814814E+00
 EXTERNAL_FIELDS_LOAD,      1402 : iP,iLd,i0,i1=   11   12   11   12 ; Wght=  0.7666666667  0.2333333333
 cg2d: Sum(rhs),rhsMax =  -2.84217094304040E-13  5.46109069551233E+00
 EXTERNAL_FIELDS_LOAD,      1403 : iP,iLd,i0,i1=   11   12   11   12 ; Wght=  0.7333333333  0.2666666667
 cg2d: Sum(rhs),rhsMax =  -3.41060513164848E-13  5.45980701032672E+00
 EXTERNAL_FIELDS_LOAD,      1404 : iP,iLd,i0,i1=   11   12   11   12 ; Wght=  0.7000000000  0.3000000000
 cg2d: Sum(rhs),rhsMax =  -2.55795384873636E-13  5.45860956035738E+00
 EXTERNAL_FIELDS_LOAD,      1405 : iP,iLd,i0,i1=   11   12   11   12 ; Wght=  0.6666666667  0.3333333333
 cg2d: Sum(rhs),rhsMax =  -3.41060513164848E-13  5.45748892133498E+00
 Compute Stats, Diag. #    23 "ETAN    " (list#  1) Parms "SM      M1      ", vol(  0 )= 3.639E+14
 Compute Stats, Diag. #    30 "UVEL    " (list#  1) Parms "UUR     MR      ", vol(  0 )= 1.231E+18
 Compute Stats, Diag. #    31 "VVEL    " (list#  1) Parms "VVR     MR      ", vol(  0 )= 1.243E+18
 Compute Stats, Diag. #    32 "WVEL    " (list#  1) Parms "WM      LR      ", vol(  0 )= 1.315E+18
 Compute Stats, Diag. #    26 "THETA   " (list#  1) Parms "SMR     MR      ", vol(  0 )= 1.340E+18
 EXTERNAL_FIELDS_LOAD,      1406 : iP,iLd,i0,i1=   11   12   11   12 ; Wght=  0.6333333333  0.3666666667
 cg2d: Sum(rhs),rhsMax =  -1.42108547152020E-13  5.45643436235287E+00
 EXTERNAL_FIELDS_LOAD,      1407 : iP,iLd,i0,i1=   11   12   11   12 ; Wght=  0.6000000000  0.4000000000
 cg2d: Sum(rhs),rhsMax =  -4.54747350886464E-13  5.45543422299916E+00
 EXTERNAL_FIELDS_LOAD,      1408 : iP,iLd,i0,i1=   11   12   11   12 ; Wght=  0.5666666667  0.4333333333
 cg2d: Sum(rhs),rhsMax =  -3.69482222595252E-13  5.45447624417283E+00
 EXTERNAL_FIELDS_LOAD,      1409 : iP,iLd,i0,i1=   11   12   11   12 ; Wght=  0.5333333333  0.4666666667
 cg2d: Sum(rhs),rhsMax =  -4.26325641456060E-13  5.45354788730925E+00
(PID.TID 0000.0001)      cg2d_init_res =   1.60136942149293E-01
(PID.TID 0000.0001)      cg2d_iters(min,last) =      -1      63
(PID.TID 0000.0001)      cg2d_last_res =   4.75826515788350E-07
(PID.TID 0000.0001) // =======================================================
(PID.TID 0000.0001) // Begin MONITOR dynamic field statistics
(PID.TID 0000.0001) // =======================================================
(PID.TID 0000.0001) %MON time_tsnumber                =                  1410
(PID.TID 0000.0001) %MON time_secondsf                =   1.2182400000000E+08
(PID.TID 0000.0001) %MON dynstat_eta_max              =   9.8154719973726E-01
(PID.TID 0000.0001) %MON dynstat_eta_min              =  -1.8578343328839E+00
(PID.TID 0000.0001) %MON dynstat_eta_mean             =   4.1221617755892E-16
(PID.TID 0000.0001) %MON dynstat_eta_sd               =   6.3012935943830E-01
(PID.TID 0000.0001) %MON dynstat_eta_del2             =   8.5824567122962E-04
(PID.TID 0000.0001) %MON dynstat_uvel_max             =   1.7548101665922E-01
(PID.TID 0000.0001) %MON dynstat_uvel_min             =  -2.9163662158420E-01
(PID.TID 0000.0001) %MON dynstat_uvel_mean            =  -5.2137385039481E-04
(PID.TID 0000.0001) %MON dynstat_uvel_sd              =   1.3168608249277E-02
(PID.TID 0000.0001) %MON dynstat_uvel_del2            =   5.6933994920949E-05
(PID.TID 0000.0001) %MON dynstat_vvel_max             =   1.9576545761750E-01
(PID.TID 0000.0001) %MON dynstat_vvel_min             =  -2.1927759487465E-01
(PID.TID 0000.0001) %MON dynstat_vvel_mean            =  -4.0996294962163E-04
(PID.TID 0000.0001) %MON dynstat_vvel_sd              =   1.3497455620680E-02
(PID.TID 0000.0001) %MON dynstat_vvel_del2            =   5.5927599326783E-05
(PID.TID 0000.0001) %MON dynstat_wvel_max             =   1.1665721840100E-04
(PID.TID 0000.0001) %MON dynstat_wvel_min             =  -2.0861463073345E-04
(PID.TID 0000.0001) %MON dynstat_wvel_mean            =  -1.3924874662967E-22
(PID.TID 0000.0001) %MON dynstat_wvel_sd              =   4.4261395471896E-06
(PID.TID 0000.0001) %MON dynstat_wvel_del2            =   3.3741852627853E-08
(PID.TID 0000.0001) %MON dynstat_theta_max            =   3.0513618645962E+01
(PID.TID 0000.0001) %MON dynstat_theta_min            =  -7.6027576999638E+00
(PID.TID 0000.0001) %MON dynstat_theta_mean           =   3.6093162841993E+00
(PID.TID 0000.0001) %MON dynstat_theta_sd             =   4.4154781007397E+00
(PID.TID 0000.0001) %MON dynstat_theta_del2           =   3.0431035033094E-03
(PID.TID 0000.0001) %MON dynstat_salt_max             =   4.1327398774331E+01
(PID.TID 0000.0001) %MON dynstat_salt_min             =   1.8691270270349E+01
(PID.TID 0000.0001) %MON dynstat_salt_mean            =   3.4721486942784E+01
(PID.TID 0000.0001) %MON dynstat_salt_sd              =   4.9666394267246E-01
(PID.TID 0000.0001) %MON dynstat_salt_del2            =   9.5230633305491E-04
(PID.TID 0000.0001) %MON forcing_qnet_max             =   4.1021578966536E+02
(PID.TID 0000.0001) %MON forcing_qnet_min             =  -2.0313383788713E+02
(PID.TID 0000.0001) %MON forcing_qnet_mean            =  -1.0624545108288E+01
(PID.TID 0000.0001) %MON forcing_qnet_sd              =   1.0684693269585E+02
(PID.TID 0000.0001) %MON forcing_qnet_del2            =   3.8956089286157E-01
(PID.TID 0000.0001) %MON forcing_qsw_max              =   0.0000000000000E+00
(PID.TID 0000.0001) %MON forcing_qsw_min              =   0.0000000000000E+00
(PID.TID 0000.0001) %MON forcing_qsw_mean             =   0.0000000000000E+00
(PID.TID 0000.0001) %MON forcing_qsw_sd               =   0.0000000000000E+00
(PID.TID 0000.0001) %MON forcing_qsw_del2             =   0.0000000000000E+00
(PID.TID 0000.0001) %MON forcing_empmr_max            =   7.6494447208479E-05
(PID.TID 0000.0001) %MON forcing_empmr_min            =  -1.5362614137596E-04
(PID.TID 0000.0001) %MON forcing_empmr_mean           =  -2.7256318706594E-21
(PID.TID 0000.0001) %MON forcing_empmr_sd             =   2.4051723601802E-05
(PID.TID 0000.0001) %MON forcing_empmr_del2           =   1.2276157049243E-07
(PID.TID 0000.0001) %MON forcing_fu_max               =   2.4675984841684E-01
(PID.TID 0000.0001) %MON forcing_fu_min               =  -2.2485491038058E-01
(PID.TID 0000.0001) %MON forcing_fu_mean              =  -6.1037608420371E-03
(PID.TID 0000.0001) %MON forcing_fu_sd                =   6.6859781268308E-02
(PID.TID 0000.0001) %MON forcing_fu_del2              =   1.9769316319051E-04
(PID.TID 0000.0001) %MON forcing_fv_max               =   2.2502206352242E-01
(PID.TID 0000.0001) %MON forcing_fv_min               =  -2.7065648191206E-01
(PID.TID 0000.0001) %MON forcing_fv_mean              =  -1.1140659213460E-02
(PID.TID 0000.0001) %MON forcing_fv_sd                =   7.4511506960852E-02
(PID.TID 0000.0001) %MON forcing_fv_del2              =   2.1923078472871E-04
(PID.TID 0000.0001) %MON trAdv_CFL_u_max              =   8.2188820046791E-02
(PID.TID 0000.0001) %MON trAdv_CFL_v_max              =   9.4512896235691E-02
(PID.TID 0000.0001) %MON trAdv_CFL_w_max              =   9.9699456380913E-02
(PID.TID 0000.0001) %MON advcfl_uvel_max              =   8.2713677844930E-02
(PID.TID 0000.0001) %MON advcfl_vvel_max              =   8.5331404989771E-02
(PID.TID 0000.0001) %MON advcfl_wvel_max              =   6.8016241869320E-02
(PID.TID 0000.0001) %MON advcfl_W_hf_max              =   7.5101267064041E-02
(PID.TID 0000.0001) %MON pe_b_mean                    =   5.2896130451397E-04
(PID.TID 0000.0001) %MON ke_max                       =   4.2588010591127E-02
(PID.TID 0000.0001) %MON ke_mean                      =   1.6439001847905E-04
(PID.TID 0000.0001) %MON ke_vol                       =   1.3398024453628E+18
(PID.TID 0000.0001) %MON vort_r_min                   =  -1.0824440385215E-06
(PID.TID 0000.0001) %MON vort_r_max                   =   1.3294912511392E-06
(PID.TID 0000.0001) %MON vort_a_mean                  =  -2.0549865324846E-05
(PID.TID 0000.0001) %MON vort_a_sd                    =   7.5259624064731E-05
(PID.TID 0000.0001) %MON vort_p_mean                  =  -2.4783522345032E-05
(PID.TID 0000.0001) %MON vort_p_sd                    =   1.2810608824371E-04
(PID.TID 0000.0001) %MON surfExpan_theta_mean         =   3.3662701774483E-08
(PID.TID 0000.0001) %MON surfExpan_salt_mean          =   1.5475445755287E-08
(PID.TID 0000.0001) // =======================================================
(PID.TID 0000.0001) // End MONITOR dynamic field statistics
(PID.TID 0000.0001) // =======================================================
(PID.TID 0000.0001) // =======================================================
(PID.TID 0000.0001) // Begin MONITOR ptracer field statistics
(PID.TID 0000.0001) // =======================================================
(PID.TID 0000.0001) %MON trcstat_ptracer01_max        =   1.2442035985266E+08
(PID.TID 0000.0001) %MON trcstat_ptracer01_min        =  -2.9014147985336E+06
(PID.TID 0000.0001) %MON trcstat_ptracer01_mean       =   1.1728964178085E+08
(PID.TID 0000.0001) %MON trcstat_ptracer01_sd         =   1.8300059190634E+07
(PID.TID 0000.0001) %MON trcstat_ptracer01_del2       =   3.3485228882190E+04
(PID.TID 0000.0001) // =======================================================
(PID.TID 0000.0001) // End MONITOR ptracer field statistics
(PID.TID 0000.0001) // =======================================================
 Computing Diagnostic #    79 "DRHODR  " (list#  1) Parms "SM      LR      ", Count=      10
 Computing Diagnostic #    64 "RHOAnoma" (list#  1) Parms "SMR     MR      ", Count=      10
 Computing Diagnostic #    80 "CONVADJ " (list#  1) Parms "SMR     LR      ", Count=      10
 Computing Diagnostic #   210 "GM_Kwx  " (list#  1) Parms "UM      LR      ", Count=      10
             Vector  Mate for "GM_Kwx  " :  Diagnostic #    211 "GM_Kwy  " exists
 Computing Diagnostic #   211 "GM_Kwy  " (list#  1) Parms "VM      LR      ", Count=      10
             Vector  Mate for "GM_Kwy  " :  Diagnostic #    210 "GM_Kwx  " exists
 Computing Diagnostic #   212 "GM_Kwz  " (list#  1) Parms "WM P    LR      ", Count=      10
 Computing Diagnostic #   213 "GM_PsiX " (list#  1) Parms "UU      LR      ", Count=      10
             Vector  Mate for "GM_PsiX " :  Diagnostic #    214 "GM_PsiY " exists
 Computing Diagnostic #   214 "GM_PsiY " (list#  1) Parms "VV      LR      ", Count=      10
             Vector  Mate for "GM_PsiY " :  Diagnostic #    213 "GM_PsiX " exists
 EXTERNAL_FIELDS_LOAD,      1410 : iP,iLd,i0,i1=   11   12   11   12 ; Wght=  0.5000000000  0.5000000000
 cg2d: Sum(rhs),rhsMax =   0.00000000000000E+00  5.45263659955374E+00
 EXTERNAL_FIELDS_LOAD,      1411 : iP,iLd,i0,i1=   11   12   11   12 ; Wght=  0.4666666667  0.5333333333
 cg2d: Sum(rhs),rhsMax =  -2.27373675443232E-13  5.45173008056874E+00
 EXTERNAL_FIELDS_LOAD,      1412 : iP,iLd,i0,i1=   11   12   11   12 ; Wght=  0.4333333333  0.5666666667
 cg2d: Sum(rhs),rhsMax =  -3.12638803734444E-13  5.45081650834640E+00
 EXTERNAL_FIELDS_LOAD,      1413 : iP,iLd,i0,i1=   11   12   11   12 ; Wght=  0.4000000000  0.6000000000
 cg2d: Sum(rhs),rhsMax =  -4.26325641456060E-13  5.44988480046718E+00
 EXTERNAL_FIELDS_LOAD,      1414 : iP,iLd,i0,i1=   11   12   11   12 ; Wght=  0.3666666667  0.6333333333
 cg2d: Sum(rhs),rhsMax =  -3.69482222595252E-13  5.44892487790645E+00
 EXTERNAL_FIELDS_LOAD,      1415 : iP,iLd,i0,i1=   11   12   11   12 ; Wght=  0.3333333333  0.6666666667
 cg2d: Sum(rhs),rhsMax =  -2.55795384873636E-13  5.44792796585749E+00
 Compute Stats, Diag. #    23 "ETAN    " (list#  1) Parms "SM      M1      ", vol(  0 )= 3.639E+14
 Compute Stats, Diag. #    30 "UVEL    " (list#  1) Parms "UUR     MR      ", vol(  0 )= 1.231E+18
 Compute Stats, Diag. #    31 "VVEL    " (list#  1) Parms "VVR     MR      ", vol(  0 )= 1.243E+18
 Compute Stats, Diag. #    32 "WVEL    " (list#  1) Parms "WM      LR      ", vol(  0 )= 1.315E+18
 Compute Stats, Diag. #    26 "THETA   " (list#  1) Parms "SMR     MR      ", vol(  0 )= 1.340E+18
 EXTERNAL_FIELDS_LOAD,      1416 : iP,iLd,i0,i1=   11   12   11   12 ; Wght=  0.3000000000  0.7000000000
 cg2d: Sum(rhs),rhsMax =  -5.11590769747272E-13  5.44688688781241E+00
 EXTERNAL_FIELDS_LOAD,      1417 : iP,iLd,i0,i1=   11   12   11   12 ; Wght=  0.2666666667  0.7333333333
 cg2d: Sum(rhs),rhsMax =  -2.55795384873636E-13  5.44579631153450E+00
 EXTERNAL_FIELDS_LOAD,      1418 : iP,iLd,i0,i1=   11   12   11   12 ; Wght=  0.2333333333  0.7666666667
 cg2d: Sum(rhs),rhsMax =  -3.41060513164848E-13  5.44465301018094E+00
 EXTERNAL_FIELDS_LOAD,      1419 : iP,iLd,i0,i1=   11   12   11   12 ; Wght=  0.2000000000  0.8000000000
 cg2d: Sum(rhs),rhsMax =  -1.70530256582424E-13  5.44345587764599E+00
 Computing Diagnostic #    79 "DRHODR  " (list#  1) Parms "SM      LR      ", Count=      10
 Computing Diagnostic #    64 "RHOAnoma" (list#  1) Parms "SMR     MR      ", Count=      10
 Computing Diagnostic #    80 "CONVADJ " (list#  1) Parms "SMR     LR      ", Count=      10
 Computing Diagnostic #   210 "GM_Kwx  " (list#  1) Parms "UM      LR      ", Count=      10
             Vector  Mate for "GM_Kwx  " :  Diagnostic #    211 "GM_Kwy  " exists
 Computing Diagnostic #   211 "GM_Kwy  " (list#  1) Parms "VM      LR      ", Count=      10
             Vector  Mate for "GM_Kwy  " :  Diagnostic #    210 "GM_Kwx  " exists
 Computing Diagnostic #   212 "GM_Kwz  " (list#  1) Parms "WM P    LR      ", Count=      10
 Computing Diagnostic #   213 "GM_PsiX " (list#  1) Parms "UU      LR      ", Count=      10
             Vector  Mate for "GM_PsiX " :  Diagnostic #    214 "GM_PsiY " exists
 Computing Diagnostic #   214 "GM_PsiY " (list#  1) Parms "VV      LR      ", Count=      10
             Vector  Mate for "GM_PsiY " :  Diagnostic #    213 "GM_PsiX " exists
 EXTERNAL_FIELDS_LOAD,      1420 : iP,iLd,i0,i1=   11   12   11   12 ; Wght=  0.1666666667  0.8333333333
 cg2d: Sum(rhs),rhsMax =  -3.12638803734444E-13  5.44220608812770E+00
 EXTERNAL_FIELDS_LOAD,      1421 : iP,iLd,i0,i1=   11   12   11   12 ; Wght=  0.1333333333  0.8666666667
 cg2d: Sum(rhs),rhsMax =  -1.13686837721616E-13  5.44090703777986E+00
 EXTERNAL_FIELDS_LOAD,      1422 : iP,iLd,i0,i1=   11   12   11   12 ; Wght=  0.1000000000  0.9000000000
 cg2d: Sum(rhs),rhsMax =  -8.52651282912120E-14  5.43956428627685E+00
 EXTERNAL_FIELDS_LOAD,      1423 : iP,iLd,i0,i1=   11   12   11   12 ; Wght=  0.0666666667  0.9333333333
 cg2d: Sum(rhs),rhsMax =  -2.55795384873636E-13  5.43818543224118E+00
 EXTERNAL_FIELDS_LOAD,      1424 : iP,iLd,i0,i1=   11   12   11   12 ; Wght=  0.0333333333  0.9666666667
 cg2d: Sum(rhs),rhsMax =  -1.13686837721616E-13  5.43677995966935E+00
 EXTERNAL_FIELDS_LOAD,      1425 : iP,iLd,i0,i1=   11   12   12    1 ; Wght=  1.0000000000  0.0000000000
 EXTERNAL_FIELDS_LOAD, it=      1425 : Reading new data, i0,i1=   12    1 (prev=   11   12 )
(PID.TID 0000.0001)  MDS_READ_FIELD: opening global file: trenberth_taux.bin
(PID.TID 0000.0001)  MDS_READ_FIELD: opening global file: trenberth_taux.bin
(PID.TID 0000.0001)  MDS_READ_FIELD: opening global file: trenberth_tauy.bin
(PID.TID 0000.0001)  MDS_READ_FIELD: opening global file: trenberth_tauy.bin
(PID.TID 0000.0001)  MDS_READ_FIELD: opening global file: shiQnet_cs32.bin
(PID.TID 0000.0001)  MDS_READ_FIELD: opening global file: shiQnet_cs32.bin
(PID.TID 0000.0001)  MDS_READ_FIELD: opening global file: shiEmPR_cs32.bin
(PID.TID 0000.0001)  MDS_READ_FIELD: opening global file: shiEmPR_cs32.bin
(PID.TID 0000.0001)  MDS_READ_FIELD: opening global file: lev_surfT_cs_12m.bin
(PID.TID 0000.0001)  MDS_READ_FIELD: opening global file: lev_surfT_cs_12m.bin
(PID.TID 0000.0001)  MDS_READ_FIELD: opening global file: lev_surfS_cs_12m.bin
(PID.TID 0000.0001)  MDS_READ_FIELD: opening global file: lev_surfS_cs_12m.bin
 cg2d: Sum(rhs),rhsMax =  -3.97903932025656E-13  5.43535902514539E+00
 Compute Stats, Diag. #    23 "ETAN    " (list#  1) Parms "SM      M1      ", vol(  0 )= 3.639E+14
 Compute Stats, Diag. #    30 "UVEL    " (list#  1) Parms "UUR     MR      ", vol(  0 )= 1.231E+18
 Compute Stats, Diag. #    31 "VVEL    " (list#  1) Parms "VVR     MR      ", vol(  0 )= 1.243E+18
 Compute Stats, Diag. #    32 "WVEL    " (list#  1) Parms "WM      LR      ", vol(  0 )= 1.315E+18
 Compute Stats, Diag. #    26 "THETA   " (list#  1) Parms "SMR     MR      ", vol(  0 )= 1.340E+18
 EXTERNAL_FIELDS_LOAD,      1426 : iP,iLd,i0,i1=   12    1   12    1 ; Wght=  0.9666666667  0.0333333333
 cg2d: Sum(rhs),rhsMax =  -4.54747350886464E-13  5.43396934791904E+00
 EXTERNAL_FIELDS_LOAD,      1427 : iP,iLd,i0,i1=   12    1   12    1 ; Wght=  0.9333333333  0.0666666667
 cg2d: Sum(rhs),rhsMax =  -1.42108547152020E-13  5.43258326606923E+00
 EXTERNAL_FIELDS_LOAD,      1428 : iP,iLd,i0,i1=   12    1   12    1 ; Wght=  0.9000000000  0.1000000000
 cg2d: Sum(rhs),rhsMax =  -4.26325641456060E-13  5.43121727554500E+00
 EXTERNAL_FIELDS_LOAD,      1429 : iP,iLd,i0,i1=   12    1   12    1 ; Wght=  0.8666666667  0.1333333333
 cg2d: Sum(rhs),rhsMax =   0.00000000000000E+00  5.42987988899866E+00
 Computing Diagnostic #    79 "DRHODR  " (list#  1) Parms "SM      LR      ", Count=      10
 Computing Diagnostic #    64 "RHOAnoma" (list#  1) Parms "SMR     MR      ", Count=      10
 Computing Diagnostic #    80 "CONVADJ " (list#  1) Parms "SMR     LR      ", Count=      10
 Computing Diagnostic #   210 "GM_Kwx  " (list#  1) Parms "UM      LR      ", Count=      10
             Vector  Mate for "GM_Kwx  " :  Diagnostic #    211 "GM_Kwy  " exists
 Computing Diagnostic #   211 "GM_Kwy  " (list#  1) Parms "VM      LR      ", Count=      10
             Vector  Mate for "GM_Kwy  " :  Diagnostic #    210 "GM_Kwx  " exists
 Computing Diagnostic #   212 "GM_Kwz  " (list#  1) Parms "WM P    LR      ", Count=      10
 Computing Diagnostic #   213 "GM_PsiX " (list#  1) Parms "UU      LR      ", Count=      10
             Vector  Mate for "GM_PsiX " :  Diagnostic #    214 "GM_PsiY " exists
 Computing Diagnostic #   214 "GM_PsiY " (list#  1) Parms "VV      LR      ", Count=      10
             Vector  Mate for "GM_PsiY " :  Diagnostic #    213 "GM_PsiX " exists
 EXTERNAL_FIELDS_LOAD,      1430 : iP,iLd,i0,i1=   12    1   12    1 ; Wght=  0.8333333333  0.1666666667
 cg2d: Sum(rhs),rhsMax =  -1.42108547152020E-13  5.42858220265247E+00
 EXTERNAL_FIELDS_LOAD,      1431 : iP,iLd,i0,i1=   12    1   12    1 ; Wght=  0.8000000000  0.2000000000
 cg2d: Sum(rhs),rhsMax =  -8.52651282912120E-14  5.42733477420620E+00
 EXTERNAL_FIELDS_LOAD,      1432 : iP,iLd,i0,i1=   12    1   12    1 ; Wght=  0.7666666667  0.2333333333
 cg2d: Sum(rhs),rhsMax =  -1.98951966012828E-13  5.42614733562180E+00
 EXTERNAL_FIELDS_LOAD,      1433 : iP,iLd,i0,i1=   12    1   12    1 ; Wght=  0.7333333333  0.2666666667
 cg2d: Sum(rhs),rhsMax =  -5.68434188608080E-13  5.42502848655354E+00
 EXTERNAL_FIELDS_LOAD,      1434 : iP,iLd,i0,i1=   12    1   12    1 ; Wght=  0.7000000000  0.3000000000
 cg2d: Sum(rhs),rhsMax =  -3.12638803734444E-13  5.42398524205526E+00
 EXTERNAL_FIELDS_LOAD,      1435 : iP,iLd,i0,i1=   12    1   12    1 ; Wght=  0.6666666667  0.3333333333
 cg2d: Sum(rhs),rhsMax =  -1.42108547152020E-13  5.42302264055277E+00
 Compute Stats, Diag. #    23 "ETAN    " (list#  1) Parms "SM      M1      ", vol(  0 )= 3.639E+14
 Compute Stats, Diag. #    30 "UVEL    " (list#  1) Parms "UUR     MR      ", vol(  0 )= 1.231E+18
 Compute Stats, Diag. #    31 "VVEL    " (list#  1) Parms "VVR     MR      ", vol(  0 )= 1.243E+18
 Compute Stats, Diag. #    32 "WVEL    " (list#  1) Parms "WM      LR      ", vol(  0 )= 1.315E+18
 Compute Stats, Diag. #    26 "THETA   " (list#  1) Parms "SMR     MR      ", vol(  0 )= 1.340E+18
 EXTERNAL_FIELDS_LOAD,      1436 : iP,iLd,i0,i1=   12    1   12    1 ; Wght=  0.6333333333  0.3666666667
 cg2d: Sum(rhs),rhsMax =  -3.41060513164848E-13  5.42214339066402E+00
 EXTERNAL_FIELDS_LOAD,      1437 : iP,iLd,i0,i1=   12    1   12    1 ; Wght=  0.6000000000  0.4000000000
 cg2d: Sum(rhs),rhsMax =  -1.98951966012828E-13  5.42134765006746E+00
 EXTERNAL_FIELDS_LOAD,      1438 : iP,iLd,i0,i1=   12    1   12    1 ; Wght=  0.5666666667  0.4333333333
 cg2d: Sum(rhs),rhsMax =  -1.98951966012828E-13  5.42063291878002E+00
 EXTERNAL_FIELDS_LOAD,      1439 : iP,iLd,i0,i1=   12    1   12    1 ; Wght=  0.5333333333  0.4666666667
 cg2d: Sum(rhs),rhsMax =  -3.12638803734444E-13  5.41999410893548E+00
(PID.TID 0000.0001)      cg2d_init_res =   1.53879477530500E-01
(PID.TID 0000.0001)      cg2d_iters(min,last) =      -1      62
(PID.TID 0000.0001)      cg2d_last_res =   4.75406670918754E-07
(PID.TID 0000.0001) // =======================================================
(PID.TID 0000.0001) // Begin MONITOR dynamic field statistics
(PID.TID 0000.0001) // =======================================================
(PID.TID 0000.0001) %MON time_tsnumber                =                  1440
(PID.TID 0000.0001) %MON time_secondsf                =   1.2441600000000E+08
(PID.TID 0000.0001) %MON dynstat_eta_max              =   9.4154098109304E-01
(PID.TID 0000.0001) %MON dynstat_eta_min              =  -1.8498279095506E+00
(PID.TID 0000.0001) %MON dynstat_eta_mean             =   3.7099455980303E-16
(PID.TID 0000.0001) %MON dynstat_eta_sd               =   6.2745078508501E-01
(PID.TID 0000.0001) %MON dynstat_eta_del2             =   8.6363622336187E-04
(PID.TID 0000.0001) %MON dynstat_uvel_max             =   1.6767415951130E-01
(PID.TID 0000.0001) %MON dynstat_uvel_min             =  -2.8972557059449E-01
(PID.TID 0000.0001) %MON dynstat_uvel_mean            =  -5.2767614643821E-04
(PID.TID 0000.0001) %MON dynstat_uvel_sd              =   1.3202577182362E-02
(PID.TID 0000.0001) %MON dynstat_uvel_del2            =   5.6460168624708E-05
(PID.TID 0000.0001) %MON dynstat_vvel_max             =   1.7653055162971E-01
(PID.TID 0000.0001) %MON dynstat_vvel_min             =  -2.2682914123726E-01
(PID.TID 0000.0001) %MON dynstat_vvel_mean            =  -4.1756988308027E-04
(PID.TID 0000.0001) %MON dynstat_vvel_sd              =   1.3422897913382E-02
(PID.TID 0000.0001) %MON dynstat_vvel_del2            =   5.4973588125576E-05
(PID.TID 0000.0001) %MON dynstat_wvel_max             =   1.0103987790483E-04
(PID.TID 0000.0001) %MON dynstat_wvel_min             =  -2.1528292140146E-04
(PID.TID 0000.0001) %MON dynstat_wvel_mean            =   7.2525388869622E-23
(PID.TID 0000.0001) %MON dynstat_wvel_sd              =   4.4296894514903E-06
(PID.TID 0000.0001) %MON dynstat_wvel_del2            =   3.3558501251468E-08
(PID.TID 0000.0001) %MON dynstat_theta_max            =   3.0930174921383E+01
(PID.TID 0000.0001) %MON dynstat_theta_min            =  -7.6681069237855E+00
(PID.TID 0000.0001) %MON dynstat_theta_mean           =   3.6109112586007E+00
(PID.TID 0000.0001) %MON dynstat_theta_sd             =   4.4132050532871E+00
(PID.TID 0000.0001) %MON dynstat_theta_del2           =   3.0342094138717E-03
(PID.TID 0000.0001) %MON dynstat_salt_max             =   4.1340237325889E+01
(PID.TID 0000.0001) %MON dynstat_salt_min             =   1.8692198674552E+01
(PID.TID 0000.0001) %MON dynstat_salt_mean            =   3.4721500049156E+01
(PID.TID 0000.0001) %MON dynstat_salt_sd              =   4.9683703721566E-01
(PID.TID 0000.0001) %MON dynstat_salt_del2            =   9.6645262782590E-04
(PID.TID 0000.0001) %MON forcing_qnet_max             =   4.5354272910296E+02
(PID.TID 0000.0001) %MON forcing_qnet_min             =  -2.1599809650417E+02
(PID.TID 0000.0001) %MON forcing_qnet_mean            =  -1.2133594023001E+01
(PID.TID 0000.0001) %MON forcing_qnet_sd              =   1.1586527760186E+02
(PID.TID 0000.0001) %MON forcing_qnet_del2            =   4.1554897025173E-01
(PID.TID 0000.0001) %MON forcing_qsw_max              =   0.0000000000000E+00
(PID.TID 0000.0001) %MON forcing_qsw_min              =   0.0000000000000E+00
(PID.TID 0000.0001) %MON forcing_qsw_mean             =   0.0000000000000E+00
(PID.TID 0000.0001) %MON forcing_qsw_sd               =   0.0000000000000E+00
(PID.TID 0000.0001) %MON forcing_qsw_del2             =   0.0000000000000E+00
(PID.TID 0000.0001) %MON forcing_empmr_max            =   7.6494447208479E-05
(PID.TID 0000.0001) %MON forcing_empmr_min            =  -1.5362614137596E-04
(PID.TID 0000.0001) %MON forcing_empmr_mean           =  -2.7256318706594E-21
(PID.TID 0000.0001) %MON forcing_empmr_sd             =   2.4051723601802E-05
(PID.TID 0000.0001) %MON forcing_empmr_del2           =   1.2276157049243E-07
(PID.TID 0000.0001) %MON forcing_fu_max               =   2.4765418498413E-01
(PID.TID 0000.0001) %MON forcing_fu_min               =  -1.9978611308685E-01
(PID.TID 0000.0001) %MON forcing_fu_mean              =  -4.5913596005962E-03
(PID.TID 0000.0001) %MON forcing_fu_sd                =   6.3941102540855E-02
(PID.TID 0000.0001) %MON forcing_fu_del2              =   2.0518848671462E-04
(PID.TID 0000.0001) %MON forcing_fv_max               =   2.5012773886324E-01
(PID.TID 0000.0001) %MON forcing_fv_min               =  -3.2613202008605E-01
(PID.TID 0000.0001) %MON forcing_fv_mean              =  -1.3680575972930E-02
(PID.TID 0000.0001) %MON forcing_fv_sd                =   7.5124443773282E-02
(PID.TID 0000.0001) %MON forcing_fv_del2              =   2.3375900006026E-04
(PID.TID 0000.0001) %MON trAdv_CFL_u_max              =   9.8615581601480E-02
(PID.TID 0000.0001) %MON trAdv_CFL_v_max              =   8.8247251922471E-02
(PID.TID 0000.0001) %MON trAdv_CFL_w_max              =   1.0445986086783E-01
(PID.TID 0000.0001) %MON advcfl_uvel_max              =   8.2171667534123E-02
(PID.TID 0000.0001) %MON advcfl_vvel_max              =   7.6144547070966E-02
(PID.TID 0000.0001) %MON advcfl_wvel_max              =   7.0190356260703E-02
(PID.TID 0000.0001) %MON advcfl_W_hf_max              =   7.7501851704526E-02
(PID.TID 0000.0001) %MON pe_b_mean                    =   5.2447381082374E-04
(PID.TID 0000.0001) %MON ke_max                       =   4.1203947957090E-02
(PID.TID 0000.0001) %MON ke_mean                      =   1.6387562267139E-04
(PID.TID 0000.0001) %MON ke_vol                       =   1.3398024453628E+18
(PID.TID 0000.0001) %MON vort_r_min                   =  -1.0472501860840E-06
(PID.TID 0000.0001) %MON vort_r_max                   =   1.1921728953577E-06
(PID.TID 0000.0001) %MON vort_a_mean                  =  -2.0549865324846E-05
(PID.TID 0000.0001) %MON vort_a_sd                    =   7.5259617255271E-05
(PID.TID 0000.0001) %MON vort_p_mean                  =  -2.4783522345032E-05
(PID.TID 0000.0001) %MON vort_p_sd                    =   1.2810601640857E-04
(PID.TID 0000.0001) %MON surfExpan_theta_mean         =   3.6983835691191E-08
(PID.TID 0000.0001) %MON surfExpan_salt_mean          =   1.4307914831601E-08
(PID.TID 0000.0001) // =======================================================
(PID.TID 0000.0001) // End MONITOR dynamic field statistics
(PID.TID 0000.0001) // =======================================================
(PID.TID 0000.0001) // =======================================================
(PID.TID 0000.0001) // Begin MONITOR ptracer field statistics
(PID.TID 0000.0001) // =======================================================
(PID.TID 0000.0001) %MON trcstat_ptracer01_max        =   1.2761090260892E+08
(PID.TID 0000.0001) %MON trcstat_ptracer01_min        =  -3.2444432759141E+06
(PID.TID 0000.0001) %MON trcstat_ptracer01_mean       =   1.1976433311555E+08
(PID.TID 0000.0001) %MON trcstat_ptracer01_sd         =   1.8694514843073E+07
(PID.TID 0000.0001) %MON trcstat_ptracer01_del2       =   3.2317417881359E+04
(PID.TID 0000.0001) // =======================================================
(PID.TID 0000.0001) // End MONITOR ptracer field statistics
(PID.TID 0000.0001) // =======================================================
 Computing Diagnostic #    79 "DRHODR  " (list#  1) Parms "SM      LR      ", Count=      10
 Computing Diagnostic #    64 "RHOAnoma" (list#  1) Parms "SMR     MR      ", Count=      10
 Computing Diagnostic #    80 "CONVADJ " (list#  1) Parms "SMR     LR      ", Count=      10
 Computing Diagnostic #   210 "GM_Kwx  " (list#  1) Parms "UM      LR      ", Count=      10
             Vector  Mate for "GM_Kwx  " :  Diagnostic #    211 "GM_Kwy  " exists
 Computing Diagnostic #   211 "GM_Kwy  " (list#  1) Parms "VM      LR      ", Count=      10
             Vector  Mate for "GM_Kwy  " :  Diagnostic #    210 "GM_Kwx  " exists
 Computing Diagnostic #   212 "GM_Kwz  " (list#  1) Parms "WM P    LR      ", Count=      10
 Computing Diagnostic #   213 "GM_PsiX " (list#  1) Parms "UU      LR      ", Count=      10
             Vector  Mate for "GM_PsiX " :  Diagnostic #    214 "GM_PsiY " exists
 Computing Diagnostic #   214 "GM_PsiY " (list#  1) Parms "VV      LR      ", Count=      10
             Vector  Mate for "GM_PsiY " :  Diagnostic #    213 "GM_PsiX " exists
(PID.TID 0000.0001) %CHECKPOINT      1440 0000001440
 EXTERNAL_FIELDS_LOAD,      1440 : iP,iLd,i0,i1=   12    1   12    1 ; Wght=  0.5000000000  0.5000000000
 cg2d: Sum(rhs),rhsMax =  -1.13686837721616E-13  5.41942373715578E+00
 EXTERNAL_FIELDS_LOAD,      1441 : iP,iLd,i0,i1=   12    1   12    1 ; Wght=  0.4666666667  0.5333333333
 cg2d: Sum(rhs),rhsMax =  -3.69482222595252E-13  5.41891221198844E+00
 EXTERNAL_FIELDS_LOAD,      1442 : iP,iLd,i0,i1=   12    1   12    1 ; Wght=  0.4333333333  0.5666666667
 cg2d: Sum(rhs),rhsMax =  -5.68434188608080E-14  5.41844815989621E+00
 EXTERNAL_FIELDS_LOAD,      1443 : iP,iLd,i0,i1=   12    1   12    1 ; Wght=  0.4000000000  0.6000000000
 cg2d: Sum(rhs),rhsMax =  -2.55795384873636E-13  5.41801872278799E+00
 EXTERNAL_FIELDS_LOAD,      1444 : iP,iLd,i0,i1=   12    1   12    1 ; Wght=  0.3666666667  0.6333333333
 cg2d: Sum(rhs),rhsMax =  -3.41060513164848E-13  5.41760985921626E+00
 EXTERNAL_FIELDS_LOAD,      1445 : iP,iLd,i0,i1=   12    1   12    1 ; Wght=  0.3333333333  0.6666666667
 cg2d: Sum(rhs),rhsMax =  -1.98951966012828E-13  5.41720659647425E+00
 Compute Stats, Diag. #    23 "ETAN    " (list#  1) Parms "SM      M1      ", vol(  0 )= 3.639E+14
 Compute Stats, Diag. #    30 "UVEL    " (list#  1) Parms "UUR     MR      ", vol(  0 )= 1.231E+18
 Compute Stats, Diag. #    31 "VVEL    " (list#  1) Parms "VVR     MR      ", vol(  0 )= 1.243E+18
 Compute Stats, Diag. #    32 "WVEL    " (list#  1) Parms "WM      LR      ", vol(  0 )= 1.315E+18
 Compute Stats, Diag. #    26 "THETA   " (list#  1) Parms "SMR     MR      ", vol(  0 )= 1.340E+18
 EXTERNAL_FIELDS_LOAD,      1446 : iP,iLd,i0,i1=   12    1   12    1 ; Wght=  0.3000000000  0.7000000000
 cg2d: Sum(rhs),rhsMax =  -2.27373675443232E-13  5.41679328281461E+00
 EXTERNAL_FIELDS_LOAD,      1447 : iP,iLd,i0,i1=   12    1   12    1 ; Wght=  0.2666666667  0.7333333333
 cg2d: Sum(rhs),rhsMax =   0.00000000000000E+00  5.41635386205099E+00
 EXTERNAL_FIELDS_LOAD,      1448 : iP,iLd,i0,i1=   12    1   12    1 ; Wght=  0.2333333333  0.7666666667
 cg2d: Sum(rhs),rhsMax =  -3.41060513164848E-13  5.41587216508692E+00
 EXTERNAL_FIELDS_LOAD,      1449 : iP,iLd,i0,i1=   12    1   12    1 ; Wght=  0.2000000000  0.8000000000
 cg2d: Sum(rhs),rhsMax =  -1.13686837721616E-13  5.41533221677329E+00
 Computing Diagnostic #    79 "DRHODR  " (list#  1) Parms "SM      LR      ", Count=      10
 Computing Diagnostic #    64 "RHOAnoma" (list#  1) Parms "SMR     MR      ", Count=      10
 Computing Diagnostic #    80 "CONVADJ " (list#  1) Parms "SMR     LR      ", Count=      10
 Computing Diagnostic #   210 "GM_Kwx  " (list#  1) Parms "UM      LR      ", Count=      10
             Vector  Mate for "GM_Kwx  " :  Diagnostic #    211 "GM_Kwy  " exists
 Computing Diagnostic #   211 "GM_Kwy  " (list#  1) Parms "VM      LR      ", Count=      10
             Vector  Mate for "GM_Kwy  " :  Diagnostic #    210 "GM_Kwx  " exists
 Computing Diagnostic #   212 "GM_Kwz  " (list#  1) Parms "WM P    LR      ", Count=      10
 Computing Diagnostic #   213 "GM_PsiX " (list#  1) Parms "UU      LR      ", Count=      10
             Vector  Mate for "GM_PsiX " :  Diagnostic #    214 "GM_PsiY " exists
 Computing Diagnostic #   214 "GM_PsiY " (list#  1) Parms "VV      LR      ", Count=      10
             Vector  Mate for "GM_PsiY " :  Diagnostic #    213 "GM_PsiX " exists
 EXTERNAL_FIELDS_LOAD,      1450 : iP,iLd,i0,i1=   12    1   12    1 ; Wght=  0.1666666667  0.8333333333
 cg2d: Sum(rhs),rhsMax =  -1.42108547152020E-13  5.41471855529588E+00
 EXTERNAL_FIELDS_LOAD,      1451 : iP,iLd,i0,i1=   12    1   12    1 ; Wght=  0.1333333333  0.8666666667
 cg2d: Sum(rhs),rhsMax =  -4.83169060316868E-13  5.41401656043811E+00
 EXTERNAL_FIELDS_LOAD,      1452 : iP,iLd,i0,i1=   12    1   12    1 ; Wght=  0.1000000000  0.9000000000
 cg2d: Sum(rhs),rhsMax =  -3.12638803734444E-13  5.41321275826699E+00
 EXTERNAL_FIELDS_LOAD,      1453 : iP,iLd,i0,i1=   12    1   12    1 ; Wght=  0.0666666667  0.9333333333
 cg2d: Sum(rhs),rhsMax =  -3.41060513164848E-13  5.41229512010583E+00
 EXTERNAL_FIELDS_LOAD,      1454 : iP,iLd,i0,i1=   12    1   12    1 ; Wght=  0.0333333333  0.9666666667
 cg2d: Sum(rhs),rhsMax =  -2.55795384873636E-13  5.41125332012783E+00
 EXTERNAL_FIELDS_LOAD,      1455 : iP,iLd,i0,i1=   12    1    1    2 ; Wght=  1.0000000000  0.0000000000
 EXTERNAL_FIELDS_LOAD, it=      1455 : Reading new data, i0,i1=    1    2 (prev=   12    1 )
(PID.TID 0000.0001)  MDS_READ_FIELD: opening global file: trenberth_taux.bin
(PID.TID 0000.0001)  MDS_READ_FIELD: opening global file: trenberth_taux.bin
(PID.TID 0000.0001)  MDS_READ_FIELD: opening global file: trenberth_tauy.bin
(PID.TID 0000.0001)  MDS_READ_FIELD: opening global file: trenberth_tauy.bin
(PID.TID 0000.0001)  MDS_READ_FIELD: opening global file: shiQnet_cs32.bin
(PID.TID 0000.0001)  MDS_READ_FIELD: opening global file: shiQnet_cs32.bin
(PID.TID 0000.0001)  MDS_READ_FIELD: opening global file: shiEmPR_cs32.bin
(PID.TID 0000.0001)  MDS_READ_FIELD: opening global file: shiEmPR_cs32.bin
(PID.TID 0000.0001)  MDS_READ_FIELD: opening global file: lev_surfT_cs_12m.bin
(PID.TID 0000.0001)  MDS_READ_FIELD: opening global file: lev_surfT_cs_12m.bin
(PID.TID 0000.0001)  MDS_READ_FIELD: opening global file: lev_surfS_cs_12m.bin
(PID.TID 0000.0001)  MDS_READ_FIELD: opening global file: lev_surfS_cs_12m.bin
 cg2d: Sum(rhs),rhsMax =  -1.13686837721616E-13  5.41007896331251E+00
 Compute Stats, Diag. #    23 "ETAN    " (list#  1) Parms "SM      M1      ", vol(  0 )= 3.639E+14
 Compute Stats, Diag. #    30 "UVEL    " (list#  1) Parms "UUR     MR      ", vol(  0 )= 1.231E+18
 Compute Stats, Diag. #    31 "VVEL    " (list#  1) Parms "VVR     MR      ", vol(  0 )= 1.243E+18
 Compute Stats, Diag. #    32 "WVEL    " (list#  1) Parms "WM      LR      ", vol(  0 )= 1.315E+18
 Compute Stats, Diag. #    26 "THETA   " (list#  1) Parms "SMR     MR      ", vol(  0 )= 1.340E+18
 EXTERNAL_FIELDS_LOAD,      1456 : iP,iLd,i0,i1=    1    2    1    2 ; Wght=  0.9666666667  0.0333333333
 cg2d: Sum(rhs),rhsMax =  -2.27373675443232E-13  5.40872472177224E+00
 EXTERNAL_FIELDS_LOAD,      1457 : iP,iLd,i0,i1=    1    2    1    2 ; Wght=  0.9333333333  0.0666666667
 cg2d: Sum(rhs),rhsMax =  -6.53699316899292E-13  5.40721576107005E+00
 EXTERNAL_FIELDS_LOAD,      1458 : iP,iLd,i0,i1=    1    2    1    2 ; Wght=  0.9000000000  0.1000000000
 cg2d: Sum(rhs),rhsMax =  -2.27373675443232E-13  5.40554880573282E+00
 EXTERNAL_FIELDS_LOAD,      1459 : iP,iLd,i0,i1=    1    2    1    2 ; Wght=  0.8666666667  0.1333333333
 cg2d: Sum(rhs),rhsMax =  -3.97903932025656E-13  5.40372988288560E+00
 Computing Diagnostic #    79 "DRHODR  " (list#  1) Parms "SM      LR      ", Count=      10
 Computing Diagnostic #    64 "RHOAnoma" (list#  1) Parms "SMR     MR      ", Count=      10
 Computing Diagnostic #    80 "CONVADJ " (list#  1) Parms "SMR     LR      ", Count=      10
 Computing Diagnostic #   210 "GM_Kwx  " (list#  1) Parms "UM      LR      ", Count=      10
             Vector  Mate for "GM_Kwx  " :  Diagnostic #    211 "GM_Kwy  " exists
 Computing Diagnostic #   211 "GM_Kwy  " (list#  1) Parms "VM      LR      ", Count=      10
             Vector  Mate for "GM_Kwy  " :  Diagnostic #    210 "GM_Kwx  " exists
 Computing Diagnostic #   212 "GM_Kwz  " (list#  1) Parms "WM P    LR      ", Count=      10
 Computing Diagnostic #   213 "GM_PsiX " (list#  1) Parms "UU      LR      ", Count=      10
             Vector  Mate for "GM_PsiX " :  Diagnostic #    214 "GM_PsiY " exists
 Computing Diagnostic #   214 "GM_PsiY " (list#  1) Parms "VV      LR      ", Count=      10
             Vector  Mate for "GM_PsiY " :  Diagnostic #    213 "GM_PsiX " exists
 EXTERNAL_FIELDS_LOAD,      1460 : iP,iLd,i0,i1=    1    2    1    2 ; Wght=  0.8333333333  0.1666666667
 cg2d: Sum(rhs),rhsMax =  -3.12638803734444E-13  5.40176881928871E+00
 EXTERNAL_FIELDS_LOAD,      1461 : iP,iLd,i0,i1=    1    2    1    2 ; Wght=  0.8000000000  0.2000000000
 cg2d: Sum(rhs),rhsMax =   2.84217094304040E-14  5.39967929553687E+00
 EXTERNAL_FIELDS_LOAD,      1462 : iP,iLd,i0,i1=    1    2    1    2 ; Wght=  0.7666666667  0.2333333333
 cg2d: Sum(rhs),rhsMax =  -3.41060513164848E-13  5.39747771212373E+00
 EXTERNAL_FIELDS_LOAD,      1463 : iP,iLd,i0,i1=    1    2    1    2 ; Wght=  0.7333333333  0.2666666667
 cg2d: Sum(rhs),rhsMax =  -1.42108547152020E-13  5.39518299463675E+00
 EXTERNAL_FIELDS_LOAD,      1464 : iP,iLd,i0,i1=    1    2    1    2 ; Wght=  0.7000000000  0.3000000000
 cg2d: Sum(rhs),rhsMax =  -5.68434188608080E-14  5.39281666174247E+00
 EXTERNAL_FIELDS_LOAD,      1465 : iP,iLd,i0,i1=    1    2    1    2 ; Wght=  0.6666666667  0.3333333333
 cg2d: Sum(rhs),rhsMax =  -3.12638803734444E-13  5.39040280313577E+00
 Compute Stats, Diag. #    23 "ETAN    " (list#  1) Parms "SM      M1      ", vol(  0 )= 3.639E+14
 Compute Stats, Diag. #    30 "UVEL    " (list#  1) Parms "UUR     MR      ", vol(  0 )= 1.231E+18
 Compute Stats, Diag. #    31 "VVEL    " (list#  1) Parms "VVR     MR      ", vol(  0 )= 1.243E+18
 Compute Stats, Diag. #    32 "WVEL    " (list#  1) Parms "WM      LR      ", vol(  0 )= 1.315E+18
 Compute Stats, Diag. #    26 "THETA   " (list#  1) Parms "SMR     MR      ", vol(  0 )= 1.340E+18
 EXTERNAL_FIELDS_LOAD,      1466 : iP,iLd,i0,i1=    1    2    1    2 ; Wght=  0.6333333333  0.3666666667
 cg2d: Sum(rhs),rhsMax =  -3.41060513164848E-13  5.38796808400047E+00
 EXTERNAL_FIELDS_LOAD,      1467 : iP,iLd,i0,i1=    1    2    1    2 ; Wght=  0.6000000000  0.4000000000
 cg2d: Sum(rhs),rhsMax =  -4.26325641456060E-13  5.38554115322000E+00
 EXTERNAL_FIELDS_LOAD,      1468 : iP,iLd,i0,i1=    1    2    1    2 ; Wght=  0.5666666667  0.4333333333
 cg2d: Sum(rhs),rhsMax =  -2.84217094304040E-13  5.38315237624017E+00
 EXTERNAL_FIELDS_LOAD,      1469 : iP,iLd,i0,i1=    1    2    1    2 ; Wght=  0.5333333333  0.4666666667
 cg2d: Sum(rhs),rhsMax =  -1.13686837721616E-13  5.38083315029174E+00
(PID.TID 0000.0001)      cg2d_init_res =   1.50118987027750E-01
(PID.TID 0000.0001)      cg2d_iters(min,last) =      -1      61
(PID.TID 0000.0001)      cg2d_last_res =   5.31552364273467E-07
(PID.TID 0000.0001) // =======================================================
(PID.TID 0000.0001) // Begin MONITOR dynamic field statistics
(PID.TID 0000.0001) // =======================================================
(PID.TID 0000.0001) %MON time_tsnumber                =                  1470
(PID.TID 0000.0001) %MON time_secondsf                =   1.2700800000000E+08
(PID.TID 0000.0001) %MON dynstat_eta_max              =   9.0684522295808E-01
(PID.TID 0000.0001) %MON dynstat_eta_min              =  -1.8410049259053E+00
(PID.TID 0000.0001) %MON dynstat_eta_mean             =   4.6717833456678E-16
(PID.TID 0000.0001) %MON dynstat_eta_sd               =   6.2481798465794E-01
(PID.TID 0000.0001) %MON dynstat_eta_del2             =   8.7167420157636E-04
(PID.TID 0000.0001) %MON dynstat_uvel_max             =   1.6749608623816E-01
(PID.TID 0000.0001) %MON dynstat_uvel_min             =  -2.7477504229478E-01
(PID.TID 0000.0001) %MON dynstat_uvel_mean            =  -5.1188612014729E-04
(PID.TID 0000.0001) %MON dynstat_uvel_sd              =   1.3193900345268E-02
(PID.TID 0000.0001) %MON dynstat_uvel_del2            =   5.6608073476794E-05
(PID.TID 0000.0001) %MON dynstat_vvel_max             =   1.8095518038779E-01
(PID.TID 0000.0001) %MON dynstat_vvel_min             =  -2.2777301367753E-01
(PID.TID 0000.0001) %MON dynstat_vvel_mean            =  -4.0478226477296E-04
(PID.TID 0000.0001) %MON dynstat_vvel_sd              =   1.3391373813995E-02
(PID.TID 0000.0001) %MON dynstat_vvel_del2            =   5.4477456832150E-05
(PID.TID 0000.0001) %MON dynstat_wvel_max             =   1.1072784308222E-04
(PID.TID 0000.0001) %MON dynstat_wvel_min             =  -2.1143339121171E-04
(PID.TID 0000.0001) %MON dynstat_wvel_mean            =   2.2047718216365E-22
(PID.TID 0000.0001) %MON dynstat_wvel_sd              =   4.4209673210714E-06
(PID.TID 0000.0001) %MON dynstat_wvel_del2            =   3.3687704483666E-08
(PID.TID 0000.0001) %MON dynstat_theta_max            =   3.1178257958956E+01
(PID.TID 0000.0001) %MON dynstat_theta_min            =  -7.7164789341977E+00
(PID.TID 0000.0001) %MON dynstat_theta_mean           =   3.6128099304881E+00
(PID.TID 0000.0001) %MON dynstat_theta_sd             =   4.4171849005838E+00
(PID.TID 0000.0001) %MON dynstat_theta_del2           =   3.0957207723777E-03
(PID.TID 0000.0001) %MON dynstat_salt_max             =   4.1354432126543E+01
(PID.TID 0000.0001) %MON dynstat_salt_min             =   1.8681719184522E+01
(PID.TID 0000.0001) %MON dynstat_salt_mean            =   3.4721527197175E+01
(PID.TID 0000.0001) %MON dynstat_salt_sd              =   4.9683587485253E-01
(PID.TID 0000.0001) %MON dynstat_salt_del2            =   9.8283530284186E-04
(PID.TID 0000.0001) %MON forcing_qnet_max             =   4.2693997077631E+02
(PID.TID 0000.0001) %MON forcing_qnet_min             =  -1.9343616982889E+02
(PID.TID 0000.0001) %MON forcing_qnet_mean            =  -1.2968551416263E+01
(PID.TID 0000.0001) %MON forcing_qnet_sd              =   9.9492223300472E+01
(PID.TID 0000.0001) %MON forcing_qnet_del2            =   4.2364946540961E-01
(PID.TID 0000.0001) %MON forcing_qsw_max              =   0.0000000000000E+00
(PID.TID 0000.0001) %MON forcing_qsw_min              =   0.0000000000000E+00
(PID.TID 0000.0001) %MON forcing_qsw_mean             =   0.0000000000000E+00
(PID.TID 0000.0001) %MON forcing_qsw_sd               =   0.0000000000000E+00
(PID.TID 0000.0001) %MON forcing_qsw_del2             =   0.0000000000000E+00
(PID.TID 0000.0001) %MON forcing_empmr_max            =   7.6494447208479E-05
(PID.TID 0000.0001) %MON forcing_empmr_min            =  -1.5362614137596E-04
(PID.TID 0000.0001) %MON forcing_empmr_mean           =  -2.7256318706594E-21
(PID.TID 0000.0001) %MON forcing_empmr_sd             =   2.4051723601802E-05
(PID.TID 0000.0001) %MON forcing_empmr_del2           =   1.2276157049243E-07
(PID.TID 0000.0001) %MON forcing_fu_max               =   2.4203671674909E-01
(PID.TID 0000.0001) %MON forcing_fu_min               =  -1.9431438996982E-01
(PID.TID 0000.0001) %MON forcing_fu_mean              =  -4.3454983033901E-03
(PID.TID 0000.0001) %MON forcing_fu_sd                =   6.3991651081989E-02
(PID.TID 0000.0001) %MON forcing_fu_del2              =   2.0330644295017E-04
(PID.TID 0000.0001) %MON forcing_fv_max               =   2.8181226170264E-01
(PID.TID 0000.0001) %MON forcing_fv_min               =  -2.9135458178179E-01
(PID.TID 0000.0001) %MON forcing_fv_mean              =  -1.3718324798732E-02
(PID.TID 0000.0001) %MON forcing_fv_sd                =   7.4616601676114E-02
(PID.TID 0000.0001) %MON forcing_fv_del2              =   2.3832796041755E-04
(PID.TID 0000.0001) %MON trAdv_CFL_u_max              =   9.6515051784853E-02
(PID.TID 0000.0001) %MON trAdv_CFL_v_max              =   1.0154810757877E-01
(PID.TID 0000.0001) %MON trAdv_CFL_w_max              =   1.0645421420949E-01
(PID.TID 0000.0001) %MON advcfl_uvel_max              =   7.7931414116439E-02
(PID.TID 0000.0001) %MON advcfl_vvel_max              =   7.8875813795696E-02
(PID.TID 0000.0001) %MON advcfl_wvel_max              =   6.8935264153555E-02
(PID.TID 0000.0001) %MON advcfl_W_hf_max              =   7.6116020836217E-02
(PID.TID 0000.0001) %MON pe_b_mean                    =   5.2008163251850E-04
(PID.TID 0000.0001) %MON ke_max                       =   3.6720656804222E-02
(PID.TID 0000.0001) %MON ke_mean                      =   1.6336608683472E-04
(PID.TID 0000.0001) %MON ke_vol                       =   1.3398024453628E+18
(PID.TID 0000.0001) %MON vort_r_min                   =  -1.1848551427025E-06
(PID.TID 0000.0001) %MON vort_r_max                   =   1.1860457829633E-06
(PID.TID 0000.0001) %MON vort_a_mean                  =  -2.0549865324846E-05
(PID.TID 0000.0001) %MON vort_a_sd                    =   7.5259615666174E-05
(PID.TID 0000.0001) %MON vort_p_mean                  =  -2.4783522345032E-05
(PID.TID 0000.0001) %MON vort_p_sd                    =   1.2810592266290E-04
(PID.TID 0000.0001) %MON surfExpan_theta_mean         =   5.1495375979960E-08
(PID.TID 0000.0001) %MON surfExpan_salt_mean          =   1.5864275225801E-08
(PID.TID 0000.0001) // =======================================================
(PID.TID 0000.0001) // End MONITOR dynamic field statistics
(PID.TID 0000.0001) // =======================================================
(PID.TID 0000.0001) // =======================================================
(PID.TID 0000.0001) // Begin MONITOR ptracer field statistics
(PID.TID 0000.0001) // =======================================================
(PID.TID 0000.0001) %MON trcstat_ptracer01_max        =   1.3014079542558E+08
(PID.TID 0000.0001) %MON trcstat_ptracer01_min        =  -3.1785560972656E+06
(PID.TID 0000.0001) %MON trcstat_ptracer01_mean       =   1.2223494153302E+08
(PID.TID 0000.0001) %MON trcstat_ptracer01_sd         =   1.9102885576630E+07
(PID.TID 0000.0001) %MON trcstat_ptracer01_del2       =   3.2850129725568E+04
(PID.TID 0000.0001) // =======================================================
(PID.TID 0000.0001) // End MONITOR ptracer field statistics
(PID.TID 0000.0001) // =======================================================
 Computing Diagnostic #    79 "DRHODR  " (list#  1) Parms "SM      LR      ", Count=      10
 Computing Diagnostic #    64 "RHOAnoma" (list#  1) Parms "SMR     MR      ", Count=      10
 Computing Diagnostic #    80 "CONVADJ " (list#  1) Parms "SMR     LR      ", Count=      10
 Computing Diagnostic #   210 "GM_Kwx  " (list#  1) Parms "UM      LR      ", Count=      10
             Vector  Mate for "GM_Kwx  " :  Diagnostic #    211 "GM_Kwy  " exists
 Computing Diagnostic #   211 "GM_Kwy  " (list#  1) Parms "VM      LR      ", Count=      10
             Vector  Mate for "GM_Kwy  " :  Diagnostic #    210 "GM_Kwx  " exists
 Computing Diagnostic #   212 "GM_Kwz  " (list#  1) Parms "WM P    LR      ", Count=      10
 Computing Diagnostic #   213 "GM_PsiX " (list#  1) Parms "UU      LR      ", Count=      10
             Vector  Mate for "GM_PsiX " :  Diagnostic #    214 "GM_PsiY " exists
 Computing Diagnostic #   214 "GM_PsiY " (list#  1) Parms "VV      LR      ", Count=      10
             Vector  Mate for "GM_PsiY " :  Diagnostic #    213 "GM_PsiX " exists
 EXTERNAL_FIELDS_LOAD,      1470 : iP,iLd,i0,i1=    1    2    1    2 ; Wght=  0.5000000000  0.5000000000
 cg2d: Sum(rhs),rhsMax =  -1.42108547152020E-13  5.37861522224347E+00
 EXTERNAL_FIELDS_LOAD,      1471 : iP,iLd,i0,i1=    1    2    1    2 ; Wght=  0.4666666667  0.5333333333
 cg2d: Sum(rhs),rhsMax =  -3.41060513164848E-13  5.37652998883326E+00
 EXTERNAL_FIELDS_LOAD,      1472 : iP,iLd,i0,i1=    1    2    1    2 ; Wght=  0.4333333333  0.5666666667
 cg2d: Sum(rhs),rhsMax =  -3.41060513164848E-13  5.37460779277955E+00
 EXTERNAL_FIELDS_LOAD,      1473 : iP,iLd,i0,i1=    1    2    1    2 ; Wght=  0.4000000000  0.6000000000
 cg2d: Sum(rhs),rhsMax =  -2.27373675443232E-13  5.37287725911366E+00
 EXTERNAL_FIELDS_LOAD,      1474 : iP,iLd,i0,i1=    1    2    1    2 ; Wght=  0.3666666667  0.6333333333
 cg2d: Sum(rhs),rhsMax =  -1.70530256582424E-13  5.37136467801652E+00
 EXTERNAL_FIELDS_LOAD,      1475 : iP,iLd,i0,i1=    1    2    1    2 ; Wght=  0.3333333333  0.6666666667
 cg2d: Sum(rhs),rhsMax =  -4.54747350886464E-13  5.37009344227860E+00
 Compute Stats, Diag. #    23 "ETAN    " (list#  1) Parms "SM      M1      ", vol(  0 )= 3.639E+14
 Compute Stats, Diag. #    30 "UVEL    " (list#  1) Parms "UUR     MR      ", vol(  0 )= 1.231E+18
 Compute Stats, Diag. #    31 "VVEL    " (list#  1) Parms "VVR     MR      ", vol(  0 )= 1.243E+18
 Compute Stats, Diag. #    32 "WVEL    " (list#  1) Parms "WM      LR      ", vol(  0 )= 1.315E+18
 Compute Stats, Diag. #    26 "THETA   " (list#  1) Parms "SMR     MR      ", vol(  0 )= 1.340E+18
 EXTERNAL_FIELDS_LOAD,      1476 : iP,iLd,i0,i1=    1    2    1    2 ; Wght=  0.3000000000  0.7000000000
 cg2d: Sum(rhs),rhsMax =  -2.84217094304040E-13  5.36908343764643E+00
 EXTERNAL_FIELDS_LOAD,      1477 : iP,iLd,i0,i1=    1    2    1    2 ; Wght=  0.2666666667  0.7333333333
 cg2d: Sum(rhs),rhsMax =  -1.70530256582424E-13  5.36835055114765E+00
 EXTERNAL_FIELDS_LOAD,      1478 : iP,iLd,i0,i1=    1    2    1    2 ; Wght=  0.2333333333  0.7666666667
 cg2d: Sum(rhs),rhsMax =  -1.42108547152020E-13  5.36790621499716E+00
 EXTERNAL_FIELDS_LOAD,      1479 : iP,iLd,i0,i1=    1    2    1    2 ; Wght=  0.2000000000  0.8000000000
 cg2d: Sum(rhs),rhsMax =  -2.55795384873636E-13  5.36775693577797E+00
 Computing Diagnostic #    79 "DRHODR  " (list#  1) Parms "SM      LR      ", Count=      10
 Computing Diagnostic #    64 "RHOAnoma" (list#  1) Parms "SMR     MR      ", Count=      10
 Computing Diagnostic #    80 "CONVADJ " (list#  1) Parms "SMR     LR      ", Count=      10
 Computing Diagnostic #   210 "GM_Kwx  " (list#  1) Parms "UM      LR      ", Count=      10
             Vector  Mate for "GM_Kwx  " :  Diagnostic #    211 "GM_Kwy  " exists
 Computing Diagnostic #   211 "GM_Kwy  " (list#  1) Parms "VM      LR      ", Count=      10
             Vector  Mate for "GM_Kwy  " :  Diagnostic #    210 "GM_Kwx  " exists
 Computing Diagnostic #   212 "GM_Kwz  " (list#  1) Parms "WM P    LR      ", Count=      10
 Computing Diagnostic #   213 "GM_PsiX " (list#  1) Parms "UU      LR      ", Count=      10
             Vector  Mate for "GM_PsiX " :  Diagnostic #    214 "GM_PsiY " exists
 Computing Diagnostic #   214 "GM_PsiY " (list#  1) Parms "VV      LR      ", Count=      10
             Vector  Mate for "GM_PsiY " :  Diagnostic #    213 "GM_PsiX " exists
 EXTERNAL_FIELDS_LOAD,      1480 : iP,iLd,i0,i1=    1    2    1    2 ; Wght=  0.1666666667  0.8333333333
 cg2d: Sum(rhs),rhsMax =  -3.41060513164848E-13  5.36790393174873E+00
 EXTERNAL_FIELDS_LOAD,      1481 : iP,iLd,i0,i1=    1    2    1    2 ; Wght=  0.1333333333  0.8666666667
 cg2d: Sum(rhs),rhsMax =  -1.98951966012828E-13  5.36834289903121E+00
 EXTERNAL_FIELDS_LOAD,      1482 : iP,iLd,i0,i1=    1    2    1    2 ; Wght=  0.1000000000  0.9000000000
 cg2d: Sum(rhs),rhsMax =  -3.97903932025656E-13  5.36906390554405E+00
 EXTERNAL_FIELDS_LOAD,      1483 : iP,iLd,i0,i1=    1    2    1    2 ; Wght=  0.0666666667  0.9333333333
 cg2d: Sum(rhs),rhsMax =  -2.27373675443232E-13  5.37005142910511E+00
 EXTERNAL_FIELDS_LOAD,      1484 : iP,iLd,i0,i1=    1    2    1    2 ; Wght=  0.0333333333  0.9666666667
 cg2d: Sum(rhs),rhsMax =  -2.55795384873636E-13  5.37128455460285E+00
 EXTERNAL_FIELDS_LOAD,      1485 : iP,iLd,i0,i1=    1    2    2    3 ; Wght=  1.0000000000  0.0000000000
 EXTERNAL_FIELDS_LOAD, it=      1485 : Reading new data, i0,i1=    2    3 (prev=    1    2 )
(PID.TID 0000.0001)  MDS_READ_FIELD: opening global file: trenberth_taux.bin
(PID.TID 0000.0001)  MDS_READ_FIELD: opening global file: trenberth_taux.bin
(PID.TID 0000.0001)  MDS_READ_FIELD: opening global file: trenberth_tauy.bin
(PID.TID 0000.0001)  MDS_READ_FIELD: opening global file: trenberth_tauy.bin
(PID.TID 0000.0001)  MDS_READ_FIELD: opening global file: shiQnet_cs32.bin
(PID.TID 0000.0001)  MDS_READ_FIELD: opening global file: shiQnet_cs32.bin
(PID.TID 0000.0001)  MDS_READ_FIELD: opening global file: shiEmPR_cs32.bin
(PID.TID 0000.0001)  MDS_READ_FIELD: opening global file: shiEmPR_cs32.bin
(PID.TID 0000.0001)  MDS_READ_FIELD: opening global file: lev_surfT_cs_12m.bin
(PID.TID 0000.0001)  MDS_READ_FIELD: opening global file: lev_surfT_cs_12m.bin
(PID.TID 0000.0001)  MDS_READ_FIELD: opening global file: lev_surfS_cs_12m.bin
(PID.TID 0000.0001)  MDS_READ_FIELD: opening global file: lev_surfS_cs_12m.bin
 cg2d: Sum(rhs),rhsMax =  -3.41060513164848E-13  5.37273732428384E+00
 Compute Stats, Diag. #    23 "ETAN    " (list#  1) Parms "SM      M1      ", vol(  0 )= 3.639E+14
 Compute Stats, Diag. #    30 "UVEL    " (list#  1) Parms "UUR     MR      ", vol(  0 )= 1.231E+18
 Compute Stats, Diag. #    31 "VVEL    " (list#  1) Parms "VVR     MR      ", vol(  0 )= 1.243E+18
 Compute Stats, Diag. #    32 "WVEL    " (list#  1) Parms "WM      LR      ", vol(  0 )= 1.315E+18
 Compute Stats, Diag. #    26 "THETA   " (list#  1) Parms "SMR     MR      ", vol(  0 )= 1.340E+18
 EXTERNAL_FIELDS_LOAD,      1486 : iP,iLd,i0,i1=    2    3    2    3 ; Wght=  0.9666666667  0.0333333333
 cg2d: Sum(rhs),rhsMax =  -1.42108547152020E-13  5.37437311651733E+00
 EXTERNAL_FIELDS_LOAD,      1487 : iP,iLd,i0,i1=    2    3    2    3 ; Wght=  0.9333333333  0.0666666667
 cg2d: Sum(rhs),rhsMax =  -1.13686837721616E-13  5.37615963183964E+00
 EXTERNAL_FIELDS_LOAD,      1488 : iP,iLd,i0,i1=    2    3    2    3 ; Wght=  0.9000000000  0.1000000000
 cg2d: Sum(rhs),rhsMax =  -5.40012479177676E-13  5.37807147103046E+00
 EXTERNAL_FIELDS_LOAD,      1489 : iP,iLd,i0,i1=    2    3    2    3 ; Wght=  0.8666666667  0.1333333333
 cg2d: Sum(rhs),rhsMax =  -2.27373675443232E-13  5.38006710371640E+00
 Computing Diagnostic #    79 "DRHODR  " (list#  1) Parms "SM      LR      ", Count=      10
 Computing Diagnostic #    64 "RHOAnoma" (list#  1) Parms "SMR     MR      ", Count=      10
 Computing Diagnostic #    80 "CONVADJ " (list#  1) Parms "SMR     LR      ", Count=      10
 Computing Diagnostic #   210 "GM_Kwx  " (list#  1) Parms "UM      LR      ", Count=      10
             Vector  Mate for "GM_Kwx  " :  Diagnostic #    211 "GM_Kwy  " exists
 Computing Diagnostic #   211 "GM_Kwy  " (list#  1) Parms "VM      LR      ", Count=      10
             Vector  Mate for "GM_Kwy  " :  Diagnostic #    210 "GM_Kwx  " exists
 Computing Diagnostic #   212 "GM_Kwz  " (list#  1) Parms "WM P    LR      ", Count=      10
 Computing Diagnostic #   213 "GM_PsiX " (list#  1) Parms "UU      LR      ", Count=      10
             Vector  Mate for "GM_PsiX " :  Diagnostic #    214 "GM_PsiY " exists
 Computing Diagnostic #   214 "GM_PsiY " (list#  1) Parms "VV      LR      ", Count=      10
             Vector  Mate for "GM_PsiY " :  Diagnostic #    213 "GM_PsiX " exists
 EXTERNAL_FIELDS_LOAD,      1490 : iP,iLd,i0,i1=    2    3    2    3 ; Wght=  0.8333333333  0.1666666667
 cg2d: Sum(rhs),rhsMax =  -3.41060513164848E-13  5.38210462367165E+00
 EXTERNAL_FIELDS_LOAD,      1491 : iP,iLd,i0,i1=    2    3    2    3 ; Wght=  0.8000000000  0.2000000000
 cg2d: Sum(rhs),rhsMax =  -5.68434188608080E-14  5.38414370045411E+00
 EXTERNAL_FIELDS_LOAD,      1492 : iP,iLd,i0,i1=    2    3    2    3 ; Wght=  0.7666666667  0.2333333333
 cg2d: Sum(rhs),rhsMax =  -2.27373675443232E-13  5.38614466258199E+00
 EXTERNAL_FIELDS_LOAD,      1493 : iP,iLd,i0,i1=    2    3    2    3 ; Wght=  0.7333333333  0.2666666667
 cg2d: Sum(rhs),rhsMax =  -3.12638803734444E-13  5.38806872926848E+00
 EXTERNAL_FIELDS_LOAD,      1494 : iP,iLd,i0,i1=    2    3    2    3 ; Wght=  0.7000000000  0.3000000000
 cg2d: Sum(rhs),rhsMax =  -3.12638803734444E-13  5.38987913871521E+00
 EXTERNAL_FIELDS_LOAD,      1495 : iP,iLd,i0,i1=    2    3    2    3 ; Wght=  0.6666666667  0.3333333333
 cg2d: Sum(rhs),rhsMax =  -5.68434188608080E-14  5.39154216626228E+00
 Compute Stats, Diag. #    23 "ETAN    " (list#  1) Parms "SM      M1      ", vol(  0 )= 3.639E+14
 Compute Stats, Diag. #    30 "UVEL    " (list#  1) Parms "UUR     MR      ", vol(  0 )= 1.231E+18
 Compute Stats, Diag. #    31 "VVEL    " (list#  1) Parms "VVR     MR      ", vol(  0 )= 1.243E+18
 Compute Stats, Diag. #    32 "WVEL    " (list#  1) Parms "WM      LR      ", vol(  0 )= 1.315E+18
 Compute Stats, Diag. #    26 "THETA   " (list#  1) Parms "SMR     MR      ", vol(  0 )= 1.340E+18
 EXTERNAL_FIELDS_LOAD,      1496 : iP,iLd,i0,i1=    2    3    2    3 ; Wght=  0.6333333333  0.3666666667
 cg2d: Sum(rhs),rhsMax =  -8.52651282912120E-14  5.39302789461751E+00
 EXTERNAL_FIELDS_LOAD,      1497 : iP,iLd,i0,i1=    2    3    2    3 ; Wght=  0.6000000000  0.4000000000
 cg2d: Sum(rhs),rhsMax =  -2.84217094304040E-13  5.39431088304888E+00
 EXTERNAL_FIELDS_LOAD,      1498 : iP,iLd,i0,i1=    2    3    2    3 ; Wght=  0.5666666667  0.4333333333
 cg2d: Sum(rhs),rhsMax =  -3.69482222595252E-13  5.39537057941946E+00
 EXTERNAL_FIELDS_LOAD,      1499 : iP,iLd,i0,i1=    2    3    2    3 ; Wght=  0.5333333333  0.4666666667
 cg2d: Sum(rhs),rhsMax =  -3.69482222595252E-13  5.39619189068588E+00
(PID.TID 0000.0001)      cg2d_init_res =   1.36048830842731E-01
(PID.TID 0000.0001)      cg2d_iters(min,last) =      -1      59
(PID.TID 0000.0001)      cg2d_last_res =   5.73416525280011E-07
(PID.TID 0000.0001) // =======================================================
(PID.TID 0000.0001) // Begin MONITOR dynamic field statistics
(PID.TID 0000.0001) // =======================================================
(PID.TID 0000.0001) %MON time_tsnumber                =                  1500
(PID.TID 0000.0001) %MON time_secondsf                =   1.2960000000000E+08
(PID.TID 0000.0001) %MON dynstat_eta_max              =   8.9356795218858E-01
(PID.TID 0000.0001) %MON dynstat_eta_min              =  -1.8397592726071E+00
(PID.TID 0000.0001) %MON dynstat_eta_mean             =   2.6107024578732E-16
(PID.TID 0000.0001) %MON dynstat_eta_sd               =   6.2460028895476E-01
(PID.TID 0000.0001) %MON dynstat_eta_del2             =   8.8396577178857E-04
(PID.TID 0000.0001) %MON dynstat_uvel_max             =   1.6361006957914E-01
(PID.TID 0000.0001) %MON dynstat_uvel_min             =  -2.5343491818345E-01
(PID.TID 0000.0001) %MON dynstat_uvel_mean            =  -4.9594899251407E-04
(PID.TID 0000.0001) %MON dynstat_uvel_sd              =   1.3118215481315E-02
(PID.TID 0000.0001) %MON dynstat_uvel_del2            =   5.6793347471628E-05
(PID.TID 0000.0001) %MON dynstat_vvel_max             =   1.7599999204084E-01
(PID.TID 0000.0001) %MON dynstat_vvel_min             =  -2.2764935746325E-01
(PID.TID 0000.0001) %MON dynstat_vvel_mean            =  -3.8872425359855E-04
(PID.TID 0000.0001) %MON dynstat_vvel_sd              =   1.3405128420819E-02
(PID.TID 0000.0001) %MON dynstat_vvel_del2            =   5.4657355517641E-05
(PID.TID 0000.0001) %MON dynstat_wvel_max             =   1.1281512550046E-04
(PID.TID 0000.0001) %MON dynstat_wvel_min             =  -2.1645576783840E-04
(PID.TID 0000.0001) %MON dynstat_wvel_mean            =  -5.8020311095697E-24
(PID.TID 0000.0001) %MON dynstat_wvel_sd              =   4.3809073931651E-06
(PID.TID 0000.0001) %MON dynstat_wvel_del2            =   3.4171553416568E-08
(PID.TID 0000.0001) %MON dynstat_theta_max            =   3.1204254576949E+01
(PID.TID 0000.0001) %MON dynstat_theta_min            =  -7.7378541881078E+00
(PID.TID 0000.0001) %MON dynstat_theta_mean           =   3.6146709753852E+00
(PID.TID 0000.0001) %MON dynstat_theta_sd             =   4.4263607156833E+00
(PID.TID 0000.0001) %MON dynstat_theta_del2           =   3.2159423467000E-03
(PID.TID 0000.0001) %MON dynstat_salt_max             =   4.1359206631516E+01
(PID.TID 0000.0001) %MON dynstat_salt_min             =   1.8681632300411E+01
(PID.TID 0000.0001) %MON dynstat_salt_mean            =   3.4721566505754E+01
(PID.TID 0000.0001) %MON dynstat_salt_sd              =   4.9675575371060E-01
(PID.TID 0000.0001) %MON dynstat_salt_del2            =   1.0119482386317E-03
(PID.TID 0000.0001) %MON forcing_qnet_max             =   3.3042634335178E+02
(PID.TID 0000.0001) %MON forcing_qnet_min             =  -1.7660851259454E+02
(PID.TID 0000.0001) %MON forcing_qnet_mean            =  -1.0852729938019E+01
(PID.TID 0000.0001) %MON forcing_qnet_sd              =   7.0657056700312E+01
(PID.TID 0000.0001) %MON forcing_qnet_del2            =   4.2814957942894E-01
(PID.TID 0000.0001) %MON forcing_qsw_max              =   0.0000000000000E+00
(PID.TID 0000.0001) %MON forcing_qsw_min              =   0.0000000000000E+00
(PID.TID 0000.0001) %MON forcing_qsw_mean             =   0.0000000000000E+00
(PID.TID 0000.0001) %MON forcing_qsw_sd               =   0.0000000000000E+00
(PID.TID 0000.0001) %MON forcing_qsw_del2             =   0.0000000000000E+00
(PID.TID 0000.0001) %MON forcing_empmr_max            =   7.6494447208479E-05
(PID.TID 0000.0001) %MON forcing_empmr_min            =  -1.5362614137596E-04
(PID.TID 0000.0001) %MON forcing_empmr_mean           =  -2.7256318706594E-21
(PID.TID 0000.0001) %MON forcing_empmr_sd             =   2.4051723601802E-05
(PID.TID 0000.0001) %MON forcing_empmr_del2           =   1.2276157049243E-07
(PID.TID 0000.0001) %MON forcing_fu_max               =   2.5900680920623E-01
(PID.TID 0000.0001) %MON forcing_fu_min               =  -2.7674482002417E-01
(PID.TID 0000.0001) %MON forcing_fu_mean              =  -6.6071708361519E-03
(PID.TID 0000.0001) %MON forcing_fu_sd                =   6.6479507797018E-02
(PID.TID 0000.0001) %MON forcing_fu_del2              =   2.0283374775688E-04
(PID.TID 0000.0001) %MON forcing_fv_max               =   2.5607026525915E-01
(PID.TID 0000.0001) %MON forcing_fv_min               =  -3.1974616055058E-01
(PID.TID 0000.0001) %MON forcing_fv_mean              =  -1.3204626201289E-02
(PID.TID 0000.0001) %MON forcing_fv_sd                =   7.6035559339825E-02
(PID.TID 0000.0001) %MON forcing_fv_del2              =   2.3251705072657E-04
(PID.TID 0000.0001) %MON trAdv_CFL_u_max              =   8.3351914183835E-02
(PID.TID 0000.0001) %MON trAdv_CFL_v_max              =   7.9980377159793E-02
(PID.TID 0000.0001) %MON trAdv_CFL_w_max              =   1.0812710753582E-01
(PID.TID 0000.0001) %MON advcfl_uvel_max              =   7.2204506158201E-02
(PID.TID 0000.0001) %MON advcfl_vvel_max              =   7.4041217781457E-02
(PID.TID 0000.0001) %MON advcfl_wvel_max              =   7.0572748457500E-02
(PID.TID 0000.0001) %MON advcfl_W_hf_max              =   7.7924076421823E-02
(PID.TID 0000.0001) %MON pe_b_mean                    =   5.1971928759307E-04
(PID.TID 0000.0001) %MON ke_max                       =   3.4878636015574E-02
(PID.TID 0000.0001) %MON ke_mean                      =   1.6260883141100E-04
(PID.TID 0000.0001) %MON ke_vol                       =   1.3398024453628E+18
(PID.TID 0000.0001) %MON vort_r_min                   =  -1.2116774575055E-06
(PID.TID 0000.0001) %MON vort_r_max                   =   1.1757478262248E-06
(PID.TID 0000.0001) %MON vort_a_mean                  =  -2.0549865324846E-05
(PID.TID 0000.0001) %MON vort_a_sd                    =   7.5259620587750E-05
(PID.TID 0000.0001) %MON vort_p_mean                  =  -2.4783522345032E-05
(PID.TID 0000.0001) %MON vort_p_sd                    =   1.2810574510773E-04
(PID.TID 0000.0001) %MON surfExpan_theta_mean         =   8.0525420652410E-08
(PID.TID 0000.0001) %MON surfExpan_salt_mean          =   1.7051791198495E-08
(PID.TID 0000.0001) // =======================================================
(PID.TID 0000.0001) // End MONITOR dynamic field statistics
(PID.TID 0000.0001) // =======================================================
(PID.TID 0000.0001) // =======================================================
(PID.TID 0000.0001) // Begin MONITOR ptracer field statistics
(PID.TID 0000.0001) // =======================================================
(PID.TID 0000.0001) %MON trcstat_ptracer01_max        =   1.3255870477070E+08
(PID.TID 0000.0001) %MON trcstat_ptracer01_min        =  -3.7726514707784E+06
(PID.TID 0000.0001) %MON trcstat_ptracer01_mean       =   1.2469664022338E+08
(PID.TID 0000.0001) %MON trcstat_ptracer01_sd         =   1.9540080156738E+07
(PID.TID 0000.0001) %MON trcstat_ptracer01_del2       =   3.4216900095065E+04
(PID.TID 0000.0001) // =======================================================
(PID.TID 0000.0001) // End MONITOR ptracer field statistics
(PID.TID 0000.0001) // =======================================================
 Computing Diagnostic #    79 "DRHODR  " (list#  1) Parms "SM      LR      ", Count=      10
 Computing Diagnostic #    64 "RHOAnoma" (list#  1) Parms "SMR     MR      ", Count=      10
 Computing Diagnostic #    80 "CONVADJ " (list#  1) Parms "SMR     LR      ", Count=      10
 Computing Diagnostic #   210 "GM_Kwx  " (list#  1) Parms "UM      LR      ", Count=      10
             Vector  Mate for "GM_Kwx  " :  Diagnostic #    211 "GM_Kwy  " exists
 Computing Diagnostic #   211 "GM_Kwy  " (list#  1) Parms "VM      LR      ", Count=      10
             Vector  Mate for "GM_Kwy  " :  Diagnostic #    210 "GM_Kwx  " exists
 Computing Diagnostic #   212 "GM_Kwz  " (list#  1) Parms "WM P    LR      ", Count=      10
 Computing Diagnostic #   213 "GM_PsiX " (list#  1) Parms "UU      LR      ", Count=      10
             Vector  Mate for "GM_PsiX " :  Diagnostic #    214 "GM_PsiY " exists
 Computing Diagnostic #   214 "GM_PsiY " (list#  1) Parms "VV      LR      ", Count=      10
             Vector  Mate for "GM_PsiY " :  Diagnostic #    213 "GM_PsiX " exists
 EXTERNAL_FIELDS_LOAD,      1500 : iP,iLd,i0,i1=    2    3    2    3 ; Wght=  0.5000000000  0.5000000000
 cg2d: Sum(rhs),rhsMax =  -2.84217094304040E-13  5.39676548078370E+00
 EXTERNAL_FIELDS_LOAD,      1501 : iP,iLd,i0,i1=    2    3    2    3 ; Wght=  0.4666666667  0.5333333333
 cg2d: Sum(rhs),rhsMax =  -2.84217094304040E-13  5.39708805446101E+00
 EXTERNAL_FIELDS_LOAD,      1502 : iP,iLd,i0,i1=    2    3    2    3 ; Wght=  0.4333333333  0.5666666667
 cg2d: Sum(rhs),rhsMax =  -1.70530256582424E-13  5.39716239976228E+00
 EXTERNAL_FIELDS_LOAD,      1503 : iP,iLd,i0,i1=    2    3    2    3 ; Wght=  0.4000000000  0.6000000000
 cg2d: Sum(rhs),rhsMax =  -2.27373675443232E-13  5.39699739666457E+00
 EXTERNAL_FIELDS_LOAD,      1504 : iP,iLd,i0,i1=    2    3    2    3 ; Wght=  0.3666666667  0.6333333333
 cg2d: Sum(rhs),rhsMax =  -6.25277607468888E-13  5.39660769933422E+00
 EXTERNAL_FIELDS_LOAD,      1505 : iP,iLd,i0,i1=    2    3    2    3 ; Wght=  0.3333333333  0.6666666667
 cg2d: Sum(rhs),rhsMax =  -3.41060513164848E-13  5.39601336711830E+00
 Compute Stats, Diag. #    23 "ETAN    " (list#  1) Parms "SM      M1      ", vol(  0 )= 3.639E+14
 Compute Stats, Diag. #    30 "UVEL    " (list#  1) Parms "UUR     MR      ", vol(  0 )= 1.231E+18
 Compute Stats, Diag. #    31 "VVEL    " (list#  1) Parms "VVR     MR      ", vol(  0 )= 1.243E+18
 Compute Stats, Diag. #    32 "WVEL    " (list#  1) Parms "WM      LR      ", vol(  0 )= 1.315E+18
 Compute Stats, Diag. #    26 "THETA   " (list#  1) Parms "SMR     MR      ", vol(  0 )= 1.340E+18
 EXTERNAL_FIELDS_LOAD,      1506 : iP,iLd,i0,i1=    2    3    2    3 ; Wght=  0.3000000000  0.7000000000
 cg2d: Sum(rhs),rhsMax =  -1.98951966012828E-13  5.39523929833573E+00
 EXTERNAL_FIELDS_LOAD,      1507 : iP,iLd,i0,i1=    2    3    2    3 ; Wght=  0.2666666667  0.7333333333
 cg2d: Sum(rhs),rhsMax =  -1.98951966012828E-13  5.39431481363570E+00
 EXTERNAL_FIELDS_LOAD,      1508 : iP,iLd,i0,i1=    2    3    2    3 ; Wght=  0.2333333333  0.7666666667
 cg2d: Sum(rhs),rhsMax =  -3.41060513164848E-13  5.39327266547230E+00
 EXTERNAL_FIELDS_LOAD,      1509 : iP,iLd,i0,i1=    2    3    2    3 ; Wght=  0.2000000000  0.8000000000
 cg2d: Sum(rhs),rhsMax =  -2.84217094304040E-13  5.39214860512337E+00
 Computing Diagnostic #    79 "DRHODR  " (list#  1) Parms "SM      LR      ", Count=      10
 Computing Diagnostic #    64 "RHOAnoma" (list#  1) Parms "SMR     MR      ", Count=      10
 Computing Diagnostic #    80 "CONVADJ " (list#  1) Parms "SMR     LR      ", Count=      10
 Computing Diagnostic #   210 "GM_Kwx  " (list#  1) Parms "UM      LR      ", Count=      10
             Vector  Mate for "GM_Kwx  " :  Diagnostic #    211 "GM_Kwy  " exists
 Computing Diagnostic #   211 "GM_Kwy  " (list#  1) Parms "VM      LR      ", Count=      10
             Vector  Mate for "GM_Kwy  " :  Diagnostic #    210 "GM_Kwx  " exists
 Computing Diagnostic #   212 "GM_Kwz  " (list#  1) Parms "WM P    LR      ", Count=      10
 Computing Diagnostic #   213 "GM_PsiX " (list#  1) Parms "UU      LR      ", Count=      10
             Vector  Mate for "GM_PsiX " :  Diagnostic #    214 "GM_PsiY " exists
 Computing Diagnostic #   214 "GM_PsiY " (list#  1) Parms "VV      LR      ", Count=      10
             Vector  Mate for "GM_PsiY " :  Diagnostic #    213 "GM_PsiX " exists
 EXTERNAL_FIELDS_LOAD,      1510 : iP,iLd,i0,i1=    2    3    2    3 ; Wght=  0.1666666667  0.8333333333
 cg2d: Sum(rhs),rhsMax =  -3.97903932025656E-13  5.39098054590039E+00
 EXTERNAL_FIELDS_LOAD,      1511 : iP,iLd,i0,i1=    2    3    2    3 ; Wght=  0.1333333333  0.8666666667
 cg2d: Sum(rhs),rhsMax =  -4.26325641456060E-13  5.38980783827360E+00
 EXTERNAL_FIELDS_LOAD,      1512 : iP,iLd,i0,i1=    2    3    2    3 ; Wght=  0.1000000000  0.9000000000
 cg2d: Sum(rhs),rhsMax =  -1.98951966012828E-13  5.38867052688362E+00
 EXTERNAL_FIELDS_LOAD,      1513 : iP,iLd,i0,i1=    2    3    2    3 ; Wght=  0.0666666667  0.9333333333
 cg2d: Sum(rhs),rhsMax =   2.84217094304040E-14  5.38760864919641E+00
 EXTERNAL_FIELDS_LOAD,      1514 : iP,iLd,i0,i1=    2    3    2    3 ; Wght=  0.0333333333  0.9666666667
 cg2d: Sum(rhs),rhsMax =  -3.97903932025656E-13  5.38666146977387E+00
 EXTERNAL_FIELDS_LOAD,      1515 : iP,iLd,i0,i1=    2    3    3    4 ; Wght=  1.0000000000  0.0000000000
 EXTERNAL_FIELDS_LOAD, it=      1515 : Reading new data, i0,i1=    3    4 (prev=    2    3 )
(PID.TID 0000.0001)  MDS_READ_FIELD: opening global file: trenberth_taux.bin
(PID.TID 0000.0001)  MDS_READ_FIELD: opening global file: trenberth_taux.bin
(PID.TID 0000.0001)  MDS_READ_FIELD: opening global file: trenberth_tauy.bin
(PID.TID 0000.0001)  MDS_READ_FIELD: opening global file: trenberth_tauy.bin
(PID.TID 0000.0001)  MDS_READ_FIELD: opening global file: shiQnet_cs32.bin
(PID.TID 0000.0001)  MDS_READ_FIELD: opening global file: shiQnet_cs32.bin
(PID.TID 0000.0001)  MDS_READ_FIELD: opening global file: shiEmPR_cs32.bin
(PID.TID 0000.0001)  MDS_READ_FIELD: opening global file: shiEmPR_cs32.bin
(PID.TID 0000.0001)  MDS_READ_FIELD: opening global file: lev_surfT_cs_12m.bin
(PID.TID 0000.0001)  MDS_READ_FIELD: opening global file: lev_surfT_cs_12m.bin
(PID.TID 0000.0001)  MDS_READ_FIELD: opening global file: lev_surfS_cs_12m.bin
(PID.TID 0000.0001)  MDS_READ_FIELD: opening global file: lev_surfS_cs_12m.bin
 cg2d: Sum(rhs),rhsMax =  -1.13686837721616E-13  5.38586684430960E+00
 Compute Stats, Diag. #    23 "ETAN    " (list#  1) Parms "SM      M1      ", vol(  0 )= 3.639E+14
 Compute Stats, Diag. #    30 "UVEL    " (list#  1) Parms "UUR     MR      ", vol(  0 )= 1.231E+18
 Compute Stats, Diag. #    31 "VVEL    " (list#  1) Parms "VVR     MR      ", vol(  0 )= 1.243E+18
 Compute Stats, Diag. #    32 "WVEL    " (list#  1) Parms "WM      LR      ", vol(  0 )= 1.315E+18
 Compute Stats, Diag. #    26 "THETA   " (list#  1) Parms "SMR     MR      ", vol(  0 )= 1.340E+18
 EXTERNAL_FIELDS_LOAD,      1516 : iP,iLd,i0,i1=    3    4    3    4 ; Wght=  0.9666666667  0.0333333333
 cg2d: Sum(rhs),rhsMax =  -3.69482222595252E-13  5.38531755342201E+00
 EXTERNAL_FIELDS_LOAD,      1517 : iP,iLd,i0,i1=    3    4    3    4 ; Wght=  0.9333333333  0.0666666667
 cg2d: Sum(rhs),rhsMax =  -2.84217094304040E-13  5.38497532933579E+00
 EXTERNAL_FIELDS_LOAD,      1518 : iP,iLd,i0,i1=    3    4    3    4 ; Wght=  0.9000000000  0.1000000000
 cg2d: Sum(rhs),rhsMax =  -2.27373675443232E-13  5.38486382561035E+00
 EXTERNAL_FIELDS_LOAD,      1519 : iP,iLd,i0,i1=    3    4    3    4 ; Wght=  0.8666666667  0.1333333333
 cg2d: Sum(rhs),rhsMax =  -2.84217094304040E-13  5.38501369177235E+00
 Computing Diagnostic #    79 "DRHODR  " (list#  1) Parms "SM      LR      ", Count=      10
 Computing Diagnostic #    64 "RHOAnoma" (list#  1) Parms "SMR     MR      ", Count=      10
 Computing Diagnostic #    80 "CONVADJ " (list#  1) Parms "SMR     LR      ", Count=      10
 Computing Diagnostic #   210 "GM_Kwx  " (list#  1) Parms "UM      LR      ", Count=      10
             Vector  Mate for "GM_Kwx  " :  Diagnostic #    211 "GM_Kwy  " exists
 Computing Diagnostic #   211 "GM_Kwy  " (list#  1) Parms "VM      LR      ", Count=      10
             Vector  Mate for "GM_Kwy  " :  Diagnostic #    210 "GM_Kwx  " exists
 Computing Diagnostic #   212 "GM_Kwz  " (list#  1) Parms "WM P    LR      ", Count=      10
 Computing Diagnostic #   213 "GM_PsiX " (list#  1) Parms "UU      LR      ", Count=      10
             Vector  Mate for "GM_PsiX " :  Diagnostic #    214 "GM_PsiY " exists
 Computing Diagnostic #   214 "GM_PsiY " (list#  1) Parms "VV      LR      ", Count=      10
             Vector  Mate for "GM_PsiY " :  Diagnostic #    213 "GM_PsiX " exists
 EXTERNAL_FIELDS_LOAD,      1520 : iP,iLd,i0,i1=    3    4    3    4 ; Wght=  0.8333333333  0.1666666667
 cg2d: Sum(rhs),rhsMax =  -5.40012479177676E-13  5.38545235322650E+00
 EXTERNAL_FIELDS_LOAD,      1521 : iP,iLd,i0,i1=    3    4    3    4 ; Wght=  0.8000000000  0.2000000000
 cg2d: Sum(rhs),rhsMax =   1.13686837721616E-13  5.38619824634369E+00
 EXTERNAL_FIELDS_LOAD,      1522 : iP,iLd,i0,i1=    3    4    3    4 ; Wght=  0.7666666667  0.2333333333
 cg2d: Sum(rhs),rhsMax =  -2.55795384873636E-13  5.38726296620066E+00
 EXTERNAL_FIELDS_LOAD,      1523 : iP,iLd,i0,i1=    3    4    3    4 ; Wght=  0.7333333333  0.2666666667
 cg2d: Sum(rhs),rhsMax =  -3.69482222595252E-13  5.38865200877450E+00
 EXTERNAL_FIELDS_LOAD,      1524 : iP,iLd,i0,i1=    3    4    3    4 ; Wght=  0.7000000000  0.3000000000
 cg2d: Sum(rhs),rhsMax =  -3.12638803734444E-13  5.39036518594308E+00
 EXTERNAL_FIELDS_LOAD,      1525 : iP,iLd,i0,i1=    3    4    3    4 ; Wght=  0.6666666667  0.3333333333
 cg2d: Sum(rhs),rhsMax =  -5.11590769747272E-13  5.39239711533884E+00
 Compute Stats, Diag. #    23 "ETAN    " (list#  1) Parms "SM      M1      ", vol(  0 )= 3.639E+14
 Compute Stats, Diag. #    30 "UVEL    " (list#  1) Parms "UUR     MR      ", vol(  0 )= 1.231E+18
 Compute Stats, Diag. #    31 "VVEL    " (list#  1) Parms "VVR     MR      ", vol(  0 )= 1.243E+18
 Compute Stats, Diag. #    32 "WVEL    " (list#  1) Parms "WM      LR      ", vol(  0 )= 1.315E+18
 Compute Stats, Diag. #    26 "THETA   " (list#  1) Parms "SMR     MR      ", vol(  0 )= 1.340E+18
 EXTERNAL_FIELDS_LOAD,      1526 : iP,iLd,i0,i1=    3    4    3    4 ; Wght=  0.6333333333  0.3666666667
 cg2d: Sum(rhs),rhsMax =  -4.26325641456060E-13  5.39473753463782E+00
 EXTERNAL_FIELDS_LOAD,      1527 : iP,iLd,i0,i1=    3    4    3    4 ; Wght=  0.6000000000  0.4000000000
 cg2d: Sum(rhs),rhsMax =  -3.69482222595252E-13  5.39737161772391E+00
 EXTERNAL_FIELDS_LOAD,      1528 : iP,iLd,i0,i1=    3    4    3    4 ; Wght=  0.5666666667  0.4333333333
 cg2d: Sum(rhs),rhsMax =  -4.54747350886464E-13  5.40028028904472E+00
 EXTERNAL_FIELDS_LOAD,      1529 : iP,iLd,i0,i1=    3    4    3    4 ; Wght=  0.5333333333  0.4666666667
 cg2d: Sum(rhs),rhsMax =   2.84217094304040E-14  5.40344059586371E+00
(PID.TID 0000.0001)      cg2d_init_res =   1.23294442155013E-01
(PID.TID 0000.0001)      cg2d_iters(min,last) =      -1      60
(PID.TID 0000.0001)      cg2d_last_res =   5.18456739307178E-07
(PID.TID 0000.0001) // =======================================================
(PID.TID 0000.0001) // Begin MONITOR dynamic field statistics
(PID.TID 0000.0001) // =======================================================
(PID.TID 0000.0001) %MON time_tsnumber                =                  1530
(PID.TID 0000.0001) %MON time_secondsf                =   1.3219200000000E+08
(PID.TID 0000.0001) %MON dynstat_eta_max              =   9.0657550195608E-01
(PID.TID 0000.0001) %MON dynstat_eta_min              =  -1.8494853127245E+00
(PID.TID 0000.0001) %MON dynstat_eta_mean             =   3.4351348129910E-16
(PID.TID 0000.0001) %MON dynstat_eta_sd               =   6.2866923503643E-01
(PID.TID 0000.0001) %MON dynstat_eta_del2             =   8.8741736487475E-04
(PID.TID 0000.0001) %MON dynstat_uvel_max             =   1.7960267557116E-01
(PID.TID 0000.0001) %MON dynstat_uvel_min             =  -2.4601715998376E-01
(PID.TID 0000.0001) %MON dynstat_uvel_mean            =  -4.8016162050909E-04
(PID.TID 0000.0001) %MON dynstat_uvel_sd              =   1.3104503043510E-02
(PID.TID 0000.0001) %MON dynstat_uvel_del2            =   5.7100883069669E-05
(PID.TID 0000.0001) %MON dynstat_vvel_max             =   1.8426593821222E-01
(PID.TID 0000.0001) %MON dynstat_vvel_min             =  -2.2410856204033E-01
(PID.TID 0000.0001) %MON dynstat_vvel_mean            =  -3.6517809298951E-04
(PID.TID 0000.0001) %MON dynstat_vvel_sd              =   1.3459952073560E-02
(PID.TID 0000.0001) %MON dynstat_vvel_del2            =   5.5036507388571E-05
(PID.TID 0000.0001) %MON dynstat_wvel_max             =   1.0998194419644E-04
(PID.TID 0000.0001) %MON dynstat_wvel_min             =  -2.1429370584208E-04
(PID.TID 0000.0001) %MON dynstat_wvel_mean            =  -1.0008503664008E-22
(PID.TID 0000.0001) %MON dynstat_wvel_sd              =   4.3296151559998E-06
(PID.TID 0000.0001) %MON dynstat_wvel_del2            =   3.5038847673715E-08
(PID.TID 0000.0001) %MON dynstat_theta_max            =   3.1554059691250E+01
(PID.TID 0000.0001) %MON dynstat_theta_min            =  -7.7387707050263E+00
(PID.TID 0000.0001) %MON dynstat_theta_mean           =   3.6152560064890E+00
(PID.TID 0000.0001) %MON dynstat_theta_sd             =   4.4334291431432E+00
(PID.TID 0000.0001) %MON dynstat_theta_del2           =   3.1974906758000E-03
(PID.TID 0000.0001) %MON dynstat_salt_max             =   4.1358638864409E+01
(PID.TID 0000.0001) %MON dynstat_salt_min             =   1.8655441112737E+01
(PID.TID 0000.0001) %MON dynstat_salt_mean            =   3.4721609473211E+01
(PID.TID 0000.0001) %MON dynstat_salt_sd              =   4.9666309359070E-01
(PID.TID 0000.0001) %MON dynstat_salt_del2            =   1.0213027555134E-03
(PID.TID 0000.0001) %MON forcing_qnet_max             =   2.5831548769935E+02
(PID.TID 0000.0001) %MON forcing_qnet_min             =  -1.7711183959068E+02
(PID.TID 0000.0001) %MON forcing_qnet_mean            =  -2.2000230223660E+00
(PID.TID 0000.0001) %MON forcing_qnet_sd              =   5.4013286575424E+01
(PID.TID 0000.0001) %MON forcing_qnet_del2            =   4.2321284728114E-01
(PID.TID 0000.0001) %MON forcing_qsw_max              =   0.0000000000000E+00
(PID.TID 0000.0001) %MON forcing_qsw_min              =   0.0000000000000E+00
(PID.TID 0000.0001) %MON forcing_qsw_mean             =   0.0000000000000E+00
(PID.TID 0000.0001) %MON forcing_qsw_sd               =   0.0000000000000E+00
(PID.TID 0000.0001) %MON forcing_qsw_del2             =   0.0000000000000E+00
(PID.TID 0000.0001) %MON forcing_empmr_max            =   7.6494447208479E-05
(PID.TID 0000.0001) %MON forcing_empmr_min            =  -1.5362614137596E-04
(PID.TID 0000.0001) %MON forcing_empmr_mean           =  -2.7256318706594E-21
(PID.TID 0000.0001) %MON forcing_empmr_sd             =   2.4051723601802E-05
(PID.TID 0000.0001) %MON forcing_empmr_del2           =   1.2276157049243E-07
(PID.TID 0000.0001) %MON forcing_fu_max               =   2.6643568027634E-01
(PID.TID 0000.0001) %MON forcing_fu_min               =  -3.2484514575530E-01
(PID.TID 0000.0001) %MON forcing_fu_mean              =  -8.6046156021580E-03
(PID.TID 0000.0001) %MON forcing_fu_sd                =   7.1623035383705E-02
(PID.TID 0000.0001) %MON forcing_fu_del2              =   2.0334094197389E-04
(PID.TID 0000.0001) %MON forcing_fv_max               =   2.0001411394083E-01
(PID.TID 0000.0001) %MON forcing_fv_min               =  -3.2442472981373E-01
(PID.TID 0000.0001) %MON forcing_fv_mean              =  -1.2827574480664E-02
(PID.TID 0000.0001) %MON forcing_fv_sd                =   7.4837413411441E-02
(PID.TID 0000.0001) %MON forcing_fv_del2              =   2.2208242510170E-04
(PID.TID 0000.0001) %MON trAdv_CFL_u_max              =   7.9971078681880E-02
(PID.TID 0000.0001) %MON trAdv_CFL_v_max              =   8.0213285313729E-02
(PID.TID 0000.0001) %MON trAdv_CFL_w_max              =   8.3140719884594E-02
(PID.TID 0000.0001) %MON advcfl_uvel_max              =   7.1271511454219E-02
(PID.TID 0000.0001) %MON advcfl_vvel_max              =   7.4096867320389E-02
(PID.TID 0000.0001) %MON advcfl_wvel_max              =   6.9867834659454E-02
(PID.TID 0000.0001) %MON advcfl_W_hf_max              =   7.7145734103147E-02
(PID.TID 0000.0001) %MON pe_b_mean                    =   5.2651274546857E-04
(PID.TID 0000.0001) %MON ke_max                       =   3.3600359749094E-02
(PID.TID 0000.0001) %MON ke_mean                      =   1.6311170426259E-04
(PID.TID 0000.0001) %MON ke_vol                       =   1.3398024453628E+18
(PID.TID 0000.0001) %MON vort_r_min                   =  -1.1985760241837E-06
(PID.TID 0000.0001) %MON vort_r_max                   =   1.2626575802381E-06
(PID.TID 0000.0001) %MON vort_a_mean                  =  -2.0549865324846E-05
(PID.TID 0000.0001) %MON vort_a_sd                    =   7.5259626001221E-05
(PID.TID 0000.0001) %MON vort_p_mean                  =  -2.4783522345032E-05
(PID.TID 0000.0001) %MON vort_p_sd                    =   1.2810572526692E-04
(PID.TID 0000.0001) %MON surfExpan_theta_mean         =   5.6016954247614E-08
(PID.TID 0000.0001) %MON surfExpan_salt_mean          =   1.5348782584991E-08
(PID.TID 0000.0001) // =======================================================
(PID.TID 0000.0001) // End MONITOR dynamic field statistics
(PID.TID 0000.0001) // =======================================================
(PID.TID 0000.0001) // =======================================================
(PID.TID 0000.0001) // Begin MONITOR ptracer field statistics
(PID.TID 0000.0001) // =======================================================
(PID.TID 0000.0001) %MON trcstat_ptracer01_max        =   1.3574423830223E+08
(PID.TID 0000.0001) %MON trcstat_ptracer01_min        =  -4.0572922901916E+06
(PID.TID 0000.0001) %MON trcstat_ptracer01_mean       =   1.2715630802914E+08
(PID.TID 0000.0001) %MON trcstat_ptracer01_sd         =   1.9984050224630E+07
(PID.TID 0000.0001) %MON trcstat_ptracer01_del2       =   3.4717318801949E+04
(PID.TID 0000.0001) // =======================================================
(PID.TID 0000.0001) // End MONITOR ptracer field statistics
(PID.TID 0000.0001) // =======================================================
 Computing Diagnostic #    79 "DRHODR  " (list#  1) Parms "SM      LR      ", Count=      10
 Computing Diagnostic #    64 "RHOAnoma" (list#  1) Parms "SMR     MR      ", Count=      10
 Computing Diagnostic #    80 "CONVADJ " (list#  1) Parms "SMR     LR      ", Count=      10
 Computing Diagnostic #   210 "GM_Kwx  " (list#  1) Parms "UM      LR      ", Count=      10
             Vector  Mate for "GM_Kwx  " :  Diagnostic #    211 "GM_Kwy  " exists
 Computing Diagnostic #   211 "GM_Kwy  " (list#  1) Parms "VM      LR      ", Count=      10
             Vector  Mate for "GM_Kwy  " :  Diagnostic #    210 "GM_Kwx  " exists
 Computing Diagnostic #   212 "GM_Kwz  " (list#  1) Parms "WM P    LR      ", Count=      10
 Computing Diagnostic #   213 "GM_PsiX " (list#  1) Parms "UU      LR      ", Count=      10
             Vector  Mate for "GM_PsiX " :  Diagnostic #    214 "GM_PsiY " exists
 Computing Diagnostic #   214 "GM_PsiY " (list#  1) Parms "VV      LR      ", Count=      10
             Vector  Mate for "GM_PsiY " :  Diagnostic #    213 "GM_PsiX " exists
 EXTERNAL_FIELDS_LOAD,      1530 : iP,iLd,i0,i1=    3    4    3    4 ; Wght=  0.5000000000  0.5000000000
 cg2d: Sum(rhs),rhsMax =  -3.41060513164848E-13  5.40682603929987E+00
 EXTERNAL_FIELDS_LOAD,      1531 : iP,iLd,i0,i1=    3    4    3    4 ; Wght=  0.4666666667  0.5333333333
 cg2d: Sum(rhs),rhsMax =  -3.97903932025656E-13  5.41040703956064E+00
 EXTERNAL_FIELDS_LOAD,      1532 : iP,iLd,i0,i1=    3    4    3    4 ; Wght=  0.4333333333  0.5666666667
 cg2d: Sum(rhs),rhsMax =  -4.83169060316868E-13  5.41415154832927E+00
 EXTERNAL_FIELDS_LOAD,      1533 : iP,iLd,i0,i1=    3    4    3    4 ; Wght=  0.4000000000  0.6000000000
 cg2d: Sum(rhs),rhsMax =  -2.27373675443232E-13  5.41802558194185E+00
 EXTERNAL_FIELDS_LOAD,      1534 : iP,iLd,i0,i1=    3    4    3    4 ; Wght=  0.3666666667  0.6333333333
 cg2d: Sum(rhs),rhsMax =  -3.69482222595252E-13  5.42199400864829E+00
 EXTERNAL_FIELDS_LOAD,      1535 : iP,iLd,i0,i1=    3    4    3    4 ; Wght=  0.3333333333  0.6666666667
 cg2d: Sum(rhs),rhsMax =  -2.27373675443232E-13  5.42602067164799E+00
 Compute Stats, Diag. #    23 "ETAN    " (list#  1) Parms "SM      M1      ", vol(  0 )= 3.639E+14
 Compute Stats, Diag. #    30 "UVEL    " (list#  1) Parms "UUR     MR      ", vol(  0 )= 1.231E+18
 Compute Stats, Diag. #    31 "VVEL    " (list#  1) Parms "VVR     MR      ", vol(  0 )= 1.243E+18
 Compute Stats, Diag. #    32 "WVEL    " (list#  1) Parms "WM      LR      ", vol(  0 )= 1.315E+18
 Compute Stats, Diag. #    26 "THETA   " (list#  1) Parms "SMR     MR      ", vol(  0 )= 1.340E+18
 EXTERNAL_FIELDS_LOAD,      1536 : iP,iLd,i0,i1=    3    4    3    4 ; Wght=  0.3000000000  0.7000000000
 cg2d: Sum(rhs),rhsMax =  -2.27373675443232E-13  5.43006980486265E+00
 EXTERNAL_FIELDS_LOAD,      1537 : iP,iLd,i0,i1=    3    4    3    4 ; Wght=  0.2666666667  0.7333333333
 cg2d: Sum(rhs),rhsMax =  -3.41060513164848E-13  5.43410600755155E+00
 EXTERNAL_FIELDS_LOAD,      1538 : iP,iLd,i0,i1=    3    4    3    4 ; Wght=  0.2333333333  0.7666666667
 cg2d: Sum(rhs),rhsMax =   2.84217094304040E-14  5.43809504154474E+00
 EXTERNAL_FIELDS_LOAD,      1539 : iP,iLd,i0,i1=    3    4    3    4 ; Wght=  0.2000000000  0.8000000000
 cg2d: Sum(rhs),rhsMax =  -6.82121026329696E-13  5.44200413528279E+00
 Computing Diagnostic #    79 "DRHODR  " (list#  1) Parms "SM      LR      ", Count=      10
 Computing Diagnostic #    64 "RHOAnoma" (list#  1) Parms "SMR     MR      ", Count=      10
 Computing Diagnostic #    80 "CONVADJ " (list#  1) Parms "SMR     LR      ", Count=      10
 Computing Diagnostic #   210 "GM_Kwx  " (list#  1) Parms "UM      LR      ", Count=      10
             Vector  Mate for "GM_Kwx  " :  Diagnostic #    211 "GM_Kwy  " exists
 Computing Diagnostic #   211 "GM_Kwy  " (list#  1) Parms "VM      LR      ", Count=      10
             Vector  Mate for "GM_Kwy  " :  Diagnostic #    210 "GM_Kwx  " exists
 Computing Diagnostic #   212 "GM_Kwz  " (list#  1) Parms "WM P    LR      ", Count=      10
 Computing Diagnostic #   213 "GM_PsiX " (list#  1) Parms "UU      LR      ", Count=      10
             Vector  Mate for "GM_PsiX " :  Diagnostic #    214 "GM_PsiY " exists
 Computing Diagnostic #   214 "GM_PsiY " (list#  1) Parms "VV      LR      ", Count=      10
             Vector  Mate for "GM_PsiY " :  Diagnostic #    213 "GM_PsiX " exists
 EXTERNAL_FIELDS_LOAD,      1540 : iP,iLd,i0,i1=    3    4    3    4 ; Wght=  0.1666666667  0.8333333333
 cg2d: Sum(rhs),rhsMax =  -3.41060513164848E-13  5.44580244114476E+00
 EXTERNAL_FIELDS_LOAD,      1541 : iP,iLd,i0,i1=    3    4    3    4 ; Wght=  0.1333333333  0.8666666667
 cg2d: Sum(rhs),rhsMax =  -3.97903932025656E-13  5.44946110462865E+00
 EXTERNAL_FIELDS_LOAD,      1542 : iP,iLd,i0,i1=    3    4    3    4 ; Wght=  0.1000000000  0.9000000000
 cg2d: Sum(rhs),rhsMax =  -8.52651282912120E-14  5.45295359731196E+00
 EXTERNAL_FIELDS_LOAD,      1543 : iP,iLd,i0,i1=    3    4    3    4 ; Wght=  0.0666666667  0.9333333333
 cg2d: Sum(rhs),rhsMax =  -3.69482222595252E-13  5.45625546441411E+00
 EXTERNAL_FIELDS_LOAD,      1544 : iP,iLd,i0,i1=    3    4    3    4 ; Wght=  0.0333333333  0.9666666667
 cg2d: Sum(rhs),rhsMax =  -3.41060513164848E-13  5.45934455524917E+00
 EXTERNAL_FIELDS_LOAD,      1545 : iP,iLd,i0,i1=    3    4    4    5 ; Wght=  1.0000000000  0.0000000000
 EXTERNAL_FIELDS_LOAD, it=      1545 : Reading new data, i0,i1=    4    5 (prev=    3    4 )
(PID.TID 0000.0001)  MDS_READ_FIELD: opening global file: trenberth_taux.bin
(PID.TID 0000.0001)  MDS_READ_FIELD: opening global file: trenberth_taux.bin
(PID.TID 0000.0001)  MDS_READ_FIELD: opening global file: trenberth_tauy.bin
(PID.TID 0000.0001)  MDS_READ_FIELD: opening global file: trenberth_tauy.bin
(PID.TID 0000.0001)  MDS_READ_FIELD: opening global file: shiQnet_cs32.bin
(PID.TID 0000.0001)  MDS_READ_FIELD: opening global file: shiQnet_cs32.bin
(PID.TID 0000.0001)  MDS_READ_FIELD: opening global file: shiEmPR_cs32.bin
(PID.TID 0000.0001)  MDS_READ_FIELD: opening global file: shiEmPR_cs32.bin
(PID.TID 0000.0001)  MDS_READ_FIELD: opening global file: lev_surfT_cs_12m.bin
(PID.TID 0000.0001)  MDS_READ_FIELD: opening global file: lev_surfT_cs_12m.bin
(PID.TID 0000.0001)  MDS_READ_FIELD: opening global file: lev_surfS_cs_12m.bin
(PID.TID 0000.0001)  MDS_READ_FIELD: opening global file: lev_surfS_cs_12m.bin
 cg2d: Sum(rhs),rhsMax =  -1.98951966012828E-13  5.46220089111067E+00
 Compute Stats, Diag. #    23 "ETAN    " (list#  1) Parms "SM      M1      ", vol(  0 )= 3.639E+14
 Compute Stats, Diag. #    30 "UVEL    " (list#  1) Parms "UUR     MR      ", vol(  0 )= 1.231E+18
 Compute Stats, Diag. #    31 "VVEL    " (list#  1) Parms "VVR     MR      ", vol(  0 )= 1.243E+18
 Compute Stats, Diag. #    32 "WVEL    " (list#  1) Parms "WM      LR      ", vol(  0 )= 1.315E+18
 Compute Stats, Diag. #    26 "THETA   " (list#  1) Parms "SMR     MR      ", vol(  0 )= 1.340E+18
 EXTERNAL_FIELDS_LOAD,      1546 : iP,iLd,i0,i1=    4    5    4    5 ; Wght=  0.9666666667  0.0333333333
 cg2d: Sum(rhs),rhsMax =  -5.40012479177676E-13  5.46467675014035E+00
 EXTERNAL_FIELDS_LOAD,      1547 : iP,iLd,i0,i1=    4    5    4    5 ; Wght=  0.9333333333  0.0666666667
 cg2d: Sum(rhs),rhsMax =  -2.55795384873636E-13  5.46692034879934E+00
 EXTERNAL_FIELDS_LOAD,      1548 : iP,iLd,i0,i1=    4    5    4    5 ; Wght=  0.9000000000  0.1000000000
 cg2d: Sum(rhs),rhsMax =  -3.69482222595252E-13  5.46888774906845E+00
 EXTERNAL_FIELDS_LOAD,      1549 : iP,iLd,i0,i1=    4    5    4    5 ; Wght=  0.8666666667  0.1333333333
 cg2d: Sum(rhs),rhsMax =  -1.42108547152020E-13  5.47054966135674E+00
 Computing Diagnostic #    79 "DRHODR  " (list#  1) Parms "SM      LR      ", Count=      10
 Computing Diagnostic #    64 "RHOAnoma" (list#  1) Parms "SMR     MR      ", Count=      10
 Computing Diagnostic #    80 "CONVADJ " (list#  1) Parms "SMR     LR      ", Count=      10
 Computing Diagnostic #   210 "GM_Kwx  " (list#  1) Parms "UM      LR      ", Count=      10
             Vector  Mate for "GM_Kwx  " :  Diagnostic #    211 "GM_Kwy  " exists
 Computing Diagnostic #   211 "GM_Kwy  " (list#  1) Parms "VM      LR      ", Count=      10
             Vector  Mate for "GM_Kwy  " :  Diagnostic #    210 "GM_Kwx  " exists
 Computing Diagnostic #   212 "GM_Kwz  " (list#  1) Parms "WM P    LR      ", Count=      10
 Computing Diagnostic #   213 "GM_PsiX " (list#  1) Parms "UU      LR      ", Count=      10
             Vector  Mate for "GM_PsiX " :  Diagnostic #    214 "GM_PsiY " exists
 Computing Diagnostic #   214 "GM_PsiY " (list#  1) Parms "VV      LR      ", Count=      10
             Vector  Mate for "GM_PsiY " :  Diagnostic #    213 "GM_PsiX " exists
 EXTERNAL_FIELDS_LOAD,      1550 : iP,iLd,i0,i1=    4    5    4    5 ; Wght=  0.8333333333  0.1666666667
 cg2d: Sum(rhs),rhsMax =  -5.68434188608080E-13  5.47187481662900E+00
 EXTERNAL_FIELDS_LOAD,      1551 : iP,iLd,i0,i1=    4    5    4    5 ; Wght=  0.8000000000  0.2000000000
 cg2d: Sum(rhs),rhsMax =  -4.54747350886464E-13  5.47283470716874E+00
 EXTERNAL_FIELDS_LOAD,      1552 : iP,iLd,i0,i1=    4    5    4    5 ; Wght=  0.7666666667  0.2333333333
 cg2d: Sum(rhs),rhsMax =  -2.84217094304040E-13  5.47340701400594E+00
 EXTERNAL_FIELDS_LOAD,      1553 : iP,iLd,i0,i1=    4    5    4    5 ; Wght=  0.7333333333  0.2666666667
 cg2d: Sum(rhs),rhsMax =  -1.13686837721616E-13  5.47358867581668E+00
 EXTERNAL_FIELDS_LOAD,      1554 : iP,iLd,i0,i1=    4    5    4    5 ; Wght=  0.7000000000  0.3000000000
 cg2d: Sum(rhs),rhsMax =  -4.54747350886464E-13  5.47342545018195E+00
 EXTERNAL_FIELDS_LOAD,      1555 : iP,iLd,i0,i1=    4    5    4    5 ; Wght=  0.6666666667  0.3333333333
 cg2d: Sum(rhs),rhsMax =  -5.68434188608080E-14  5.47303459465808E+00
 Compute Stats, Diag. #    23 "ETAN    " (list#  1) Parms "SM      M1      ", vol(  0 )= 3.639E+14
 Compute Stats, Diag. #    30 "UVEL    " (list#  1) Parms "UUR     MR      ", vol(  0 )= 1.231E+18
 Compute Stats, Diag. #    31 "VVEL    " (list#  1) Parms "VVR     MR      ", vol(  0 )= 1.243E+18
 Compute Stats, Diag. #    32 "WVEL    " (list#  1) Parms "WM      LR      ", vol(  0 )= 1.315E+18
 Compute Stats, Diag. #    26 "THETA   " (list#  1) Parms "SMR     MR      ", vol(  0 )= 1.340E+18
 EXTERNAL_FIELDS_LOAD,      1556 : iP,iLd,i0,i1=    4    5    4    5 ; Wght=  0.6333333333  0.3666666667
 cg2d: Sum(rhs),rhsMax =   0.00000000000000E+00  5.47253558234744E+00
 EXTERNAL_FIELDS_LOAD,      1557 : iP,iLd,i0,i1=    4    5    4    5 ; Wght=  0.6000000000  0.4000000000
 cg2d: Sum(rhs),rhsMax =  -3.12638803734444E-13  5.47195340180890E+00
 EXTERNAL_FIELDS_LOAD,      1558 : iP,iLd,i0,i1=    4    5    4    5 ; Wght=  0.5666666667  0.4333333333
 cg2d: Sum(rhs),rhsMax =  -2.84217094304040E-13  5.47125814513107E+00
 EXTERNAL_FIELDS_LOAD,      1559 : iP,iLd,i0,i1=    4    5    4    5 ; Wght=  0.5333333333  0.4666666667
 cg2d: Sum(rhs),rhsMax =  -4.26325641456060E-13  5.47047393457666E+00
(PID.TID 0000.0001)      cg2d_init_res =   1.37886818777807E-01
(PID.TID 0000.0001)      cg2d_iters(min,last) =      -1      62
(PID.TID 0000.0001)      cg2d_last_res =   5.66249051506128E-07
(PID.TID 0000.0001) // =======================================================
(PID.TID 0000.0001) // Begin MONITOR dynamic field statistics
(PID.TID 0000.0001) // =======================================================
(PID.TID 0000.0001) %MON time_tsnumber                =                  1560
(PID.TID 0000.0001) %MON time_secondsf                =   1.3478400000000E+08
(PID.TID 0000.0001) %MON dynstat_eta_max              =   9.2696807009942E-01
(PID.TID 0000.0001) %MON dynstat_eta_min              =  -1.8545114602172E+00
(PID.TID 0000.0001) %MON dynstat_eta_mean             =   4.8091887381874E-16
(PID.TID 0000.0001) %MON dynstat_eta_sd               =   6.3117697031635E-01
(PID.TID 0000.0001) %MON dynstat_eta_del2             =   8.8662142360085E-04
(PID.TID 0000.0001) %MON dynstat_uvel_max             =   1.8671409376274E-01
(PID.TID 0000.0001) %MON dynstat_uvel_min             =  -2.3665951555943E-01
(PID.TID 0000.0001) %MON dynstat_uvel_mean            =  -4.8070698351769E-04
(PID.TID 0000.0001) %MON dynstat_uvel_sd              =   1.3091013003019E-02
(PID.TID 0000.0001) %MON dynstat_uvel_del2            =   5.6273920353517E-05
(PID.TID 0000.0001) %MON dynstat_vvel_max             =   1.9468912520246E-01
(PID.TID 0000.0001) %MON dynstat_vvel_min             =  -2.1918524076868E-01
(PID.TID 0000.0001) %MON dynstat_vvel_mean            =  -3.6867926993839E-04
(PID.TID 0000.0001) %MON dynstat_vvel_sd              =   1.3506157384521E-02
(PID.TID 0000.0001) %MON dynstat_vvel_del2            =   5.5116412333549E-05
(PID.TID 0000.0001) %MON dynstat_wvel_max             =   1.1823087967261E-04
(PID.TID 0000.0001) %MON dynstat_wvel_min             =  -2.1276791902000E-04
(PID.TID 0000.0001) %MON dynstat_wvel_mean            =   8.4129451088761E-23
(PID.TID 0000.0001) %MON dynstat_wvel_sd              =   4.3915815351283E-06
(PID.TID 0000.0001) %MON dynstat_wvel_del2            =   3.5032073949469E-08
(PID.TID 0000.0001) %MON dynstat_theta_max            =   3.1547072585971E+01
(PID.TID 0000.0001) %MON dynstat_theta_min            =  -7.7159517522588E+00
(PID.TID 0000.0001) %MON dynstat_theta_mean           =   3.6143822516017E+00
(PID.TID 0000.0001) %MON dynstat_theta_sd             =   4.4340565582109E+00
(PID.TID 0000.0001) %MON dynstat_theta_del2           =   3.1045519581762E-03
(PID.TID 0000.0001) %MON dynstat_salt_max             =   4.1353049569338E+01
(PID.TID 0000.0001) %MON dynstat_salt_min             =   1.8654996669173E+01
(PID.TID 0000.0001) %MON dynstat_salt_mean            =   3.4721659384422E+01
(PID.TID 0000.0001) %MON dynstat_salt_sd              =   4.9655817624076E-01
(PID.TID 0000.0001) %MON dynstat_salt_del2            =   1.0130631374311E-03
(PID.TID 0000.0001) %MON forcing_qnet_max             =   2.1934515500016E+02
(PID.TID 0000.0001) %MON forcing_qnet_min             =  -1.6486040907681E+02
(PID.TID 0000.0001) %MON forcing_qnet_mean            =   8.9314966133584E+00
(PID.TID 0000.0001) %MON forcing_qnet_sd              =   6.7768604997073E+01
(PID.TID 0000.0001) %MON forcing_qnet_del2            =   3.9934967955079E-01
(PID.TID 0000.0001) %MON forcing_qsw_max              =   0.0000000000000E+00
(PID.TID 0000.0001) %MON forcing_qsw_min              =   0.0000000000000E+00
(PID.TID 0000.0001) %MON forcing_qsw_mean             =   0.0000000000000E+00
(PID.TID 0000.0001) %MON forcing_qsw_sd               =   0.0000000000000E+00
(PID.TID 0000.0001) %MON forcing_qsw_del2             =   0.0000000000000E+00
(PID.TID 0000.0001) %MON forcing_empmr_max            =   7.6494447208479E-05
(PID.TID 0000.0001) %MON forcing_empmr_min            =  -1.5362614137596E-04
(PID.TID 0000.0001) %MON forcing_empmr_mean           =  -2.7256318706594E-21
(PID.TID 0000.0001) %MON forcing_empmr_sd             =   2.4051723601802E-05
(PID.TID 0000.0001) %MON forcing_empmr_del2           =   1.2276157049243E-07
(PID.TID 0000.0001) %MON forcing_fu_max               =   2.6376707634895E-01
(PID.TID 0000.0001) %MON forcing_fu_min               =  -3.5181701991123E-01
(PID.TID 0000.0001) %MON forcing_fu_mean              =  -9.1725361907261E-03
(PID.TID 0000.0001) %MON forcing_fu_sd                =   7.3147688306408E-02
(PID.TID 0000.0001) %MON forcing_fu_del2              =   2.0151832318310E-04
(PID.TID 0000.0001) %MON forcing_fv_max               =   2.3362458312789E-01
(PID.TID 0000.0001) %MON forcing_fv_min               =  -3.0178655558957E-01
(PID.TID 0000.0001) %MON forcing_fv_mean              =  -1.1987018747997E-02
(PID.TID 0000.0001) %MON forcing_fv_sd                =   7.0322777084510E-02
(PID.TID 0000.0001) %MON forcing_fv_del2              =   2.0736000433565E-04
(PID.TID 0000.0001) %MON trAdv_CFL_u_max              =   7.6844177944917E-02
(PID.TID 0000.0001) %MON trAdv_CFL_v_max              =   1.1678486589814E-01
(PID.TID 0000.0001) %MON trAdv_CFL_w_max              =   8.3590623397907E-02
(PID.TID 0000.0001) %MON advcfl_uvel_max              =   7.5007810678909E-02
(PID.TID 0000.0001) %MON advcfl_vvel_max              =   8.4862246853654E-02
(PID.TID 0000.0001) %MON advcfl_wvel_max              =   6.9370370578596E-02
(PID.TID 0000.0001) %MON advcfl_W_hf_max              =   7.6596450847199E-02
(PID.TID 0000.0001) %MON pe_b_mean                    =   5.3072159786030E-04
(PID.TID 0000.0001) %MON ke_max                       =   3.1655549200807E-02
(PID.TID 0000.0001) %MON ke_mean                      =   1.6352866812232E-04
(PID.TID 0000.0001) %MON ke_vol                       =   1.3398024453628E+18
(PID.TID 0000.0001) %MON vort_r_min                   =  -1.1356261045377E-06
(PID.TID 0000.0001) %MON vort_r_max                   =   1.3546512025721E-06
(PID.TID 0000.0001) %MON vort_a_mean                  =  -2.0549865324846E-05
(PID.TID 0000.0001) %MON vort_a_sd                    =   7.5259629125899E-05
(PID.TID 0000.0001) %MON vort_p_mean                  =  -2.4783522345032E-05
(PID.TID 0000.0001) %MON vort_p_sd                    =   1.2810577024422E-04
(PID.TID 0000.0001) %MON surfExpan_theta_mean         =   6.2950105921143E-08
(PID.TID 0000.0001) %MON surfExpan_salt_mean          =   1.4712722194065E-08
(PID.TID 0000.0001) // =======================================================
(PID.TID 0000.0001) // End MONITOR dynamic field statistics
(PID.TID 0000.0001) // =======================================================
(PID.TID 0000.0001) // =======================================================
(PID.TID 0000.0001) // Begin MONITOR ptracer field statistics
(PID.TID 0000.0001) // =======================================================
(PID.TID 0000.0001) %MON trcstat_ptracer01_max        =   1.3871127325365E+08
(PID.TID 0000.0001) %MON trcstat_ptracer01_min        =  -5.3166208391126E+06
(PID.TID 0000.0001) %MON trcstat_ptracer01_mean       =   1.2962070507881E+08
(PID.TID 0000.0001) %MON trcstat_ptracer01_sd         =   2.0423520384458E+07
(PID.TID 0000.0001) %MON trcstat_ptracer01_del2       =   3.5399106750008E+04
(PID.TID 0000.0001) // =======================================================
(PID.TID 0000.0001) // End MONITOR ptracer field statistics
(PID.TID 0000.0001) // =======================================================
 Computing Diagnostic #    79 "DRHODR  " (list#  1) Parms "SM      LR      ", Count=      10
 Computing Diagnostic #    64 "RHOAnoma" (list#  1) Parms "SMR     MR      ", Count=      10
 Computing Diagnostic #    80 "CONVADJ " (list#  1) Parms "SMR     LR      ", Count=      10
 Computing Diagnostic #   210 "GM_Kwx  " (list#  1) Parms "UM      LR      ", Count=      10
             Vector  Mate for "GM_Kwx  " :  Diagnostic #    211 "GM_Kwy  " exists
 Computing Diagnostic #   211 "GM_Kwy  " (list#  1) Parms "VM      LR      ", Count=      10
             Vector  Mate for "GM_Kwy  " :  Diagnostic #    210 "GM_Kwx  " exists
 Computing Diagnostic #   212 "GM_Kwz  " (list#  1) Parms "WM P    LR      ", Count=      10
 Computing Diagnostic #   213 "GM_PsiX " (list#  1) Parms "UU      LR      ", Count=      10
             Vector  Mate for "GM_PsiX " :  Diagnostic #    214 "GM_PsiY " exists
 Computing Diagnostic #   214 "GM_PsiY " (list#  1) Parms "VV      LR      ", Count=      10
             Vector  Mate for "GM_PsiY " :  Diagnostic #    213 "GM_PsiX " exists
 EXTERNAL_FIELDS_LOAD,      1560 : iP,iLd,i0,i1=    4    5    4    5 ; Wght=  0.5000000000  0.5000000000
 cg2d: Sum(rhs),rhsMax =  -5.68434188608080E-14  5.46963347305357E+00
 EXTERNAL_FIELDS_LOAD,      1561 : iP,iLd,i0,i1=    4    5    4    5 ; Wght=  0.4666666667  0.5333333333
 cg2d: Sum(rhs),rhsMax =  -2.27373675443232E-13  5.46876323826308E+00
 EXTERNAL_FIELDS_LOAD,      1562 : iP,iLd,i0,i1=    4    5    4    5 ; Wght=  0.4333333333  0.5666666667
 cg2d: Sum(rhs),rhsMax =  -4.54747350886464E-13  5.46788602996631E+00
 EXTERNAL_FIELDS_LOAD,      1563 : iP,iLd,i0,i1=    4    5    4    5 ; Wght=  0.4000000000  0.6000000000
 cg2d: Sum(rhs),rhsMax =  -3.41060513164848E-13  5.46701884318298E+00
 EXTERNAL_FIELDS_LOAD,      1564 : iP,iLd,i0,i1=    4    5    4    5 ; Wght=  0.3666666667  0.6333333333
 cg2d: Sum(rhs),rhsMax =  -1.98951966012828E-13  5.46618522525294E+00
 EXTERNAL_FIELDS_LOAD,      1565 : iP,iLd,i0,i1=    4    5    4    5 ; Wght=  0.3333333333  0.6666666667
 cg2d: Sum(rhs),rhsMax =  -4.83169060316868E-13  5.46540098502228E+00
 Compute Stats, Diag. #    23 "ETAN    " (list#  1) Parms "SM      M1      ", vol(  0 )= 3.639E+14
 Compute Stats, Diag. #    30 "UVEL    " (list#  1) Parms "UUR     MR      ", vol(  0 )= 1.231E+18
 Compute Stats, Diag. #    31 "VVEL    " (list#  1) Parms "VVR     MR      ", vol(  0 )= 1.243E+18
 Compute Stats, Diag. #    32 "WVEL    " (list#  1) Parms "WM      LR      ", vol(  0 )= 1.315E+18
 Compute Stats, Diag. #    26 "THETA   " (list#  1) Parms "SMR     MR      ", vol(  0 )= 1.340E+18
 EXTERNAL_FIELDS_LOAD,      1566 : iP,iLd,i0,i1=    4    5    4    5 ; Wght=  0.3000000000  0.7000000000
 cg2d: Sum(rhs),rhsMax =  -2.27373675443232E-13  5.46468150058368E+00
 EXTERNAL_FIELDS_LOAD,      1567 : iP,iLd,i0,i1=    4    5    4    5 ; Wght=  0.2666666667  0.7333333333
 cg2d: Sum(rhs),rhsMax =  -2.27373675443232E-13  5.46403927964137E+00
 EXTERNAL_FIELDS_LOAD,      1568 : iP,iLd,i0,i1=    4    5    4    5 ; Wght=  0.2333333333  0.7666666667
 cg2d: Sum(rhs),rhsMax =  -3.97903932025656E-13  5.46348612699062E+00
 EXTERNAL_FIELDS_LOAD,      1569 : iP,iLd,i0,i1=    4    5    4    5 ; Wght=  0.2000000000  0.8000000000
 cg2d: Sum(rhs),rhsMax =  -3.12638803734444E-13  5.46302993565842E+00
 Computing Diagnostic #    79 "DRHODR  " (list#  1) Parms "SM      LR      ", Count=      10
 Computing Diagnostic #    64 "RHOAnoma" (list#  1) Parms "SMR     MR      ", Count=      10
 Computing Diagnostic #    80 "CONVADJ " (list#  1) Parms "SMR     LR      ", Count=      10
 Computing Diagnostic #   210 "GM_Kwx  " (list#  1) Parms "UM      LR      ", Count=      10
             Vector  Mate for "GM_Kwx  " :  Diagnostic #    211 "GM_Kwy  " exists
 Computing Diagnostic #   211 "GM_Kwy  " (list#  1) Parms "VM      LR      ", Count=      10
             Vector  Mate for "GM_Kwy  " :  Diagnostic #    210 "GM_Kwx  " exists
 Computing Diagnostic #   212 "GM_Kwz  " (list#  1) Parms "WM P    LR      ", Count=      10
 Computing Diagnostic #   213 "GM_PsiX " (list#  1) Parms "UU      LR      ", Count=      10
             Vector  Mate for "GM_PsiX " :  Diagnostic #    214 "GM_PsiY " exists
 Computing Diagnostic #   214 "GM_PsiY " (list#  1) Parms "VV      LR      ", Count=      10
             Vector  Mate for "GM_PsiY " :  Diagnostic #    213 "GM_PsiX " exists
 EXTERNAL_FIELDS_LOAD,      1570 : iP,iLd,i0,i1=    4    5    4    5 ; Wght=  0.1666666667  0.8333333333
 cg2d: Sum(rhs),rhsMax =  -2.27373675443232E-13  5.46267773729344E+00
 EXTERNAL_FIELDS_LOAD,      1571 : iP,iLd,i0,i1=    4    5    4    5 ; Wght=  0.1333333333  0.8666666667
 cg2d: Sum(rhs),rhsMax =  -2.27373675443232E-13  5.46243212748136E+00
 EXTERNAL_FIELDS_LOAD,      1572 : iP,iLd,i0,i1=    4    5    4    5 ; Wght=  0.1000000000  0.9000000000
 cg2d: Sum(rhs),rhsMax =  -2.55795384873636E-13  5.46229590919636E+00
 EXTERNAL_FIELDS_LOAD,      1573 : iP,iLd,i0,i1=    4    5    4    5 ; Wght=  0.0666666667  0.9333333333
 cg2d: Sum(rhs),rhsMax =  -2.27373675443232E-13  5.46226706817654E+00
 EXTERNAL_FIELDS_LOAD,      1574 : iP,iLd,i0,i1=    4    5    4    5 ; Wght=  0.0333333333  0.9666666667
 cg2d: Sum(rhs),rhsMax =  -3.41060513164848E-13  5.46234392269988E+00
 EXTERNAL_FIELDS_LOAD,      1575 : iP,iLd,i0,i1=    4    5    5    6 ; Wght=  1.0000000000  0.0000000000
 EXTERNAL_FIELDS_LOAD, it=      1575 : Reading new data, i0,i1=    5    6 (prev=    4    5 )
(PID.TID 0000.0001)  MDS_READ_FIELD: opening global file: trenberth_taux.bin
(PID.TID 0000.0001)  MDS_READ_FIELD: opening global file: trenberth_taux.bin
(PID.TID 0000.0001)  MDS_READ_FIELD: opening global file: trenberth_tauy.bin
(PID.TID 0000.0001)  MDS_READ_FIELD: opening global file: trenberth_tauy.bin
(PID.TID 0000.0001)  MDS_READ_FIELD: opening global file: shiQnet_cs32.bin
(PID.TID 0000.0001)  MDS_READ_FIELD: opening global file: shiQnet_cs32.bin
(PID.TID 0000.0001)  MDS_READ_FIELD: opening global file: shiEmPR_cs32.bin
(PID.TID 0000.0001)  MDS_READ_FIELD: opening global file: shiEmPR_cs32.bin
(PID.TID 0000.0001)  MDS_READ_FIELD: opening global file: lev_surfT_cs_12m.bin
(PID.TID 0000.0001)  MDS_READ_FIELD: opening global file: lev_surfT_cs_12m.bin
(PID.TID 0000.0001)  MDS_READ_FIELD: opening global file: lev_surfS_cs_12m.bin
(PID.TID 0000.0001)  MDS_READ_FIELD: opening global file: lev_surfS_cs_12m.bin
 cg2d: Sum(rhs),rhsMax =  -2.55795384873636E-13  5.46252193126867E+00
 Compute Stats, Diag. #    23 "ETAN    " (list#  1) Parms "SM      M1      ", vol(  0 )= 3.639E+14
 Compute Stats, Diag. #    30 "UVEL    " (list#  1) Parms "UUR     MR      ", vol(  0 )= 1.231E+18
 Compute Stats, Diag. #    31 "VVEL    " (list#  1) Parms "VVR     MR      ", vol(  0 )= 1.243E+18
 Compute Stats, Diag. #    32 "WVEL    " (list#  1) Parms "WM      LR      ", vol(  0 )= 1.315E+18
 Compute Stats, Diag. #    26 "THETA   " (list#  1) Parms "SMR     MR      ", vol(  0 )= 1.340E+18
 EXTERNAL_FIELDS_LOAD,      1576 : iP,iLd,i0,i1=    5    6    5    6 ; Wght=  0.9666666667  0.0333333333
 cg2d: Sum(rhs),rhsMax =  -3.12638803734444E-13  5.46293699600260E+00
 EXTERNAL_FIELDS_LOAD,      1577 : iP,iLd,i0,i1=    5    6    5    6 ; Wght=  0.9333333333  0.0666666667
 cg2d: Sum(rhs),rhsMax =  -1.42108547152020E-13  5.46340946139288E+00
 EXTERNAL_FIELDS_LOAD,      1578 : iP,iLd,i0,i1=    5    6    5    6 ; Wght=  0.9000000000  0.1000000000
 cg2d: Sum(rhs),rhsMax =  -2.84217094304040E-13  5.46395288801519E+00
 EXTERNAL_FIELDS_LOAD,      1579 : iP,iLd,i0,i1=    5    6    5    6 ; Wght=  0.8666666667  0.1333333333
 cg2d: Sum(rhs),rhsMax =   0.00000000000000E+00  5.46457410882063E+00
 Computing Diagnostic #    79 "DRHODR  " (list#  1) Parms "SM      LR      ", Count=      10
 Computing Diagnostic #    64 "RHOAnoma" (list#  1) Parms "SMR     MR      ", Count=      10
 Computing Diagnostic #    80 "CONVADJ " (list#  1) Parms "SMR     LR      ", Count=      10
 Computing Diagnostic #   210 "GM_Kwx  " (list#  1) Parms "UM      LR      ", Count=      10
             Vector  Mate for "GM_Kwx  " :  Diagnostic #    211 "GM_Kwy  " exists
 Computing Diagnostic #   211 "GM_Kwy  " (list#  1) Parms "VM      LR      ", Count=      10
             Vector  Mate for "GM_Kwy  " :  Diagnostic #    210 "GM_Kwx  " exists
 Computing Diagnostic #   212 "GM_Kwz  " (list#  1) Parms "WM P    LR      ", Count=      10
 Computing Diagnostic #   213 "GM_PsiX " (list#  1) Parms "UU      LR      ", Count=      10
             Vector  Mate for "GM_PsiX " :  Diagnostic #    214 "GM_PsiY " exists
 Computing Diagnostic #   214 "GM_PsiY " (list#  1) Parms "VV      LR      ", Count=      10
             Vector  Mate for "GM_PsiY " :  Diagnostic #    213 "GM_PsiX " exists
 EXTERNAL_FIELDS_LOAD,      1580 : iP,iLd,i0,i1=    5    6    5    6 ; Wght=  0.8333333333  0.1666666667
 cg2d: Sum(rhs),rhsMax =  -6.25277607468888E-13  5.46527823760796E+00
 EXTERNAL_FIELDS_LOAD,      1581 : iP,iLd,i0,i1=    5    6    5    6 ; Wght=  0.8000000000  0.2000000000
 cg2d: Sum(rhs),rhsMax =  -3.12638803734444E-13  5.46606423105464E+00
 EXTERNAL_FIELDS_LOAD,      1582 : iP,iLd,i0,i1=    5    6    5    6 ; Wght=  0.7666666667  0.2333333333
 cg2d: Sum(rhs),rhsMax =  -2.84217094304040E-14  5.46693459542851E+00
 EXTERNAL_FIELDS_LOAD,      1583 : iP,iLd,i0,i1=    5    6    5    6 ; Wght=  0.7333333333  0.2666666667
 cg2d: Sum(rhs),rhsMax =  -4.26325641456060E-13  5.46788722523646E+00
 EXTERNAL_FIELDS_LOAD,      1584 : iP,iLd,i0,i1=    5    6    5    6 ; Wght=  0.7000000000  0.3000000000
 cg2d: Sum(rhs),rhsMax =  -2.55795384873636E-13  5.46892214920969E+00
 EXTERNAL_FIELDS_LOAD,      1585 : iP,iLd,i0,i1=    5    6    5    6 ; Wght=  0.6666666667  0.3333333333
 cg2d: Sum(rhs),rhsMax =  -5.68434188608080E-14  5.47002905391436E+00
 Compute Stats, Diag. #    23 "ETAN    " (list#  1) Parms "SM      M1      ", vol(  0 )= 3.639E+14
 Compute Stats, Diag. #    30 "UVEL    " (list#  1) Parms "UUR     MR      ", vol(  0 )= 1.231E+18
 Compute Stats, Diag. #    31 "VVEL    " (list#  1) Parms "VVR     MR      ", vol(  0 )= 1.243E+18
 Compute Stats, Diag. #    32 "WVEL    " (list#  1) Parms "WM      LR      ", vol(  0 )= 1.315E+18
 Compute Stats, Diag. #    26 "THETA   " (list#  1) Parms "SMR     MR      ", vol(  0 )= 1.340E+18
 EXTERNAL_FIELDS_LOAD,      1586 : iP,iLd,i0,i1=    5    6    5    6 ; Wght=  0.6333333333  0.3666666667
 cg2d: Sum(rhs),rhsMax =  -1.70530256582424E-13  5.47119731111172E+00
 EXTERNAL_FIELDS_LOAD,      1587 : iP,iLd,i0,i1=    5    6    5    6 ; Wght=  0.6000000000  0.4000000000
 cg2d: Sum(rhs),rhsMax =   5.68434188608080E-14  5.47240893458917E+00
 EXTERNAL_FIELDS_LOAD,      1588 : iP,iLd,i0,i1=    5    6    5    6 ; Wght=  0.5666666667  0.4333333333
 cg2d: Sum(rhs),rhsMax =  -4.54747350886464E-13  5.47364700288000E+00
 EXTERNAL_FIELDS_LOAD,      1589 : iP,iLd,i0,i1=    5    6    5    6 ; Wght=  0.5333333333  0.4666666667
 cg2d: Sum(rhs),rhsMax =  -4.83169060316868E-13  5.47489419737656E+00
(PID.TID 0000.0001)      cg2d_init_res =   1.42685775533741E-01
(PID.TID 0000.0001)      cg2d_iters(min,last) =      -1      62
(PID.TID 0000.0001)      cg2d_last_res =   5.10974383896350E-07
(PID.TID 0000.0001) // =======================================================
(PID.TID 0000.0001) // Begin MONITOR dynamic field statistics
(PID.TID 0000.0001) // =======================================================
(PID.TID 0000.0001) %MON time_tsnumber                =                  1590
(PID.TID 0000.0001) %MON time_secondsf                =   1.3737600000000E+08
(PID.TID 0000.0001) %MON dynstat_eta_max              =   9.6072526344590E-01
(PID.TID 0000.0001) %MON dynstat_eta_min              =  -1.8597167372934E+00
(PID.TID 0000.0001) %MON dynstat_eta_mean             =   2.7481078503928E-16
(PID.TID 0000.0001) %MON dynstat_eta_sd               =   6.3101238102125E-01
(PID.TID 0000.0001) %MON dynstat_eta_del2             =   8.7870458640953E-04
(PID.TID 0000.0001) %MON dynstat_uvel_max             =   1.8877289237069E-01
(PID.TID 0000.0001) %MON dynstat_uvel_min             =  -2.3140370399094E-01
(PID.TID 0000.0001) %MON dynstat_uvel_mean            =  -4.8857086449883E-04
(PID.TID 0000.0001) %MON dynstat_uvel_sd              =   1.3180568887947E-02
(PID.TID 0000.0001) %MON dynstat_uvel_del2            =   5.6049501511333E-05
(PID.TID 0000.0001) %MON dynstat_vvel_max             =   1.8050076414454E-01
(PID.TID 0000.0001) %MON dynstat_vvel_min             =  -2.1587722725536E-01
(PID.TID 0000.0001) %MON dynstat_vvel_mean            =  -3.7511324259842E-04
(PID.TID 0000.0001) %MON dynstat_vvel_sd              =   1.3407403102610E-02
(PID.TID 0000.0001) %MON dynstat_vvel_del2            =   5.4434444473633E-05
(PID.TID 0000.0001) %MON dynstat_wvel_max             =   1.1213045539197E-04
(PID.TID 0000.0001) %MON dynstat_wvel_min             =  -2.1874534910061E-04
(PID.TID 0000.0001) %MON dynstat_wvel_mean            =  -1.0153554441747E-23
(PID.TID 0000.0001) %MON dynstat_wvel_sd              =   4.4146791303559E-06
(PID.TID 0000.0001) %MON dynstat_wvel_del2            =   3.4173740982191E-08
(PID.TID 0000.0001) %MON dynstat_theta_max            =   3.1758922658538E+01
(PID.TID 0000.0001) %MON dynstat_theta_min            =  -7.6849981712574E+00
(PID.TID 0000.0001) %MON dynstat_theta_mean           =   3.6123935759275E+00
(PID.TID 0000.0001) %MON dynstat_theta_sd             =   4.4269024201195E+00
(PID.TID 0000.0001) %MON dynstat_theta_del2           =   3.0561778832770E-03
(PID.TID 0000.0001) %MON dynstat_salt_max             =   4.1344005086511E+01
(PID.TID 0000.0001) %MON dynstat_salt_min             =   1.8670970470527E+01
(PID.TID 0000.0001) %MON dynstat_salt_mean            =   3.4721705816107E+01
(PID.TID 0000.0001) %MON dynstat_salt_sd              =   4.9643511267658E-01
(PID.TID 0000.0001) %MON dynstat_salt_del2            =   1.0036153585368E-03
(PID.TID 0000.0001) %MON forcing_qnet_max             =   2.1306198854283E+02
(PID.TID 0000.0001) %MON forcing_qnet_min             =  -1.8612587055834E+02
(PID.TID 0000.0001) %MON forcing_qnet_mean            =   1.7779209533326E+01
(PID.TID 0000.0001) %MON forcing_qnet_sd              =   8.6039549543257E+01
(PID.TID 0000.0001) %MON forcing_qnet_del2            =   3.9274976073871E-01
(PID.TID 0000.0001) %MON forcing_qsw_max              =   0.0000000000000E+00
(PID.TID 0000.0001) %MON forcing_qsw_min              =   0.0000000000000E+00
(PID.TID 0000.0001) %MON forcing_qsw_mean             =   0.0000000000000E+00
(PID.TID 0000.0001) %MON forcing_qsw_sd               =   0.0000000000000E+00
(PID.TID 0000.0001) %MON forcing_qsw_del2             =   0.0000000000000E+00
(PID.TID 0000.0001) %MON forcing_empmr_max            =   7.6494447208479E-05
(PID.TID 0000.0001) %MON forcing_empmr_min            =  -1.5362614137596E-04
(PID.TID 0000.0001) %MON forcing_empmr_mean           =  -2.7256318706594E-21
(PID.TID 0000.0001) %MON forcing_empmr_sd             =   2.4051723601802E-05
(PID.TID 0000.0001) %MON forcing_empmr_del2           =   1.2276157049243E-07
(PID.TID 0000.0001) %MON forcing_fu_max               =   2.7087502733075E-01
(PID.TID 0000.0001) %MON forcing_fu_min               =  -3.1157384005291E-01
(PID.TID 0000.0001) %MON forcing_fu_mean              =  -5.9802452710338E-03
(PID.TID 0000.0001) %MON forcing_fu_sd                =   7.3367932669566E-02
(PID.TID 0000.0001) %MON forcing_fu_del2              =   2.0043372226090E-04
(PID.TID 0000.0001) %MON forcing_fv_max               =   2.7394949129489E-01
(PID.TID 0000.0001) %MON forcing_fv_min               =  -2.9997476765686E-01
(PID.TID 0000.0001) %MON forcing_fv_mean              =  -8.5312903702452E-03
(PID.TID 0000.0001) %MON forcing_fv_sd                =   6.8612871399238E-02
(PID.TID 0000.0001) %MON forcing_fv_del2              =   2.1212490881227E-04
(PID.TID 0000.0001) %MON trAdv_CFL_u_max              =   6.9964426120561E-02
(PID.TID 0000.0001) %MON trAdv_CFL_v_max              =   1.6102793442488E-01
(PID.TID 0000.0001) %MON trAdv_CFL_w_max              =   1.3813176535425E-01
(PID.TID 0000.0001) %MON advcfl_uvel_max              =   7.5180808866542E-02
(PID.TID 0000.0001) %MON advcfl_vvel_max              =   7.5577713739248E-02
(PID.TID 0000.0001) %MON advcfl_wvel_max              =   7.1319238348275E-02
(PID.TID 0000.0001) %MON advcfl_W_hf_max              =   7.8748325676220E-02
(PID.TID 0000.0001) %MON pe_b_mean                    =   5.3044484598655E-04
(PID.TID 0000.0001) %MON ke_max                       =   3.0832135599554E-02
(PID.TID 0000.0001) %MON ke_mean                      =   1.6338184598657E-04
(PID.TID 0000.0001) %MON ke_vol                       =   1.3398024453628E+18
(PID.TID 0000.0001) %MON vort_r_min                   =  -1.0350107052103E-06
(PID.TID 0000.0001) %MON vort_r_max                   =   1.3623047048671E-06
(PID.TID 0000.0001) %MON vort_a_mean                  =  -2.0549865324846E-05
(PID.TID 0000.0001) %MON vort_a_sd                    =   7.5259628861592E-05
(PID.TID 0000.0001) %MON vort_p_mean                  =  -2.4783522345032E-05
(PID.TID 0000.0001) %MON vort_p_sd                    =   1.2810580859948E-04
(PID.TID 0000.0001) %MON surfExpan_theta_mean         =   5.3535619161390E-08
(PID.TID 0000.0001) %MON surfExpan_salt_mean          =   1.3961958364542E-08
(PID.TID 0000.0001) // =======================================================
(PID.TID 0000.0001) // End MONITOR dynamic field statistics
(PID.TID 0000.0001) // =======================================================
(PID.TID 0000.0001) // =======================================================
(PID.TID 0000.0001) // Begin MONITOR ptracer field statistics
(PID.TID 0000.0001) // =======================================================
(PID.TID 0000.0001) %MON trcstat_ptracer01_max        =   1.4005372542710E+08
(PID.TID 0000.0001) %MON trcstat_ptracer01_min        =  -7.2480175112807E+06
(PID.TID 0000.0001) %MON trcstat_ptracer01_mean       =   1.3209072369107E+08
(PID.TID 0000.0001) %MON trcstat_ptracer01_sd         =   2.0833680575084E+07
(PID.TID 0000.0001) %MON trcstat_ptracer01_del2       =   3.6926329472108E+04
(PID.TID 0000.0001) // =======================================================
(PID.TID 0000.0001) // End MONITOR ptracer field statistics
(PID.TID 0000.0001) // =======================================================
 Computing Diagnostic #    79 "DRHODR  " (list#  1) Parms "SM      LR      ", Count=      10
 Computing Diagnostic #    64 "RHOAnoma" (list#  1) Parms "SMR     MR      ", Count=      10
 Computing Diagnostic #    80 "CONVADJ " (list#  1) Parms "SMR     LR      ", Count=      10
 Computing Diagnostic #   210 "GM_Kwx  " (list#  1) Parms "UM      LR      ", Count=      10
             Vector  Mate for "GM_Kwx  " :  Diagnostic #    211 "GM_Kwy  " exists
 Computing Diagnostic #   211 "GM_Kwy  " (list#  1) Parms "VM      LR      ", Count=      10
             Vector  Mate for "GM_Kwy  " :  Diagnostic #    210 "GM_Kwx  " exists
 Computing Diagnostic #   212 "GM_Kwz  " (list#  1) Parms "WM P    LR      ", Count=      10
 Computing Diagnostic #   213 "GM_PsiX " (list#  1) Parms "UU      LR      ", Count=      10
             Vector  Mate for "GM_PsiX " :  Diagnostic #    214 "GM_PsiY " exists
 Computing Diagnostic #   214 "GM_PsiY " (list#  1) Parms "VV      LR      ", Count=      10
             Vector  Mate for "GM_PsiY " :  Diagnostic #    213 "GM_PsiX " exists
 EXTERNAL_FIELDS_LOAD,      1590 : iP,iLd,i0,i1=    5    6    5    6 ; Wght=  0.5000000000  0.5000000000
 cg2d: Sum(rhs),rhsMax =  -2.55795384873636E-13  5.47614935626286E+00
 EXTERNAL_FIELDS_LOAD,      1591 : iP,iLd,i0,i1=    5    6    5    6 ; Wght=  0.4666666667  0.5333333333
 cg2d: Sum(rhs),rhsMax =  -3.41060513164848E-13  5.47741227108088E+00
 EXTERNAL_FIELDS_LOAD,      1592 : iP,iLd,i0,i1=    5    6    5    6 ; Wght=  0.4333333333  0.5666666667
 cg2d: Sum(rhs),rhsMax =  -4.83169060316868E-13  5.47870180362639E+00
 EXTERNAL_FIELDS_LOAD,      1593 : iP,iLd,i0,i1=    5    6    5    6 ; Wght=  0.4000000000  0.6000000000
 cg2d: Sum(rhs),rhsMax =  -3.12638803734444E-13  5.48002582295046E+00
 EXTERNAL_FIELDS_LOAD,      1594 : iP,iLd,i0,i1=    5    6    5    6 ; Wght=  0.3666666667  0.6333333333
 cg2d: Sum(rhs),rhsMax =  -3.97903932025656E-13  5.48139247264400E+00
 EXTERNAL_FIELDS_LOAD,      1595 : iP,iLd,i0,i1=    5    6    5    6 ; Wght=  0.3333333333  0.6666666667
 cg2d: Sum(rhs),rhsMax =  -4.54747350886464E-13  5.48277885380981E+00
 Compute Stats, Diag. #    23 "ETAN    " (list#  1) Parms "SM      M1      ", vol(  0 )= 3.639E+14
 Compute Stats, Diag. #    30 "UVEL    " (list#  1) Parms "UUR     MR      ", vol(  0 )= 1.231E+18
 Compute Stats, Diag. #    31 "VVEL    " (list#  1) Parms "VVR     MR      ", vol(  0 )= 1.243E+18
 Compute Stats, Diag. #    32 "WVEL    " (list#  1) Parms "WM      LR      ", vol(  0 )= 1.315E+18
 Compute Stats, Diag. #    26 "THETA   " (list#  1) Parms "SMR     MR      ", vol(  0 )= 1.340E+18
 EXTERNAL_FIELDS_LOAD,      1596 : iP,iLd,i0,i1=    5    6    5    6 ; Wght=  0.3000000000  0.7000000000
 cg2d: Sum(rhs),rhsMax =  -4.54747350886464E-13  5.48417872473843E+00
 EXTERNAL_FIELDS_LOAD,      1597 : iP,iLd,i0,i1=    5    6    5    6 ; Wght=  0.2666666667  0.7333333333
 cg2d: Sum(rhs),rhsMax =  -5.68434188608080E-14  5.48556864190267E+00
 EXTERNAL_FIELDS_LOAD,      1598 : iP,iLd,i0,i1=    5    6    5    6 ; Wght=  0.2333333333  0.7666666667
 cg2d: Sum(rhs),rhsMax =  -2.84217094304040E-13  5.48695718151743E+00
 EXTERNAL_FIELDS_LOAD,      1599 : iP,iLd,i0,i1=    5    6    5    6 ; Wght=  0.2000000000  0.8000000000
 cg2d: Sum(rhs),rhsMax =  -2.27373675443232E-13  5.48832396806476E+00
 Computing Diagnostic #    79 "DRHODR  " (list#  1) Parms "SM      LR      ", Count=      10
 Computing Diagnostic #    64 "RHOAnoma" (list#  1) Parms "SMR     MR      ", Count=      10
 Computing Diagnostic #    80 "CONVADJ " (list#  1) Parms "SMR     LR      ", Count=      10
 Computing Diagnostic #   210 "GM_Kwx  " (list#  1) Parms "UM      LR      ", Count=      10
             Vector  Mate for "GM_Kwx  " :  Diagnostic #    211 "GM_Kwy  " exists
 Computing Diagnostic #   211 "GM_Kwy  " (list#  1) Parms "VM      LR      ", Count=      10
             Vector  Mate for "GM_Kwy  " :  Diagnostic #    210 "GM_Kwx  " exists
 Computing Diagnostic #   212 "GM_Kwz  " (list#  1) Parms "WM P    LR      ", Count=      10
 Computing Diagnostic #   213 "GM_PsiX " (list#  1) Parms "UU      LR      ", Count=      10
             Vector  Mate for "GM_PsiX " :  Diagnostic #    214 "GM_PsiY " exists
 Computing Diagnostic #   214 "GM_PsiY " (list#  1) Parms "VV      LR      ", Count=      10
             Vector  Mate for "GM_PsiY " :  Diagnostic #    213 "GM_PsiX " exists
 EXTERNAL_FIELDS_LOAD,      1600 : iP,iLd,i0,i1=    5    6    5    6 ; Wght=  0.1666666667  0.8333333333
 cg2d: Sum(rhs),rhsMax =  -2.84217094304040E-13  5.48968770477521E+00
 EXTERNAL_FIELDS_LOAD,      1601 : iP,iLd,i0,i1=    5    6    5    6 ; Wght=  0.1333333333  0.8666666667
 cg2d: Sum(rhs),rhsMax =  -4.26325641456060E-13  5.49102114020128E+00
 EXTERNAL_FIELDS_LOAD,      1602 : iP,iLd,i0,i1=    5    6    5    6 ; Wght=  0.1000000000  0.9000000000
 cg2d: Sum(rhs),rhsMax =  -3.41060513164848E-13  5.49235707574145E+00
 EXTERNAL_FIELDS_LOAD,      1603 : iP,iLd,i0,i1=    5    6    5    6 ; Wght=  0.0666666667  0.9333333333
 cg2d: Sum(rhs),rhsMax =  -2.84217094304040E-13  5.49365465270975E+00
 EXTERNAL_FIELDS_LOAD,      1604 : iP,iLd,i0,i1=    5    6    5    6 ; Wght=  0.0333333333  0.9666666667
 cg2d: Sum(rhs),rhsMax =  -4.54747350886464E-13  5.49497081001686E+00
 EXTERNAL_FIELDS_LOAD,      1605 : iP,iLd,i0,i1=    5    6    6    7 ; Wght=  1.0000000000  0.0000000000
 EXTERNAL_FIELDS_LOAD, it=      1605 : Reading new data, i0,i1=    6    7 (prev=    5    6 )
(PID.TID 0000.0001)  MDS_READ_FIELD: opening global file: trenberth_taux.bin
(PID.TID 0000.0001)  MDS_READ_FIELD: opening global file: trenberth_taux.bin
(PID.TID 0000.0001)  MDS_READ_FIELD: opening global file: trenberth_tauy.bin
(PID.TID 0000.0001)  MDS_READ_FIELD: opening global file: trenberth_tauy.bin
(PID.TID 0000.0001)  MDS_READ_FIELD: opening global file: shiQnet_cs32.bin
(PID.TID 0000.0001)  MDS_READ_FIELD: opening global file: shiQnet_cs32.bin
(PID.TID 0000.0001)  MDS_READ_FIELD: opening global file: shiEmPR_cs32.bin
(PID.TID 0000.0001)  MDS_READ_FIELD: opening global file: shiEmPR_cs32.bin
(PID.TID 0000.0001)  MDS_READ_FIELD: opening global file: lev_surfT_cs_12m.bin
(PID.TID 0000.0001)  MDS_READ_FIELD: opening global file: lev_surfT_cs_12m.bin
(PID.TID 0000.0001)  MDS_READ_FIELD: opening global file: lev_surfS_cs_12m.bin
(PID.TID 0000.0001)  MDS_READ_FIELD: opening global file: lev_surfS_cs_12m.bin
 cg2d: Sum(rhs),rhsMax =  -4.54747350886464E-13  5.49623240871083E+00
 Compute Stats, Diag. #    23 "ETAN    " (list#  1) Parms "SM      M1      ", vol(  0 )= 3.639E+14
 Compute Stats, Diag. #    30 "UVEL    " (list#  1) Parms "UUR     MR      ", vol(  0 )= 1.231E+18
 Compute Stats, Diag. #    31 "VVEL    " (list#  1) Parms "VVR     MR      ", vol(  0 )= 1.243E+18
 Compute Stats, Diag. #    32 "WVEL    " (list#  1) Parms "WM      LR      ", vol(  0 )= 1.315E+18
 Compute Stats, Diag. #    26 "THETA   " (list#  1) Parms "SMR     MR      ", vol(  0 )= 1.340E+18
 EXTERNAL_FIELDS_LOAD,      1606 : iP,iLd,i0,i1=    6    7    6    7 ; Wght=  0.9666666667  0.0333333333
 cg2d: Sum(rhs),rhsMax =  -1.42108547152020E-13  5.49748088023227E+00
 EXTERNAL_FIELDS_LOAD,      1607 : iP,iLd,i0,i1=    6    7    6    7 ; Wght=  0.9333333333  0.0666666667
 cg2d: Sum(rhs),rhsMax =  -8.52651282912120E-14  5.49871084223506E+00
 EXTERNAL_FIELDS_LOAD,      1608 : iP,iLd,i0,i1=    6    7    6    7 ; Wght=  0.9000000000  0.1000000000
 cg2d: Sum(rhs),rhsMax =  -3.97903932025656E-13  5.49995533142247E+00
 EXTERNAL_FIELDS_LOAD,      1609 : iP,iLd,i0,i1=    6    7    6    7 ; Wght=  0.8666666667  0.1333333333
 cg2d: Sum(rhs),rhsMax =   5.68434188608080E-14  5.50121911270065E+00
 Computing Diagnostic #    79 "DRHODR  " (list#  1) Parms "SM      LR      ", Count=      10
 Computing Diagnostic #    64 "RHOAnoma" (list#  1) Parms "SMR     MR      ", Count=      10
 Computing Diagnostic #    80 "CONVADJ " (list#  1) Parms "SMR     LR      ", Count=      10
 Computing Diagnostic #   210 "GM_Kwx  " (list#  1) Parms "UM      LR      ", Count=      10
             Vector  Mate for "GM_Kwx  " :  Diagnostic #    211 "GM_Kwy  " exists
 Computing Diagnostic #   211 "GM_Kwy  " (list#  1) Parms "VM      LR      ", Count=      10
             Vector  Mate for "GM_Kwy  " :  Diagnostic #    210 "GM_Kwx  " exists
 Computing Diagnostic #   212 "GM_Kwz  " (list#  1) Parms "WM P    LR      ", Count=      10
 Computing Diagnostic #   213 "GM_PsiX " (list#  1) Parms "UU      LR      ", Count=      10
             Vector  Mate for "GM_PsiX " :  Diagnostic #    214 "GM_PsiY " exists
 Computing Diagnostic #   214 "GM_PsiY " (list#  1) Parms "VV      LR      ", Count=      10
             Vector  Mate for "GM_PsiY " :  Diagnostic #    213 "GM_PsiX " exists
 EXTERNAL_FIELDS_LOAD,      1610 : iP,iLd,i0,i1=    6    7    6    7 ; Wght=  0.8333333333  0.1666666667
 cg2d: Sum(rhs),rhsMax =  -4.26325641456060E-13  5.50250644919579E+00
 EXTERNAL_FIELDS_LOAD,      1611 : iP,iLd,i0,i1=    6    7    6    7 ; Wght=  0.8000000000  0.2000000000
 cg2d: Sum(rhs),rhsMax =  -5.40012479177676E-13  5.50379208953597E+00
 EXTERNAL_FIELDS_LOAD,      1612 : iP,iLd,i0,i1=    6    7    6    7 ; Wght=  0.7666666667  0.2333333333
 cg2d: Sum(rhs),rhsMax =   0.00000000000000E+00  5.50510412721463E+00
 EXTERNAL_FIELDS_LOAD,      1613 : iP,iLd,i0,i1=    6    7    6    7 ; Wght=  0.7333333333  0.2666666667
 cg2d: Sum(rhs),rhsMax =  -8.52651282912120E-14  5.50643321856099E+00
 EXTERNAL_FIELDS_LOAD,      1614 : iP,iLd,i0,i1=    6    7    6    7 ; Wght=  0.7000000000  0.3000000000
 cg2d: Sum(rhs),rhsMax =  -1.13686837721616E-13  5.50778483669640E+00
 EXTERNAL_FIELDS_LOAD,      1615 : iP,iLd,i0,i1=    6    7    6    7 ; Wght=  0.6666666667  0.3333333333
 cg2d: Sum(rhs),rhsMax =  -3.41060513164848E-13  5.50915641017559E+00
 Compute Stats, Diag. #    23 "ETAN    " (list#  1) Parms "SM      M1      ", vol(  0 )= 3.639E+14
 Compute Stats, Diag. #    30 "UVEL    " (list#  1) Parms "UUR     MR      ", vol(  0 )= 1.231E+18
 Compute Stats, Diag. #    31 "VVEL    " (list#  1) Parms "VVR     MR      ", vol(  0 )= 1.243E+18
 Compute Stats, Diag. #    32 "WVEL    " (list#  1) Parms "WM      LR      ", vol(  0 )= 1.315E+18
 Compute Stats, Diag. #    26 "THETA   " (list#  1) Parms "SMR     MR      ", vol(  0 )= 1.340E+18
 EXTERNAL_FIELDS_LOAD,      1616 : iP,iLd,i0,i1=    6    7    6    7 ; Wght=  0.6333333333  0.3666666667
 cg2d: Sum(rhs),rhsMax =  -2.27373675443232E-13  5.51054966508768E+00
 EXTERNAL_FIELDS_LOAD,      1617 : iP,iLd,i0,i1=    6    7    6    7 ; Wght=  0.6000000000  0.4000000000
 cg2d: Sum(rhs),rhsMax =  -2.27373675443232E-13  5.51196608050762E+00
 EXTERNAL_FIELDS_LOAD,      1618 : iP,iLd,i0,i1=    6    7    6    7 ; Wght=  0.5666666667  0.4333333333
 cg2d: Sum(rhs),rhsMax =  -1.98951966012828E-13  5.51339854733601E+00
 EXTERNAL_FIELDS_LOAD,      1619 : iP,iLd,i0,i1=    6    7    6    7 ; Wght=  0.5333333333  0.4666666667
 cg2d: Sum(rhs),rhsMax =  -2.27373675443232E-13  5.51485992280633E+00
(PID.TID 0000.0001)      cg2d_init_res =   1.58399258992462E-01
(PID.TID 0000.0001)      cg2d_iters(min,last) =      -1      62
(PID.TID 0000.0001)      cg2d_last_res =   5.06135747976442E-07
(PID.TID 0000.0001) // =======================================================
(PID.TID 0000.0001) // Begin MONITOR dynamic field statistics
(PID.TID 0000.0001) // =======================================================
(PID.TID 0000.0001) %MON time_tsnumber                =                  1620
(PID.TID 0000.0001) %MON time_secondsf                =   1.3996800000000E+08
(PID.TID 0000.0001) %MON dynstat_eta_max              =   1.0037701065365E+00
(PID.TID 0000.0001) %MON dynstat_eta_min              =  -1.8638138946347E+00
(PID.TID 0000.0001) %MON dynstat_eta_mean             =   3.5725402055106E-16
(PID.TID 0000.0001) %MON dynstat_eta_sd               =   6.3126628974222E-01
(PID.TID 0000.0001) %MON dynstat_eta_del2             =   8.7286516698362E-04
(PID.TID 0000.0001) %MON dynstat_uvel_max             =   2.5599737181345E-01
(PID.TID 0000.0001) %MON dynstat_uvel_min             =  -2.3026888517216E-01
(PID.TID 0000.0001) %MON dynstat_uvel_mean            =  -4.9552037492549E-04
(PID.TID 0000.0001) %MON dynstat_uvel_sd              =   1.3260878526700E-02
(PID.TID 0000.0001) %MON dynstat_uvel_del2            =   5.6272934494893E-05
(PID.TID 0000.0001) %MON dynstat_vvel_max             =   2.2580625185630E-01
(PID.TID 0000.0001) %MON dynstat_vvel_min             =  -2.1001946330413E-01
(PID.TID 0000.0001) %MON dynstat_vvel_mean            =  -3.7794754733692E-04
(PID.TID 0000.0001) %MON dynstat_vvel_sd              =   1.3467544511257E-02
(PID.TID 0000.0001) %MON dynstat_vvel_del2            =   5.5294005337159E-05
(PID.TID 0000.0001) %MON dynstat_wvel_max             =   1.0801710480306E-04
(PID.TID 0000.0001) %MON dynstat_wvel_min             =  -2.1612023088118E-04
(PID.TID 0000.0001) %MON dynstat_wvel_mean            =   2.3208124438279E-23
(PID.TID 0000.0001) %MON dynstat_wvel_sd              =   4.4386578518495E-06
(PID.TID 0000.0001) %MON dynstat_wvel_del2            =   3.3780131762110E-08
(PID.TID 0000.0001) %MON dynstat_theta_max            =   3.1514771335590E+01
(PID.TID 0000.0001) %MON dynstat_theta_min            =  -7.6534604290206E+00
(PID.TID 0000.0001) %MON dynstat_theta_mean           =   3.6101536461684E+00
(PID.TID 0000.0001) %MON dynstat_theta_sd             =   4.4166321350243E+00
(PID.TID 0000.0001) %MON dynstat_theta_del2           =   3.0790715870470E-03
(PID.TID 0000.0001) %MON dynstat_salt_max             =   4.1343545159723E+01
(PID.TID 0000.0001) %MON dynstat_salt_min             =   1.8678474164549E+01
(PID.TID 0000.0001) %MON dynstat_salt_mean            =   3.4721738081251E+01
(PID.TID 0000.0001) %MON dynstat_salt_sd              =   4.9636288951294E-01
(PID.TID 0000.0001) %MON dynstat_salt_del2            =   9.9586173625948E-04
(PID.TID 0000.0001) %MON forcing_qnet_max             =   2.0229973837998E+02
(PID.TID 0000.0001) %MON forcing_qnet_min             =  -1.9718863546915E+02
(PID.TID 0000.0001) %MON forcing_qnet_mean            =   1.9596147289475E+01
(PID.TID 0000.0001) %MON forcing_qnet_sd              =   9.2166533481062E+01
(PID.TID 0000.0001) %MON forcing_qnet_del2            =   3.9201995701631E-01
(PID.TID 0000.0001) %MON forcing_qsw_max              =   0.0000000000000E+00
(PID.TID 0000.0001) %MON forcing_qsw_min              =   0.0000000000000E+00
(PID.TID 0000.0001) %MON forcing_qsw_mean             =   0.0000000000000E+00
(PID.TID 0000.0001) %MON forcing_qsw_sd               =   0.0000000000000E+00
(PID.TID 0000.0001) %MON forcing_qsw_del2             =   0.0000000000000E+00
(PID.TID 0000.0001) %MON forcing_empmr_max            =   7.6494447208479E-05
(PID.TID 0000.0001) %MON forcing_empmr_min            =  -1.5362614137596E-04
(PID.TID 0000.0001) %MON forcing_empmr_mean           =  -2.7256318706594E-21
(PID.TID 0000.0001) %MON forcing_empmr_sd             =   2.4051723601802E-05
(PID.TID 0000.0001) %MON forcing_empmr_del2           =   1.2276157049243E-07
(PID.TID 0000.0001) %MON forcing_fu_max               =   3.3519419512490E-01
(PID.TID 0000.0001) %MON forcing_fu_min               =  -2.6040991621841E-01
(PID.TID 0000.0001) %MON forcing_fu_mean              =  -2.7210120622396E-03
(PID.TID 0000.0001) %MON forcing_fu_sd                =   8.0360246474857E-02
(PID.TID 0000.0001) %MON forcing_fu_del2              =   2.2269164233251E-04
(PID.TID 0000.0001) %MON forcing_fv_max               =   3.3932416083857E-01
(PID.TID 0000.0001) %MON forcing_fv_min               =  -3.6036762335569E-01
(PID.TID 0000.0001) %MON forcing_fv_mean              =  -7.2632087421189E-03
(PID.TID 0000.0001) %MON forcing_fv_sd                =   7.4683547988714E-02
(PID.TID 0000.0001) %MON forcing_fv_del2              =   2.4339892805045E-04
(PID.TID 0000.0001) %MON trAdv_CFL_u_max              =   8.6375588953255E-02
(PID.TID 0000.0001) %MON trAdv_CFL_v_max              =   1.4367192580927E-01
(PID.TID 0000.0001) %MON trAdv_CFL_w_max              =   1.1094195218420E-01
(PID.TID 0000.0001) %MON advcfl_uvel_max              =   7.4048925407085E-02
(PID.TID 0000.0001) %MON advcfl_vvel_max              =   8.2394110013744E-02
(PID.TID 0000.0001) %MON advcfl_wvel_max              =   7.0463350747675E-02
(PID.TID 0000.0001) %MON advcfl_W_hf_max              =   7.7803283117224E-02
(PID.TID 0000.0001) %MON pe_b_mean                    =   5.3087181596001E-04
(PID.TID 0000.0001) %MON ke_max                       =   4.0296052109808E-02
(PID.TID 0000.0001) %MON ke_mean                      =   1.6511173851803E-04
(PID.TID 0000.0001) %MON ke_vol                       =   1.3398024453628E+18
(PID.TID 0000.0001) %MON vort_r_min                   =  -9.7112945608292E-07
(PID.TID 0000.0001) %MON vort_r_max                   =   1.4297089989269E-06
(PID.TID 0000.0001) %MON vort_a_mean                  =  -2.0549865324846E-05
(PID.TID 0000.0001) %MON vort_a_sd                    =   7.5259629699805E-05
(PID.TID 0000.0001) %MON vort_p_mean                  =  -2.4783522345032E-05
(PID.TID 0000.0001) %MON vort_p_sd                    =   1.2810583066434E-04
(PID.TID 0000.0001) %MON surfExpan_theta_mean         =   4.9224413014004E-08
(PID.TID 0000.0001) %MON surfExpan_salt_mean          =   1.5602226192108E-08
(PID.TID 0000.0001) // =======================================================
(PID.TID 0000.0001) // End MONITOR dynamic field statistics
(PID.TID 0000.0001) // =======================================================
(PID.TID 0000.0001) // =======================================================
(PID.TID 0000.0001) // Begin MONITOR ptracer field statistics
(PID.TID 0000.0001) // =======================================================
(PID.TID 0000.0001) %MON trcstat_ptracer01_max        =   1.4261039212664E+08
(PID.TID 0000.0001) %MON trcstat_ptracer01_min        =  -8.4281652447399E+06
(PID.TID 0000.0001) %MON trcstat_ptracer01_mean       =   1.3454887961741E+08
(PID.TID 0000.0001) %MON trcstat_ptracer01_sd         =   2.1242494900161E+07
(PID.TID 0000.0001) %MON trcstat_ptracer01_del2       =   4.0912972385856E+04
(PID.TID 0000.0001) // =======================================================
(PID.TID 0000.0001) // End MONITOR ptracer field statistics
(PID.TID 0000.0001) // =======================================================
 Computing Diagnostic #    79 "DRHODR  " (list#  1) Parms "SM      LR      ", Count=      10
 Computing Diagnostic #    64 "RHOAnoma" (list#  1) Parms "SMR     MR      ", Count=      10
 Computing Diagnostic #    80 "CONVADJ " (list#  1) Parms "SMR     LR      ", Count=      10
 Computing Diagnostic #   210 "GM_Kwx  " (list#  1) Parms "UM      LR      ", Count=      10
             Vector  Mate for "GM_Kwx  " :  Diagnostic #    211 "GM_Kwy  " exists
 Computing Diagnostic #   211 "GM_Kwy  " (list#  1) Parms "VM      LR      ", Count=      10
             Vector  Mate for "GM_Kwy  " :  Diagnostic #    210 "GM_Kwx  " exists
 Computing Diagnostic #   212 "GM_Kwz  " (list#  1) Parms "WM P    LR      ", Count=      10
 Computing Diagnostic #   213 "GM_PsiX " (list#  1) Parms "UU      LR      ", Count=      10
             Vector  Mate for "GM_PsiX " :  Diagnostic #    214 "GM_PsiY " exists
 Computing Diagnostic #   214 "GM_PsiY " (list#  1) Parms "VV      LR      ", Count=      10
             Vector  Mate for "GM_PsiY " :  Diagnostic #    213 "GM_PsiX " exists
 EXTERNAL_FIELDS_LOAD,      1620 : iP,iLd,i0,i1=    6    7    6    7 ; Wght=  0.5000000000  0.5000000000
 cg2d: Sum(rhs),rhsMax =  -4.83169060316868E-13  5.51632899165550E+00
 EXTERNAL_FIELDS_LOAD,      1621 : iP,iLd,i0,i1=    6    7    6    7 ; Wght=  0.4666666667  0.5333333333
 cg2d: Sum(rhs),rhsMax =  -2.27373675443232E-13  5.51782362587761E+00
 EXTERNAL_FIELDS_LOAD,      1622 : iP,iLd,i0,i1=    6    7    6    7 ; Wght=  0.4333333333  0.5666666667
 cg2d: Sum(rhs),rhsMax =  -2.27373675443232E-13  5.51930164494704E+00
 EXTERNAL_FIELDS_LOAD,      1623 : iP,iLd,i0,i1=    6    7    6    7 ; Wght=  0.4000000000  0.6000000000
 cg2d: Sum(rhs),rhsMax =   2.84217094304040E-14  5.52081911768004E+00
 EXTERNAL_FIELDS_LOAD,      1624 : iP,iLd,i0,i1=    6    7    6    7 ; Wght=  0.3666666667  0.6333333333
 cg2d: Sum(rhs),rhsMax =  -3.69482222595252E-13  5.52229646581526E+00
 EXTERNAL_FIELDS_LOAD,      1625 : iP,iLd,i0,i1=    6    7    6    7 ; Wght=  0.3333333333  0.6666666667
 cg2d: Sum(rhs),rhsMax =  -1.70530256582424E-13  5.52381301561990E+00
 Compute Stats, Diag. #    23 "ETAN    " (list#  1) Parms "SM      M1      ", vol(  0 )= 3.639E+14
 Compute Stats, Diag. #    30 "UVEL    " (list#  1) Parms "UUR     MR      ", vol(  0 )= 1.231E+18
 Compute Stats, Diag. #    31 "VVEL    " (list#  1) Parms "VVR     MR      ", vol(  0 )= 1.243E+18
 Compute Stats, Diag. #    32 "WVEL    " (list#  1) Parms "WM      LR      ", vol(  0 )= 1.315E+18
 Compute Stats, Diag. #    26 "THETA   " (list#  1) Parms "SMR     MR      ", vol(  0 )= 1.340E+18
 EXTERNAL_FIELDS_LOAD,      1626 : iP,iLd,i0,i1=    6    7    6    7 ; Wght=  0.3000000000  0.7000000000
 cg2d: Sum(rhs),rhsMax =  -2.84217094304040E-13  5.52527543952406E+00
 EXTERNAL_FIELDS_LOAD,      1627 : iP,iLd,i0,i1=    6    7    6    7 ; Wght=  0.2666666667  0.7333333333
 cg2d: Sum(rhs),rhsMax =  -1.98951966012828E-13  5.52676570347705E+00
 EXTERNAL_FIELDS_LOAD,      1628 : iP,iLd,i0,i1=    6    7    6    7 ; Wght=  0.2333333333  0.7666666667
 cg2d: Sum(rhs),rhsMax =  -1.70530256582424E-13  5.52819611924313E+00
 EXTERNAL_FIELDS_LOAD,      1629 : iP,iLd,i0,i1=    6    7    6    7 ; Wght=  0.2000000000  0.8000000000
 cg2d: Sum(rhs),rhsMax =  -3.69482222595252E-13  5.52963695014580E+00
 Computing Diagnostic #    79 "DRHODR  " (list#  1) Parms "SM      LR      ", Count=      10
 Computing Diagnostic #    64 "RHOAnoma" (list#  1) Parms "SMR     MR      ", Count=      10
 Computing Diagnostic #    80 "CONVADJ " (list#  1) Parms "SMR     LR      ", Count=      10
 Computing Diagnostic #   210 "GM_Kwx  " (list#  1) Parms "UM      LR      ", Count=      10
             Vector  Mate for "GM_Kwx  " :  Diagnostic #    211 "GM_Kwy  " exists
 Computing Diagnostic #   211 "GM_Kwy  " (list#  1) Parms "VM      LR      ", Count=      10
             Vector  Mate for "GM_Kwy  " :  Diagnostic #    210 "GM_Kwx  " exists
 Computing Diagnostic #   212 "GM_Kwz  " (list#  1) Parms "WM P    LR      ", Count=      10
 Computing Diagnostic #   213 "GM_PsiX " (list#  1) Parms "UU      LR      ", Count=      10
             Vector  Mate for "GM_PsiX " :  Diagnostic #    214 "GM_PsiY " exists
 Computing Diagnostic #   214 "GM_PsiY " (list#  1) Parms "VV      LR      ", Count=      10
             Vector  Mate for "GM_PsiY " :  Diagnostic #    213 "GM_PsiX " exists
 EXTERNAL_FIELDS_LOAD,      1630 : iP,iLd,i0,i1=    6    7    6    7 ; Wght=  0.1666666667  0.8333333333
 cg2d: Sum(rhs),rhsMax =  -1.98951966012828E-13  5.53101229076888E+00
 EXTERNAL_FIELDS_LOAD,      1631 : iP,iLd,i0,i1=    6    7    6    7 ; Wght=  0.1333333333  0.8666666667
 cg2d: Sum(rhs),rhsMax =  -1.42108547152020E-13  5.53238156382579E+00
 EXTERNAL_FIELDS_LOAD,      1632 : iP,iLd,i0,i1=    6    7    6    7 ; Wght=  0.1000000000  0.9000000000
 cg2d: Sum(rhs),rhsMax =  -5.40012479177676E-13  5.53367900462111E+00
 EXTERNAL_FIELDS_LOAD,      1633 : iP,iLd,i0,i1=    6    7    6    7 ; Wght=  0.0666666667  0.9333333333
 cg2d: Sum(rhs),rhsMax =   2.84217094304040E-14  5.53495649087790E+00
 EXTERNAL_FIELDS_LOAD,      1634 : iP,iLd,i0,i1=    6    7    6    7 ; Wght=  0.0333333333  0.9666666667
 cg2d: Sum(rhs),rhsMax =  -1.13686837721616E-13  5.53615513331354E+00
 EXTERNAL_FIELDS_LOAD,      1635 : iP,iLd,i0,i1=    6    7    7    8 ; Wght=  1.0000000000  0.0000000000
 EXTERNAL_FIELDS_LOAD, it=      1635 : Reading new data, i0,i1=    7    8 (prev=    6    7 )
(PID.TID 0000.0001)  MDS_READ_FIELD: opening global file: trenberth_taux.bin
(PID.TID 0000.0001)  MDS_READ_FIELD: opening global file: trenberth_taux.bin
(PID.TID 0000.0001)  MDS_READ_FIELD: opening global file: trenberth_tauy.bin
(PID.TID 0000.0001)  MDS_READ_FIELD: opening global file: trenberth_tauy.bin
(PID.TID 0000.0001)  MDS_READ_FIELD: opening global file: shiQnet_cs32.bin
(PID.TID 0000.0001)  MDS_READ_FIELD: opening global file: shiQnet_cs32.bin
(PID.TID 0000.0001)  MDS_READ_FIELD: opening global file: shiEmPR_cs32.bin
(PID.TID 0000.0001)  MDS_READ_FIELD: opening global file: shiEmPR_cs32.bin
(PID.TID 0000.0001)  MDS_READ_FIELD: opening global file: lev_surfT_cs_12m.bin
(PID.TID 0000.0001)  MDS_READ_FIELD: opening global file: lev_surfT_cs_12m.bin
(PID.TID 0000.0001)  MDS_READ_FIELD: opening global file: lev_surfS_cs_12m.bin
(PID.TID 0000.0001)  MDS_READ_FIELD: opening global file: lev_surfS_cs_12m.bin
 cg2d: Sum(rhs),rhsMax =  -5.96855898038484E-13  5.53732187733269E+00
 Compute Stats, Diag. #    23 "ETAN    " (list#  1) Parms "SM      M1      ", vol(  0 )= 3.639E+14
 Compute Stats, Diag. #    30 "UVEL    " (list#  1) Parms "UUR     MR      ", vol(  0 )= 1.231E+18
 Compute Stats, Diag. #    31 "VVEL    " (list#  1) Parms "VVR     MR      ", vol(  0 )= 1.243E+18
 Compute Stats, Diag. #    32 "WVEL    " (list#  1) Parms "WM      LR      ", vol(  0 )= 1.315E+18
 Compute Stats, Diag. #    26 "THETA   " (list#  1) Parms "SMR     MR      ", vol(  0 )= 1.340E+18
 EXTERNAL_FIELDS_LOAD,      1636 : iP,iLd,i0,i1=    7    8    7    8 ; Wght=  0.9666666667  0.0333333333
 cg2d: Sum(rhs),rhsMax =  -3.69482222595252E-13  5.53834746049936E+00
 EXTERNAL_FIELDS_LOAD,      1637 : iP,iLd,i0,i1=    7    8    7    8 ; Wght=  0.9333333333  0.0666666667
 cg2d: Sum(rhs),rhsMax =  -1.70530256582424E-13  5.53942656815409E+00
 EXTERNAL_FIELDS_LOAD,      1638 : iP,iLd,i0,i1=    7    8    7    8 ; Wght=  0.9000000000  0.1000000000
 cg2d: Sum(rhs),rhsMax =  -3.69482222595252E-13  5.54044390169924E+00
 EXTERNAL_FIELDS_LOAD,      1639 : iP,iLd,i0,i1=    7    8    7    8 ; Wght=  0.8666666667  0.1333333333
 cg2d: Sum(rhs),rhsMax =  -6.82121026329696E-13  5.54143162001394E+00
 Computing Diagnostic #    79 "DRHODR  " (list#  1) Parms "SM      LR      ", Count=      10
 Computing Diagnostic #    64 "RHOAnoma" (list#  1) Parms "SMR     MR      ", Count=      10
 Computing Diagnostic #    80 "CONVADJ " (list#  1) Parms "SMR     LR      ", Count=      10
 Computing Diagnostic #   210 "GM_Kwx  " (list#  1) Parms "UM      LR      ", Count=      10
             Vector  Mate for "GM_Kwx  " :  Diagnostic #    211 "GM_Kwy  " exists
 Computing Diagnostic #   211 "GM_Kwy  " (list#  1) Parms "VM      LR      ", Count=      10
             Vector  Mate for "GM_Kwy  " :  Diagnostic #    210 "GM_Kwx  " exists
 Computing Diagnostic #   212 "GM_Kwz  " (list#  1) Parms "WM P    LR      ", Count=      10
 Computing Diagnostic #   213 "GM_PsiX " (list#  1) Parms "UU      LR      ", Count=      10
             Vector  Mate for "GM_PsiX " :  Diagnostic #    214 "GM_PsiY " exists
 Computing Diagnostic #   214 "GM_PsiY " (list#  1) Parms "VV      LR      ", Count=      10
             Vector  Mate for "GM_PsiY " :  Diagnostic #    213 "GM_PsiX " exists
 EXTERNAL_FIELDS_LOAD,      1640 : iP,iLd,i0,i1=    7    8    7    8 ; Wght=  0.8333333333  0.1666666667
 cg2d: Sum(rhs),rhsMax =  -3.12638803734444E-13  5.54235504641909E+00
 EXTERNAL_FIELDS_LOAD,      1641 : iP,iLd,i0,i1=    7    8    7    8 ; Wght=  0.8000000000  0.2000000000
 cg2d: Sum(rhs),rhsMax =  -3.69482222595252E-13  5.54324584971052E+00
 EXTERNAL_FIELDS_LOAD,      1642 : iP,iLd,i0,i1=    7    8    7    8 ; Wght=  0.7666666667  0.2333333333
 cg2d: Sum(rhs),rhsMax =  -3.69482222595252E-13  5.54408099820573E+00
 EXTERNAL_FIELDS_LOAD,      1643 : iP,iLd,i0,i1=    7    8    7    8 ; Wght=  0.7333333333  0.2666666667
 cg2d: Sum(rhs),rhsMax =  -3.69482222595252E-13  5.54488834119467E+00
 EXTERNAL_FIELDS_LOAD,      1644 : iP,iLd,i0,i1=    7    8    7    8 ; Wght=  0.7000000000  0.3000000000
 cg2d: Sum(rhs),rhsMax =  -3.97903932025656E-13  5.54565461682154E+00
 EXTERNAL_FIELDS_LOAD,      1645 : iP,iLd,i0,i1=    7    8    7    8 ; Wght=  0.6666666667  0.3333333333
 cg2d: Sum(rhs),rhsMax =  -1.42108547152020E-13  5.54640506074225E+00
 Compute Stats, Diag. #    23 "ETAN    " (list#  1) Parms "SM      M1      ", vol(  0 )= 3.639E+14
 Compute Stats, Diag. #    30 "UVEL    " (list#  1) Parms "UUR     MR      ", vol(  0 )= 1.231E+18
 Compute Stats, Diag. #    31 "VVEL    " (list#  1) Parms "VVR     MR      ", vol(  0 )= 1.243E+18
 Compute Stats, Diag. #    32 "WVEL    " (list#  1) Parms "WM      LR      ", vol(  0 )= 1.315E+18
 Compute Stats, Diag. #    26 "THETA   " (list#  1) Parms "SMR     MR      ", vol(  0 )= 1.340E+18
 EXTERNAL_FIELDS_LOAD,      1646 : iP,iLd,i0,i1=    7    8    7    8 ; Wght=  0.6333333333  0.3666666667
 cg2d: Sum(rhs),rhsMax =  -8.52651282912120E-14  5.54713308460032E+00
 EXTERNAL_FIELDS_LOAD,      1647 : iP,iLd,i0,i1=    7    8    7    8 ; Wght=  0.6000000000  0.4000000000
 cg2d: Sum(rhs),rhsMax =  -3.69482222595252E-13  5.54786058578293E+00
 EXTERNAL_FIELDS_LOAD,      1648 : iP,iLd,i0,i1=    7    8    7    8 ; Wght=  0.5666666667  0.4333333333
 cg2d: Sum(rhs),rhsMax =  -1.98951966012828E-13  5.54858595745472E+00
 EXTERNAL_FIELDS_LOAD,      1649 : iP,iLd,i0,i1=    7    8    7    8 ; Wght=  0.5333333333  0.4666666667
 cg2d: Sum(rhs),rhsMax =  -4.54747350886464E-13  5.54932865120925E+00
(PID.TID 0000.0001)      cg2d_init_res =   1.72091768389887E-01
(PID.TID 0000.0001)      cg2d_iters(min,last) =      -1      61
(PID.TID 0000.0001)      cg2d_last_res =   5.78675118770415E-07
(PID.TID 0000.0001) // =======================================================
(PID.TID 0000.0001) // Begin MONITOR dynamic field statistics
(PID.TID 0000.0001) // =======================================================
(PID.TID 0000.0001) %MON time_tsnumber                =                  1650
(PID.TID 0000.0001) %MON time_secondsf                =   1.4256000000000E+08
(PID.TID 0000.0001) %MON dynstat_eta_max              =   1.0367905246270E+00
(PID.TID 0000.0001) %MON dynstat_eta_min              =  -1.8688075011829E+00
(PID.TID 0000.0001) %MON dynstat_eta_mean             =   5.2214049157463E-16
(PID.TID 0000.0001) %MON dynstat_eta_sd               =   6.3283666781959E-01
(PID.TID 0000.0001) %MON dynstat_eta_del2             =   8.7127317534641E-04
(PID.TID 0000.0001) %MON dynstat_uvel_max             =   3.9115391175020E-01
(PID.TID 0000.0001) %MON dynstat_uvel_min             =  -2.3821354626962E-01
(PID.TID 0000.0001) %MON dynstat_uvel_mean            =  -5.1886571018342E-04
(PID.TID 0000.0001) %MON dynstat_uvel_sd              =   1.3572538050274E-02
(PID.TID 0000.0001) %MON dynstat_uvel_del2            =   5.6785601564542E-05
(PID.TID 0000.0001) %MON dynstat_vvel_max             =   3.1629972803822E-01
(PID.TID 0000.0001) %MON dynstat_vvel_min             =  -2.1458985092887E-01
(PID.TID 0000.0001) %MON dynstat_vvel_mean            =  -3.9756569557390E-04
(PID.TID 0000.0001) %MON dynstat_vvel_sd              =   1.3671968085683E-02
(PID.TID 0000.0001) %MON dynstat_vvel_del2            =   5.6052666552472E-05
(PID.TID 0000.0001) %MON dynstat_wvel_max             =   9.9550221915955E-05
(PID.TID 0000.0001) %MON dynstat_wvel_min             =  -2.1397975672180E-04
(PID.TID 0000.0001) %MON dynstat_wvel_mean            =  -3.7132999101246E-22
(PID.TID 0000.0001) %MON dynstat_wvel_sd              =   4.3934106047020E-06
(PID.TID 0000.0001) %MON dynstat_wvel_del2            =   3.3555216264140E-08
(PID.TID 0000.0001) %MON dynstat_theta_max            =   3.1237388251128E+01
(PID.TID 0000.0001) %MON dynstat_theta_min            =  -7.6243132325688E+00
(PID.TID 0000.0001) %MON dynstat_theta_mean           =   3.6089976436946E+00
(PID.TID 0000.0001) %MON dynstat_theta_sd             =   4.4119466155170E+00
(PID.TID 0000.0001) %MON dynstat_theta_del2           =   3.1257951105946E-03
(PID.TID 0000.0001) %MON dynstat_salt_max             =   4.1335008062274E+01
(PID.TID 0000.0001) %MON dynstat_salt_min             =   1.8699338204516E+01
(PID.TID 0000.0001) %MON dynstat_salt_mean            =   3.4721757082354E+01
(PID.TID 0000.0001) %MON dynstat_salt_sd              =   4.9634852952100E-01
(PID.TID 0000.0001) %MON dynstat_salt_del2            =   9.8703302914275E-04
(PID.TID 0000.0001) %MON forcing_qnet_max             =   2.6623444985897E+02
(PID.TID 0000.0001) %MON forcing_qnet_min             =  -2.1164738352902E+02
(PID.TID 0000.0001) %MON forcing_qnet_mean            =   1.3490614180387E+01
(PID.TID 0000.0001) %MON forcing_qnet_sd              =   7.9941125037902E+01
(PID.TID 0000.0001) %MON forcing_qnet_del2            =   3.9351193552263E-01
(PID.TID 0000.0001) %MON forcing_qsw_max              =   0.0000000000000E+00
(PID.TID 0000.0001) %MON forcing_qsw_min              =   0.0000000000000E+00
(PID.TID 0000.0001) %MON forcing_qsw_mean             =   0.0000000000000E+00
(PID.TID 0000.0001) %MON forcing_qsw_sd               =   0.0000000000000E+00
(PID.TID 0000.0001) %MON forcing_qsw_del2             =   0.0000000000000E+00
(PID.TID 0000.0001) %MON forcing_empmr_max            =   7.6494447208479E-05
(PID.TID 0000.0001) %MON forcing_empmr_min            =  -1.5362614137596E-04
(PID.TID 0000.0001) %MON forcing_empmr_mean           =  -2.7256318706594E-21
(PID.TID 0000.0001) %MON forcing_empmr_sd             =   2.4051723601802E-05
(PID.TID 0000.0001) %MON forcing_empmr_del2           =   1.2276157049243E-07
(PID.TID 0000.0001) %MON forcing_fu_max               =   3.7939488069330E-01
(PID.TID 0000.0001) %MON forcing_fu_min               =  -3.0387787452663E-01
(PID.TID 0000.0001) %MON forcing_fu_mean              =  -4.7816371445427E-03
(PID.TID 0000.0001) %MON forcing_fu_sd                =   8.4774595803944E-02
(PID.TID 0000.0001) %MON forcing_fu_del2              =   2.3419656372830E-04
(PID.TID 0000.0001) %MON forcing_fv_max               =   3.6307584767778E-01
(PID.TID 0000.0001) %MON forcing_fv_min               =  -3.9408330405910E-01
(PID.TID 0000.0001) %MON forcing_fv_mean              =  -7.2982255147446E-03
(PID.TID 0000.0001) %MON forcing_fv_sd                =   8.0365850907335E-02
(PID.TID 0000.0001) %MON forcing_fv_del2              =   2.4868806625824E-04
(PID.TID 0000.0001) %MON trAdv_CFL_u_max              =   1.1412921059808E-01
(PID.TID 0000.0001) %MON trAdv_CFL_v_max              =   1.5052454192216E-01
(PID.TID 0000.0001) %MON trAdv_CFL_w_max              =   1.1879831205128E-01
(PID.TID 0000.0001) %MON advcfl_uvel_max              =   1.1314384451957E-01
(PID.TID 0000.0001) %MON advcfl_vvel_max              =   9.0931075375136E-02
(PID.TID 0000.0001) %MON advcfl_wvel_max              =   6.9765475399106E-02
(PID.TID 0000.0001) %MON advcfl_W_hf_max              =   7.7032712419847E-02
(PID.TID 0000.0001) %MON pe_b_mean                    =   5.3351636207236E-04
(PID.TID 0000.0001) %MON ke_max                       =   7.7188994681716E-02
(PID.TID 0000.0001) %MON ke_mean                      =   1.7154580468032E-04
(PID.TID 0000.0001) %MON ke_vol                       =   1.3398024453628E+18
(PID.TID 0000.0001) %MON vort_r_min                   =  -9.5636822103708E-07
(PID.TID 0000.0001) %MON vort_r_max                   =   1.7679141367499E-06
(PID.TID 0000.0001) %MON vort_a_mean                  =  -2.0549865324846E-05
(PID.TID 0000.0001) %MON vort_a_sd                    =   7.5259629573888E-05
(PID.TID 0000.0001) %MON vort_p_mean                  =  -2.4783522345032E-05
(PID.TID 0000.0001) %MON vort_p_sd                    =   1.2810590469736E-04
(PID.TID 0000.0001) %MON surfExpan_theta_mean         =   5.8293842018925E-08
(PID.TID 0000.0001) %MON surfExpan_salt_mean          =   1.4982446387971E-08
(PID.TID 0000.0001) // =======================================================
(PID.TID 0000.0001) // End MONITOR dynamic field statistics
(PID.TID 0000.0001) // =======================================================
(PID.TID 0000.0001) // =======================================================
(PID.TID 0000.0001) // Begin MONITOR ptracer field statistics
(PID.TID 0000.0001) // =======================================================
(PID.TID 0000.0001) %MON trcstat_ptracer01_max        =   1.4519025406074E+08
(PID.TID 0000.0001) %MON trcstat_ptracer01_min        =  -6.3323030948449E+06
(PID.TID 0000.0001) %MON trcstat_ptracer01_mean       =   1.3697161530874E+08
(PID.TID 0000.0001) %MON trcstat_ptracer01_sd         =   2.1751931625165E+07
(PID.TID 0000.0001) %MON trcstat_ptracer01_del2       =   4.4235680376242E+04
(PID.TID 0000.0001) // =======================================================
(PID.TID 0000.0001) // End MONITOR ptracer field statistics
(PID.TID 0000.0001) // =======================================================
 Computing Diagnostic #    79 "DRHODR  " (list#  1) Parms "SM      LR      ", Count=      10
 Computing Diagnostic #    64 "RHOAnoma" (list#  1) Parms "SMR     MR      ", Count=      10
 Computing Diagnostic #    80 "CONVADJ " (list#  1) Parms "SMR     LR      ", Count=      10
 Computing Diagnostic #   210 "GM_Kwx  " (list#  1) Parms "UM      LR      ", Count=      10
             Vector  Mate for "GM_Kwx  " :  Diagnostic #    211 "GM_Kwy  " exists
 Computing Diagnostic #   211 "GM_Kwy  " (list#  1) Parms "VM      LR      ", Count=      10
             Vector  Mate for "GM_Kwy  " :  Diagnostic #    210 "GM_Kwx  " exists
 Computing Diagnostic #   212 "GM_Kwz  " (list#  1) Parms "WM P    LR      ", Count=      10
 Computing Diagnostic #   213 "GM_PsiX " (list#  1) Parms "UU      LR      ", Count=      10
             Vector  Mate for "GM_PsiX " :  Diagnostic #    214 "GM_PsiY " exists
 Computing Diagnostic #   214 "GM_PsiY " (list#  1) Parms "VV      LR      ", Count=      10
             Vector  Mate for "GM_PsiY " :  Diagnostic #    213 "GM_PsiX " exists
 EXTERNAL_FIELDS_LOAD,      1650 : iP,iLd,i0,i1=    7    8    7    8 ; Wght=  0.5000000000  0.5000000000
 cg2d: Sum(rhs),rhsMax =  -5.11590769747272E-13  5.55009061420168E+00
 EXTERNAL_FIELDS_LOAD,      1651 : iP,iLd,i0,i1=    7    8    7    8 ; Wght=  0.4666666667  0.5333333333
 cg2d: Sum(rhs),rhsMax =  -1.70530256582424E-13  5.55088962241730E+00
 EXTERNAL_FIELDS_LOAD,      1652 : iP,iLd,i0,i1=    7    8    7    8 ; Wght=  0.4333333333  0.5666666667
 cg2d: Sum(rhs),rhsMax =  -4.54747350886464E-13  5.55172990437782E+00
 EXTERNAL_FIELDS_LOAD,      1653 : iP,iLd,i0,i1=    7    8    7    8 ; Wght=  0.4000000000  0.6000000000
 cg2d: Sum(rhs),rhsMax =  -2.84217094304040E-14  5.55262791576069E+00
 EXTERNAL_FIELDS_LOAD,      1654 : iP,iLd,i0,i1=    7    8    7    8 ; Wght=  0.3666666667  0.6333333333
 cg2d: Sum(rhs),rhsMax =  -3.97903932025656E-13  5.55358888843525E+00
 EXTERNAL_FIELDS_LOAD,      1655 : iP,iLd,i0,i1=    7    8    7    8 ; Wght=  0.3333333333  0.6666666667
 cg2d: Sum(rhs),rhsMax =  -3.41060513164848E-13  5.55462841709341E+00
 Compute Stats, Diag. #    23 "ETAN    " (list#  1) Parms "SM      M1      ", vol(  0 )= 3.639E+14
 Compute Stats, Diag. #    30 "UVEL    " (list#  1) Parms "UUR     MR      ", vol(  0 )= 1.231E+18
 Compute Stats, Diag. #    31 "VVEL    " (list#  1) Parms "VVR     MR      ", vol(  0 )= 1.243E+18
 Compute Stats, Diag. #    32 "WVEL    " (list#  1) Parms "WM      LR      ", vol(  0 )= 1.315E+18
 Compute Stats, Diag. #    26 "THETA   " (list#  1) Parms "SMR     MR      ", vol(  0 )= 1.340E+18
 EXTERNAL_FIELDS_LOAD,      1656 : iP,iLd,i0,i1=    7    8    7    8 ; Wght=  0.3000000000  0.7000000000
 cg2d: Sum(rhs),rhsMax =  -5.68434188608080E-14  5.55575225433076E+00
 EXTERNAL_FIELDS_LOAD,      1657 : iP,iLd,i0,i1=    7    8    7    8 ; Wght=  0.2666666667  0.7333333333
 cg2d: Sum(rhs),rhsMax =  -3.12638803734444E-13  5.55696991172931E+00
 EXTERNAL_FIELDS_LOAD,      1658 : iP,iLd,i0,i1=    7    8    7    8 ; Wght=  0.2333333333  0.7666666667
 cg2d: Sum(rhs),rhsMax =  -6.25277607468888E-13  5.55827935720519E+00
 EXTERNAL_FIELDS_LOAD,      1659 : iP,iLd,i0,i1=    7    8    7    8 ; Wght=  0.2000000000  0.8000000000
 cg2d: Sum(rhs),rhsMax =  -5.96855898038484E-13  5.55969505618893E+00
 Computing Diagnostic #    79 "DRHODR  " (list#  1) Parms "SM      LR      ", Count=      10
 Computing Diagnostic #    64 "RHOAnoma" (list#  1) Parms "SMR     MR      ", Count=      10
 Computing Diagnostic #    80 "CONVADJ " (list#  1) Parms "SMR     LR      ", Count=      10
 Computing Diagnostic #   210 "GM_Kwx  " (list#  1) Parms "UM      LR      ", Count=      10
             Vector  Mate for "GM_Kwx  " :  Diagnostic #    211 "GM_Kwy  " exists
 Computing Diagnostic #   211 "GM_Kwy  " (list#  1) Parms "VM      LR      ", Count=      10
             Vector  Mate for "GM_Kwy  " :  Diagnostic #    210 "GM_Kwx  " exists
 Computing Diagnostic #   212 "GM_Kwz  " (list#  1) Parms "WM P    LR      ", Count=      10
 Computing Diagnostic #   213 "GM_PsiX " (list#  1) Parms "UU      LR      ", Count=      10
             Vector  Mate for "GM_PsiX " :  Diagnostic #    214 "GM_PsiY " exists
 Computing Diagnostic #   214 "GM_PsiY " (list#  1) Parms "VV      LR      ", Count=      10
             Vector  Mate for "GM_PsiY " :  Diagnostic #    213 "GM_PsiX " exists
 EXTERNAL_FIELDS_LOAD,      1660 : iP,iLd,i0,i1=    7    8    7    8 ; Wght=  0.1666666667  0.8333333333
 cg2d: Sum(rhs),rhsMax =  -5.68434188608080E-13  5.56121257703970E+00
 EXTERNAL_FIELDS_LOAD,      1661 : iP,iLd,i0,i1=    7    8    7    8 ; Wght=  0.1333333333  0.8666666667
 cg2d: Sum(rhs),rhsMax =  -4.54747350886464E-13  5.56284145267622E+00
 EXTERNAL_FIELDS_LOAD,      1662 : iP,iLd,i0,i1=    7    8    7    8 ; Wght=  0.1000000000  0.9000000000
 cg2d: Sum(rhs),rhsMax =  -1.42108547152020E-13  5.56457487464105E+00
 EXTERNAL_FIELDS_LOAD,      1663 : iP,iLd,i0,i1=    7    8    7    8 ; Wght=  0.0666666667  0.9333333333
 cg2d: Sum(rhs),rhsMax =  -3.41060513164848E-13  5.56641931022134E+00
 EXTERNAL_FIELDS_LOAD,      1664 : iP,iLd,i0,i1=    7    8    7    8 ; Wght=  0.0333333333  0.9666666667
 cg2d: Sum(rhs),rhsMax =  -3.69482222595252E-13  5.56836554523701E+00
 EXTERNAL_FIELDS_LOAD,      1665 : iP,iLd,i0,i1=    7    8    8    9 ; Wght=  1.0000000000  0.0000000000
 EXTERNAL_FIELDS_LOAD, it=      1665 : Reading new data, i0,i1=    8    9 (prev=    7    8 )
(PID.TID 0000.0001)  MDS_READ_FIELD: opening global file: trenberth_taux.bin
(PID.TID 0000.0001)  MDS_READ_FIELD: opening global file: trenberth_taux.bin
(PID.TID 0000.0001)  MDS_READ_FIELD: opening global file: trenberth_tauy.bin
(PID.TID 0000.0001)  MDS_READ_FIELD: opening global file: trenberth_tauy.bin
(PID.TID 0000.0001)  MDS_READ_FIELD: opening global file: shiQnet_cs32.bin
(PID.TID 0000.0001)  MDS_READ_FIELD: opening global file: shiQnet_cs32.bin
(PID.TID 0000.0001)  MDS_READ_FIELD: opening global file: shiEmPR_cs32.bin
(PID.TID 0000.0001)  MDS_READ_FIELD: opening global file: shiEmPR_cs32.bin
(PID.TID 0000.0001)  MDS_READ_FIELD: opening global file: lev_surfT_cs_12m.bin
(PID.TID 0000.0001)  MDS_READ_FIELD: opening global file: lev_surfT_cs_12m.bin
(PID.TID 0000.0001)  MDS_READ_FIELD: opening global file: lev_surfS_cs_12m.bin
(PID.TID 0000.0001)  MDS_READ_FIELD: opening global file: lev_surfS_cs_12m.bin
 cg2d: Sum(rhs),rhsMax =  -2.55795384873636E-13  5.57041546855820E+00
 Compute Stats, Diag. #    23 "ETAN    " (list#  1) Parms "SM      M1      ", vol(  0 )= 3.639E+14
 Compute Stats, Diag. #    30 "UVEL    " (list#  1) Parms "UUR     MR      ", vol(  0 )= 1.231E+18
 Compute Stats, Diag. #    31 "VVEL    " (list#  1) Parms "VVR     MR      ", vol(  0 )= 1.243E+18
 Compute Stats, Diag. #    32 "WVEL    " (list#  1) Parms "WM      LR      ", vol(  0 )= 1.315E+18
 Compute Stats, Diag. #    26 "THETA   " (list#  1) Parms "SMR     MR      ", vol(  0 )= 1.340E+18
 EXTERNAL_FIELDS_LOAD,      1666 : iP,iLd,i0,i1=    8    9    8    9 ; Wght=  0.9666666667  0.0333333333
 cg2d: Sum(rhs),rhsMax =  -1.98951966012828E-13  5.57251904771843E+00
 EXTERNAL_FIELDS_LOAD,      1667 : iP,iLd,i0,i1=    8    9    8    9 ; Wght=  0.9333333333  0.0666666667
 cg2d: Sum(rhs),rhsMax =  -3.12638803734444E-13  5.57467971400821E+00
 EXTERNAL_FIELDS_LOAD,      1668 : iP,iLd,i0,i1=    8    9    8    9 ; Wght=  0.9000000000  0.1000000000
 cg2d: Sum(rhs),rhsMax =  -3.41060513164848E-13  5.57691510462234E+00
 EXTERNAL_FIELDS_LOAD,      1669 : iP,iLd,i0,i1=    8    9    8    9 ; Wght=  0.8666666667  0.1333333333
 cg2d: Sum(rhs),rhsMax =  -2.27373675443232E-13  5.57921313009337E+00
 Computing Diagnostic #    79 "DRHODR  " (list#  1) Parms "SM      LR      ", Count=      10
 Computing Diagnostic #    64 "RHOAnoma" (list#  1) Parms "SMR     MR      ", Count=      10
 Computing Diagnostic #    80 "CONVADJ " (list#  1) Parms "SMR     LR      ", Count=      10
 Computing Diagnostic #   210 "GM_Kwx  " (list#  1) Parms "UM      LR      ", Count=      10
             Vector  Mate for "GM_Kwx  " :  Diagnostic #    211 "GM_Kwy  " exists
 Computing Diagnostic #   211 "GM_Kwy  " (list#  1) Parms "VM      LR      ", Count=      10
             Vector  Mate for "GM_Kwy  " :  Diagnostic #    210 "GM_Kwx  " exists
 Computing Diagnostic #   212 "GM_Kwz  " (list#  1) Parms "WM P    LR      ", Count=      10
 Computing Diagnostic #   213 "GM_PsiX " (list#  1) Parms "UU      LR      ", Count=      10
             Vector  Mate for "GM_PsiX " :  Diagnostic #    214 "GM_PsiY " exists
 Computing Diagnostic #   214 "GM_PsiY " (list#  1) Parms "VV      LR      ", Count=      10
             Vector  Mate for "GM_PsiY " :  Diagnostic #    213 "GM_PsiX " exists
 EXTERNAL_FIELDS_LOAD,      1670 : iP,iLd,i0,i1=    8    9    8    9 ; Wght=  0.8333333333  0.1666666667
 cg2d: Sum(rhs),rhsMax =  -1.70530256582424E-13  5.58155653277536E+00
 EXTERNAL_FIELDS_LOAD,      1671 : iP,iLd,i0,i1=    8    9    8    9 ; Wght=  0.8000000000  0.2000000000
 cg2d: Sum(rhs),rhsMax =  -2.84217094304040E-13  5.58393121955492E+00
 EXTERNAL_FIELDS_LOAD,      1672 : iP,iLd,i0,i1=    8    9    8    9 ; Wght=  0.7666666667  0.2333333333
 cg2d: Sum(rhs),rhsMax =  -8.52651282912120E-14  5.58631913418026E+00
 EXTERNAL_FIELDS_LOAD,      1673 : iP,iLd,i0,i1=    8    9    8    9 ; Wght=  0.7333333333  0.2666666667
 cg2d: Sum(rhs),rhsMax =  -1.42108547152020E-13  5.58869734837395E+00
 EXTERNAL_FIELDS_LOAD,      1674 : iP,iLd,i0,i1=    8    9    8    9 ; Wght=  0.7000000000  0.3000000000
 cg2d: Sum(rhs),rhsMax =  -2.27373675443232E-13  5.59105335181785E+00
 EXTERNAL_FIELDS_LOAD,      1675 : iP,iLd,i0,i1=    8    9    8    9 ; Wght=  0.6666666667  0.3333333333
 cg2d: Sum(rhs),rhsMax =   0.00000000000000E+00  5.59336182835054E+00
 Compute Stats, Diag. #    23 "ETAN    " (list#  1) Parms "SM      M1      ", vol(  0 )= 3.639E+14
 Compute Stats, Diag. #    30 "UVEL    " (list#  1) Parms "UUR     MR      ", vol(  0 )= 1.231E+18
 Compute Stats, Diag. #    31 "VVEL    " (list#  1) Parms "VVR     MR      ", vol(  0 )= 1.243E+18
 Compute Stats, Diag. #    32 "WVEL    " (list#  1) Parms "WM      LR      ", vol(  0 )= 1.315E+18
 Compute Stats, Diag. #    26 "THETA   " (list#  1) Parms "SMR     MR      ", vol(  0 )= 1.340E+18
 EXTERNAL_FIELDS_LOAD,      1676 : iP,iLd,i0,i1=    8    9    8    9 ; Wght=  0.6333333333  0.3666666667
 cg2d: Sum(rhs),rhsMax =  -2.84217094304040E-13  5.59561204885458E+00
 EXTERNAL_FIELDS_LOAD,      1677 : iP,iLd,i0,i1=    8    9    8    9 ; Wght=  0.6000000000  0.4000000000
 cg2d: Sum(rhs),rhsMax =  -2.27373675443232E-13  5.59777864806287E+00
 EXTERNAL_FIELDS_LOAD,      1678 : iP,iLd,i0,i1=    8    9    8    9 ; Wght=  0.5666666667  0.4333333333
 cg2d: Sum(rhs),rhsMax =  -1.98951966012828E-13  5.59985425191995E+00
 EXTERNAL_FIELDS_LOAD,      1679 : iP,iLd,i0,i1=    8    9    8    9 ; Wght=  0.5333333333  0.4666666667
 cg2d: Sum(rhs),rhsMax =   0.00000000000000E+00  5.60181536638438E+00
(PID.TID 0000.0001)      cg2d_init_res =   1.55005104057935E-01
(PID.TID 0000.0001)      cg2d_iters(min,last) =      -1      57
(PID.TID 0000.0001)      cg2d_last_res =   5.46078685868073E-07
(PID.TID 0000.0001) // =======================================================
(PID.TID 0000.0001) // Begin MONITOR dynamic field statistics
(PID.TID 0000.0001) // =======================================================
(PID.TID 0000.0001) %MON time_tsnumber                =                  1680
(PID.TID 0000.0001) %MON time_secondsf                =   1.4515200000000E+08
(PID.TID 0000.0001) %MON dynstat_eta_max              =   1.0450715887379E+00
(PID.TID 0000.0001) %MON dynstat_eta_min              =  -1.8656081514441E+00
(PID.TID 0000.0001) %MON dynstat_eta_mean             =   3.9847563830696E-16
(PID.TID 0000.0001) %MON dynstat_eta_sd               =   6.3304595134059E-01
(PID.TID 0000.0001) %MON dynstat_eta_del2             =   8.6797670511807E-04
(PID.TID 0000.0001) %MON dynstat_uvel_max             =   4.2147576015261E-01
(PID.TID 0000.0001) %MON dynstat_uvel_min             =  -2.5475275586557E-01
(PID.TID 0000.0001) %MON dynstat_uvel_mean            =  -5.3395183042323E-04
(PID.TID 0000.0001) %MON dynstat_uvel_sd              =   1.3552413154303E-02
(PID.TID 0000.0001) %MON dynstat_uvel_del2            =   5.7824182834702E-05
(PID.TID 0000.0001) %MON dynstat_vvel_max             =   3.5605795243649E-01
(PID.TID 0000.0001) %MON dynstat_vvel_min             =  -2.5364087770701E-01
(PID.TID 0000.0001) %MON dynstat_vvel_mean            =  -4.0848632564238E-04
(PID.TID 0000.0001) %MON dynstat_vvel_sd              =   1.3861870167432E-02
(PID.TID 0000.0001) %MON dynstat_vvel_del2            =   5.7692171736900E-05
(PID.TID 0000.0001) %MON dynstat_wvel_max             =   9.7776142745348E-05
(PID.TID 0000.0001) %MON dynstat_wvel_min             =  -2.0780689450298E-04
(PID.TID 0000.0001) %MON dynstat_wvel_mean            =  -2.4368530660193E-22
(PID.TID 0000.0001) %MON dynstat_wvel_sd              =   4.3364073353374E-06
(PID.TID 0000.0001) %MON dynstat_wvel_del2            =   3.4115218985450E-08
(PID.TID 0000.0001) %MON dynstat_theta_max            =   3.2247585116810E+01
(PID.TID 0000.0001) %MON dynstat_theta_min            =  -7.5933839316796E+00
(PID.TID 0000.0001) %MON dynstat_theta_mean           =   3.6089197132058E+00
(PID.TID 0000.0001) %MON dynstat_theta_sd             =   4.4143806881714E+00
(PID.TID 0000.0001) %MON dynstat_theta_del2           =   3.1696119622976E-03
(PID.TID 0000.0001) %MON dynstat_salt_max             =   4.1326766334259E+01
(PID.TID 0000.0001) %MON dynstat_salt_min             =   1.8700979010750E+01
(PID.TID 0000.0001) %MON dynstat_salt_mean            =   3.4721763844561E+01
(PID.TID 0000.0001) %MON dynstat_salt_sd              =   4.9643667034627E-01
(PID.TID 0000.0001) %MON dynstat_salt_del2            =   9.8953350212950E-04
(PID.TID 0000.0001) %MON forcing_qnet_max             =   2.3762888233198E+02
(PID.TID 0000.0001) %MON forcing_qnet_min             =  -1.4205239650770E+02
(PID.TID 0000.0001) %MON forcing_qnet_mean            =   3.5901723567551E+00
(PID.TID 0000.0001) %MON forcing_qnet_sd              =   5.3668616368277E+01
(PID.TID 0000.0001) %MON forcing_qnet_del2            =   3.8165863800027E-01
(PID.TID 0000.0001) %MON forcing_qsw_max              =   0.0000000000000E+00
(PID.TID 0000.0001) %MON forcing_qsw_min              =   0.0000000000000E+00
(PID.TID 0000.0001) %MON forcing_qsw_mean             =   0.0000000000000E+00
(PID.TID 0000.0001) %MON forcing_qsw_sd               =   0.0000000000000E+00
(PID.TID 0000.0001) %MON forcing_qsw_del2             =   0.0000000000000E+00
(PID.TID 0000.0001) %MON forcing_empmr_max            =   7.6494447208479E-05
(PID.TID 0000.0001) %MON forcing_empmr_min            =  -1.5362614137596E-04
(PID.TID 0000.0001) %MON forcing_empmr_mean           =  -2.7256318706594E-21
(PID.TID 0000.0001) %MON forcing_empmr_sd             =   2.4051723601802E-05
(PID.TID 0000.0001) %MON forcing_empmr_del2           =   1.2276157049243E-07
(PID.TID 0000.0001) %MON forcing_fu_max               =   3.7705416461979E-01
(PID.TID 0000.0001) %MON forcing_fu_min               =  -2.9191218893916E-01
(PID.TID 0000.0001) %MON forcing_fu_mean              =  -4.5636136682750E-03
(PID.TID 0000.0001) %MON forcing_fu_sd                =   8.2258737971817E-02
(PID.TID 0000.0001) %MON forcing_fu_del2              =   2.2845714929796E-04
(PID.TID 0000.0001) %MON forcing_fv_max               =   3.0904070945947E-01
(PID.TID 0000.0001) %MON forcing_fv_min               =  -3.7009336865929E-01
(PID.TID 0000.0001) %MON forcing_fv_mean              =  -6.1537312399580E-03
(PID.TID 0000.0001) %MON forcing_fv_sd                =   7.8247752992835E-02
(PID.TID 0000.0001) %MON forcing_fv_del2              =   2.2910904370404E-04
(PID.TID 0000.0001) %MON trAdv_CFL_u_max              =   1.2267576148817E-01
(PID.TID 0000.0001) %MON trAdv_CFL_v_max              =   1.2042570560354E-01
(PID.TID 0000.0001) %MON trAdv_CFL_w_max              =   1.3109478841498E-01
(PID.TID 0000.0001) %MON advcfl_uvel_max              =   1.2191463882363E-01
(PID.TID 0000.0001) %MON advcfl_vvel_max              =   1.0236092427815E-01
(PID.TID 0000.0001) %MON advcfl_wvel_max              =   6.7752889377574E-02
(PID.TID 0000.0001) %MON advcfl_W_hf_max              =   7.4810482021071E-02
(PID.TID 0000.0001) %MON pe_b_mean                    =   5.3386929562121E-04
(PID.TID 0000.0001) %MON ke_max                       =   8.5889902902073E-02
(PID.TID 0000.0001) %MON ke_mean                      =   1.7373263111431E-04
(PID.TID 0000.0001) %MON ke_vol                       =   1.3398024453628E+18
(PID.TID 0000.0001) %MON vort_r_min                   =  -1.0527869684413E-06
(PID.TID 0000.0001) %MON vort_r_max                   =   2.0483506241255E-06
(PID.TID 0000.0001) %MON vort_a_mean                  =  -2.0549865324846E-05
(PID.TID 0000.0001) %MON vort_a_sd                    =   7.5259626685985E-05
(PID.TID 0000.0001) %MON vort_p_mean                  =  -2.4783522345032E-05
(PID.TID 0000.0001) %MON vort_p_sd                    =   1.2810590706840E-04
(PID.TID 0000.0001) %MON surfExpan_theta_mean         =   5.0656800851319E-08
(PID.TID 0000.0001) %MON surfExpan_salt_mean          =   1.5324454966640E-08
(PID.TID 0000.0001) // =======================================================
(PID.TID 0000.0001) // End MONITOR dynamic field statistics
(PID.TID 0000.0001) // =======================================================
(PID.TID 0000.0001) // =======================================================
(PID.TID 0000.0001) // Begin MONITOR ptracer field statistics
(PID.TID 0000.0001) // =======================================================
(PID.TID 0000.0001) %MON trcstat_ptracer01_max        =   1.4792515674718E+08
(PID.TID 0000.0001) %MON trcstat_ptracer01_min        =  -3.7794137929593E+06
(PID.TID 0000.0001) %MON trcstat_ptracer01_mean       =   1.3936741503533E+08
(PID.TID 0000.0001) %MON trcstat_ptracer01_sd         =   2.2351430859702E+07
(PID.TID 0000.0001) %MON trcstat_ptracer01_del2       =   4.6824816093645E+04
(PID.TID 0000.0001) // =======================================================
(PID.TID 0000.0001) // End MONITOR ptracer field statistics
(PID.TID 0000.0001) // =======================================================
 Computing Diagnostic #    79 "DRHODR  " (list#  1) Parms "SM      LR      ", Count=      10
 Computing Diagnostic #    64 "RHOAnoma" (list#  1) Parms "SMR     MR      ", Count=      10
 Computing Diagnostic #    80 "CONVADJ " (list#  1) Parms "SMR     LR      ", Count=      10
 Computing Diagnostic #   210 "GM_Kwx  " (list#  1) Parms "UM      LR      ", Count=      10
             Vector  Mate for "GM_Kwx  " :  Diagnostic #    211 "GM_Kwy  " exists
 Computing Diagnostic #   211 "GM_Kwy  " (list#  1) Parms "VM      LR      ", Count=      10
             Vector  Mate for "GM_Kwy  " :  Diagnostic #    210 "GM_Kwx  " exists
 Computing Diagnostic #   212 "GM_Kwz  " (list#  1) Parms "WM P    LR      ", Count=      10
 Computing Diagnostic #   213 "GM_PsiX " (list#  1) Parms "UU      LR      ", Count=      10
             Vector  Mate for "GM_PsiX " :  Diagnostic #    214 "GM_PsiY " exists
 Computing Diagnostic #   214 "GM_PsiY " (list#  1) Parms "VV      LR      ", Count=      10
             Vector  Mate for "GM_PsiY " :  Diagnostic #    213 "GM_PsiX " exists
 EXTERNAL_FIELDS_LOAD,      1680 : iP,iLd,i0,i1=    8    9    8    9 ; Wght=  0.5000000000  0.5000000000
 cg2d: Sum(rhs),rhsMax =  -4.54747350886464E-13  5.60365795231102E+00
 EXTERNAL_FIELDS_LOAD,      1681 : iP,iLd,i0,i1=    8    9    8    9 ; Wght=  0.4666666667  0.5333333333
 cg2d: Sum(rhs),rhsMax =  -2.27373675443232E-13  5.60536096557747E+00
 EXTERNAL_FIELDS_LOAD,      1682 : iP,iLd,i0,i1=    8    9    8    9 ; Wght=  0.4333333333  0.5666666667
 cg2d: Sum(rhs),rhsMax =  -1.70530256582424E-13  5.60692336697719E+00
 EXTERNAL_FIELDS_LOAD,      1683 : iP,iLd,i0,i1=    8    9    8    9 ; Wght=  0.4000000000  0.6000000000
 cg2d: Sum(rhs),rhsMax =  -2.84217094304040E-13  5.60832801339599E+00
 EXTERNAL_FIELDS_LOAD,      1684 : iP,iLd,i0,i1=    8    9    8    9 ; Wght=  0.3666666667  0.6333333333
 cg2d: Sum(rhs),rhsMax =  -2.55795384873636E-13  5.60957819842852E+00
 EXTERNAL_FIELDS_LOAD,      1685 : iP,iLd,i0,i1=    8    9    8    9 ; Wght=  0.3333333333  0.6666666667
 cg2d: Sum(rhs),rhsMax =  -2.55795384873636E-13  5.61065911157921E+00
 Compute Stats, Diag. #    23 "ETAN    " (list#  1) Parms "SM      M1      ", vol(  0 )= 3.639E+14
 Compute Stats, Diag. #    30 "UVEL    " (list#  1) Parms "UUR     MR      ", vol(  0 )= 1.231E+18
 Compute Stats, Diag. #    31 "VVEL    " (list#  1) Parms "VVR     MR      ", vol(  0 )= 1.243E+18
 Compute Stats, Diag. #    32 "WVEL    " (list#  1) Parms "WM      LR      ", vol(  0 )= 1.315E+18
 Compute Stats, Diag. #    26 "THETA   " (list#  1) Parms "SMR     MR      ", vol(  0 )= 1.340E+18
 EXTERNAL_FIELDS_LOAD,      1686 : iP,iLd,i0,i1=    8    9    8    9 ; Wght=  0.3000000000  0.7000000000
 cg2d: Sum(rhs),rhsMax =  -5.40012479177676E-13  5.61157729655267E+00
 EXTERNAL_FIELDS_LOAD,      1687 : iP,iLd,i0,i1=    8    9    8    9 ; Wght=  0.2666666667  0.7333333333
 cg2d: Sum(rhs),rhsMax =  -3.97903932025656E-13  5.61232353020659E+00
 EXTERNAL_FIELDS_LOAD,      1688 : iP,iLd,i0,i1=    8    9    8    9 ; Wght=  0.2333333333  0.7666666667
 cg2d: Sum(rhs),rhsMax =  -4.26325641456060E-13  5.61290875836233E+00
 EXTERNAL_FIELDS_LOAD,      1689 : iP,iLd,i0,i1=    8    9    8    9 ; Wght=  0.2000000000  0.8000000000
 cg2d: Sum(rhs),rhsMax =  -3.69482222595252E-13  5.61332946874179E+00
 Computing Diagnostic #    79 "DRHODR  " (list#  1) Parms "SM      LR      ", Count=      10
 Computing Diagnostic #    64 "RHOAnoma" (list#  1) Parms "SMR     MR      ", Count=      10
 Computing Diagnostic #    80 "CONVADJ " (list#  1) Parms "SMR     LR      ", Count=      10
 Computing Diagnostic #   210 "GM_Kwx  " (list#  1) Parms "UM      LR      ", Count=      10
             Vector  Mate for "GM_Kwx  " :  Diagnostic #    211 "GM_Kwy  " exists
 Computing Diagnostic #   211 "GM_Kwy  " (list#  1) Parms "VM      LR      ", Count=      10
             Vector  Mate for "GM_Kwy  " :  Diagnostic #    210 "GM_Kwx  " exists
 Computing Diagnostic #   212 "GM_Kwz  " (list#  1) Parms "WM P    LR      ", Count=      10
 Computing Diagnostic #   213 "GM_PsiX " (list#  1) Parms "UU      LR      ", Count=      10
             Vector  Mate for "GM_PsiX " :  Diagnostic #    214 "GM_PsiY " exists
 Computing Diagnostic #   214 "GM_PsiY " (list#  1) Parms "VV      LR      ", Count=      10
             Vector  Mate for "GM_PsiY " :  Diagnostic #    213 "GM_PsiX " exists
 EXTERNAL_FIELDS_LOAD,      1690 : iP,iLd,i0,i1=    8    9    8    9 ; Wght=  0.1666666667  0.8333333333
 cg2d: Sum(rhs),rhsMax =  -1.98951966012828E-13  5.61360017089810E+00
 EXTERNAL_FIELDS_LOAD,      1691 : iP,iLd,i0,i1=    8    9    8    9 ; Wght=  0.1333333333  0.8666666667
 cg2d: Sum(rhs),rhsMax =  -3.69482222595252E-13  5.61372200739692E+00
 EXTERNAL_FIELDS_LOAD,      1692 : iP,iLd,i0,i1=    8    9    8    9 ; Wght=  0.1000000000  0.9000000000
 cg2d: Sum(rhs),rhsMax =  -1.98951966012828E-13  5.61371445002903E+00
 EXTERNAL_FIELDS_LOAD,      1693 : iP,iLd,i0,i1=    8    9    8    9 ; Wght=  0.0666666667  0.9333333333
 cg2d: Sum(rhs),rhsMax =  -6.53699316899292E-13  5.61358430487195E+00
 EXTERNAL_FIELDS_LOAD,      1694 : iP,iLd,i0,i1=    8    9    8    9 ; Wght=  0.0333333333  0.9666666667
 cg2d: Sum(rhs),rhsMax =  -4.26325641456060E-13  5.61335014263142E+00
 EXTERNAL_FIELDS_LOAD,      1695 : iP,iLd,i0,i1=    8    9    9   10 ; Wght=  1.0000000000  0.0000000000
 EXTERNAL_FIELDS_LOAD, it=      1695 : Reading new data, i0,i1=    9   10 (prev=    8    9 )
(PID.TID 0000.0001)  MDS_READ_FIELD: opening global file: trenberth_taux.bin
(PID.TID 0000.0001)  MDS_READ_FIELD: opening global file: trenberth_taux.bin
(PID.TID 0000.0001)  MDS_READ_FIELD: opening global file: trenberth_tauy.bin
(PID.TID 0000.0001)  MDS_READ_FIELD: opening global file: trenberth_tauy.bin
(PID.TID 0000.0001)  MDS_READ_FIELD: opening global file: shiQnet_cs32.bin
(PID.TID 0000.0001)  MDS_READ_FIELD: opening global file: shiQnet_cs32.bin
(PID.TID 0000.0001)  MDS_READ_FIELD: opening global file: shiEmPR_cs32.bin
(PID.TID 0000.0001)  MDS_READ_FIELD: opening global file: shiEmPR_cs32.bin
(PID.TID 0000.0001)  MDS_READ_FIELD: opening global file: lev_surfT_cs_12m.bin
(PID.TID 0000.0001)  MDS_READ_FIELD: opening global file: lev_surfT_cs_12m.bin
(PID.TID 0000.0001)  MDS_READ_FIELD: opening global file: lev_surfS_cs_12m.bin
(PID.TID 0000.0001)  MDS_READ_FIELD: opening global file: lev_surfS_cs_12m.bin
 cg2d: Sum(rhs),rhsMax =  -3.41060513164848E-13  5.61302279718075E+00
 Compute Stats, Diag. #    23 "ETAN    " (list#  1) Parms "SM      M1      ", vol(  0 )= 3.639E+14
 Compute Stats, Diag. #    30 "UVEL    " (list#  1) Parms "UUR     MR      ", vol(  0 )= 1.231E+18
 Compute Stats, Diag. #    31 "VVEL    " (list#  1) Parms "VVR     MR      ", vol(  0 )= 1.243E+18
 Compute Stats, Diag. #    32 "WVEL    " (list#  1) Parms "WM      LR      ", vol(  0 )= 1.315E+18
 Compute Stats, Diag. #    26 "THETA   " (list#  1) Parms "SMR     MR      ", vol(  0 )= 1.340E+18
 EXTERNAL_FIELDS_LOAD,      1696 : iP,iLd,i0,i1=    9   10    9   10 ; Wght=  0.9666666667  0.0333333333
 cg2d: Sum(rhs),rhsMax =  -5.40012479177676E-13  5.61273625690626E+00
 EXTERNAL_FIELDS_LOAD,      1697 : iP,iLd,i0,i1=    9   10    9   10 ; Wght=  0.9333333333  0.0666666667
 cg2d: Sum(rhs),rhsMax =  -3.97903932025656E-13  5.61238805899264E+00
 EXTERNAL_FIELDS_LOAD,      1698 : iP,iLd,i0,i1=    9   10    9   10 ; Wght=  0.9000000000  0.1000000000
 cg2d: Sum(rhs),rhsMax =  -4.26325641456060E-13  5.61201494205084E+00
 EXTERNAL_FIELDS_LOAD,      1699 : iP,iLd,i0,i1=    9   10    9   10 ; Wght=  0.8666666667  0.1333333333
 cg2d: Sum(rhs),rhsMax =  -5.11590769747272E-13  5.61164864667800E+00
 Computing Diagnostic #    79 "DRHODR  " (list#  1) Parms "SM      LR      ", Count=      10
 Computing Diagnostic #    64 "RHOAnoma" (list#  1) Parms "SMR     MR      ", Count=      10
 Computing Diagnostic #    80 "CONVADJ " (list#  1) Parms "SMR     LR      ", Count=      10
 Computing Diagnostic #   210 "GM_Kwx  " (list#  1) Parms "UM      LR      ", Count=      10
             Vector  Mate for "GM_Kwx  " :  Diagnostic #    211 "GM_Kwy  " exists
 Computing Diagnostic #   211 "GM_Kwy  " (list#  1) Parms "VM      LR      ", Count=      10
             Vector  Mate for "GM_Kwy  " :  Diagnostic #    210 "GM_Kwx  " exists
 Computing Diagnostic #   212 "GM_Kwz  " (list#  1) Parms "WM P    LR      ", Count=      10
 Computing Diagnostic #   213 "GM_PsiX " (list#  1) Parms "UU      LR      ", Count=      10
             Vector  Mate for "GM_PsiX " :  Diagnostic #    214 "GM_PsiY " exists
 Computing Diagnostic #   214 "GM_PsiY " (list#  1) Parms "VV      LR      ", Count=      10
             Vector  Mate for "GM_PsiY " :  Diagnostic #    213 "GM_PsiX " exists
 EXTERNAL_FIELDS_LOAD,      1700 : iP,iLd,i0,i1=    9   10    9   10 ; Wght=  0.8333333333  0.1666666667
 cg2d: Sum(rhs),rhsMax =  -4.83169060316868E-13  5.61131440739170E+00
 EXTERNAL_FIELDS_LOAD,      1701 : iP,iLd,i0,i1=    9   10    9   10 ; Wght=  0.8000000000  0.2000000000
 cg2d: Sum(rhs),rhsMax =  -2.55795384873636E-13  5.61103374288667E+00
 EXTERNAL_FIELDS_LOAD,      1702 : iP,iLd,i0,i1=    9   10    9   10 ; Wght=  0.7666666667  0.2333333333
 cg2d: Sum(rhs),rhsMax =  -4.54747350886464E-13  5.61083652760456E+00
 EXTERNAL_FIELDS_LOAD,      1703 : iP,iLd,i0,i1=    9   10    9   10 ; Wght=  0.7333333333  0.2666666667
 cg2d: Sum(rhs),rhsMax =  -2.55795384873636E-13  5.61074106817525E+00
 EXTERNAL_FIELDS_LOAD,      1704 : iP,iLd,i0,i1=    9   10    9   10 ; Wght=  0.7000000000  0.3000000000
 cg2d: Sum(rhs),rhsMax =  -1.70530256582424E-13  5.61076863170703E+00
 EXTERNAL_FIELDS_LOAD,      1705 : iP,iLd,i0,i1=    9   10    9   10 ; Wght=  0.6666666667  0.3333333333
 cg2d: Sum(rhs),rhsMax =  -3.97903932025656E-13  5.61093639143173E+00
 Compute Stats, Diag. #    23 "ETAN    " (list#  1) Parms "SM      M1      ", vol(  0 )= 3.639E+14
 Compute Stats, Diag. #    30 "UVEL    " (list#  1) Parms "UUR     MR      ", vol(  0 )= 1.231E+18
 Compute Stats, Diag. #    31 "VVEL    " (list#  1) Parms "VVR     MR      ", vol(  0 )= 1.243E+18
 Compute Stats, Diag. #    32 "WVEL    " (list#  1) Parms "WM      LR      ", vol(  0 )= 1.315E+18
 Compute Stats, Diag. #    26 "THETA   " (list#  1) Parms "SMR     MR      ", vol(  0 )= 1.340E+18
 EXTERNAL_FIELDS_LOAD,      1706 : iP,iLd,i0,i1=    9   10    9   10 ; Wght=  0.6333333333  0.3666666667
 cg2d: Sum(rhs),rhsMax =  -5.68434188608080E-13  5.61125867055986E+00
 EXTERNAL_FIELDS_LOAD,      1707 : iP,iLd,i0,i1=    9   10    9   10 ; Wght=  0.6000000000  0.4000000000
 cg2d: Sum(rhs),rhsMax =  -6.53699316899292E-13  5.61174523501713E+00
 EXTERNAL_FIELDS_LOAD,      1708 : iP,iLd,i0,i1=    9   10    9   10 ; Wght=  0.5666666667  0.4333333333
 cg2d: Sum(rhs),rhsMax =  -4.54747350886464E-13  5.61240328573942E+00
 EXTERNAL_FIELDS_LOAD,      1709 : iP,iLd,i0,i1=    9   10    9   10 ; Wght=  0.5333333333  0.4666666667
 cg2d: Sum(rhs),rhsMax =  -4.54747350886464E-13  5.61324559894844E+00
(PID.TID 0000.0001)      cg2d_init_res =   1.47632672009021E-01
(PID.TID 0000.0001)      cg2d_iters(min,last) =      -1      59
(PID.TID 0000.0001)      cg2d_last_res =   5.69278889109823E-07
(PID.TID 0000.0001) // =======================================================
(PID.TID 0000.0001) // Begin MONITOR dynamic field statistics
(PID.TID 0000.0001) // =======================================================
(PID.TID 0000.0001) %MON time_tsnumber                =                  1710
(PID.TID 0000.0001) %MON time_secondsf                =   1.4774400000000E+08
(PID.TID 0000.0001) %MON dynstat_eta_max              =   1.0489301498126E+00
(PID.TID 0000.0001) %MON dynstat_eta_min              =  -1.8638025319155E+00
(PID.TID 0000.0001) %MON dynstat_eta_mean             =   4.5343779531481E-16
(PID.TID 0000.0001) %MON dynstat_eta_sd               =   6.3401355671645E-01
(PID.TID 0000.0001) %MON dynstat_eta_del2             =   8.6461824478272E-04
(PID.TID 0000.0001) %MON dynstat_uvel_max             =   2.8326368886834E-01
(PID.TID 0000.0001) %MON dynstat_uvel_min             =  -2.6877521273199E-01
(PID.TID 0000.0001) %MON dynstat_uvel_mean            =  -5.2722829027397E-04
(PID.TID 0000.0001) %MON dynstat_uvel_sd              =   1.3342151196737E-02
(PID.TID 0000.0001) %MON dynstat_uvel_del2            =   5.8216950055371E-05
(PID.TID 0000.0001) %MON dynstat_vvel_max             =   3.1499267344502E-01
(PID.TID 0000.0001) %MON dynstat_vvel_min             =  -2.6205152037325E-01
(PID.TID 0000.0001) %MON dynstat_vvel_mean            =  -4.0506745649796E-04
(PID.TID 0000.0001) %MON dynstat_vvel_sd              =   1.3910022169136E-02
(PID.TID 0000.0001) %MON dynstat_vvel_del2            =   5.8155020045428E-05
(PID.TID 0000.0001) %MON dynstat_wvel_max             =   9.3263737582017E-05
(PID.TID 0000.0001) %MON dynstat_wvel_min             =  -2.0783087552648E-04
(PID.TID 0000.0001) %MON dynstat_wvel_mean            =   1.5375382440360E-22
(PID.TID 0000.0001) %MON dynstat_wvel_sd              =   4.2791100991202E-06
(PID.TID 0000.0001) %MON dynstat_wvel_del2            =   3.4708449716538E-08
(PID.TID 0000.0001) %MON dynstat_theta_max            =   3.2408665389216E+01
(PID.TID 0000.0001) %MON dynstat_theta_min            =  -7.5519854621141E+00
(PID.TID 0000.0001) %MON dynstat_theta_mean           =   3.6096071439947E+00
(PID.TID 0000.0001) %MON dynstat_theta_sd             =   4.4193951316189E+00
(PID.TID 0000.0001) %MON dynstat_theta_del2           =   3.1660870795079E-03
(PID.TID 0000.0001) %MON dynstat_salt_max             =   4.1322158750956E+01
(PID.TID 0000.0001) %MON dynstat_salt_min             =   1.8695428819867E+01
(PID.TID 0000.0001) %MON dynstat_salt_mean            =   3.4721762849948E+01
(PID.TID 0000.0001) %MON dynstat_salt_sd              =   4.9660862979393E-01
(PID.TID 0000.0001) %MON dynstat_salt_del2            =   9.8599581185379E-04
(PID.TID 0000.0001) %MON forcing_qnet_max             =   1.7226335228087E+02
(PID.TID 0000.0001) %MON forcing_qnet_min             =  -1.2167347573012E+02
(PID.TID 0000.0001) %MON forcing_qnet_mean            =  -5.4581290897012E+00
(PID.TID 0000.0001) %MON forcing_qnet_sd              =   4.6003165005274E+01
(PID.TID 0000.0001) %MON forcing_qnet_del2            =   3.6665444476665E-01
(PID.TID 0000.0001) %MON forcing_qsw_max              =   0.0000000000000E+00
(PID.TID 0000.0001) %MON forcing_qsw_min              =   0.0000000000000E+00
(PID.TID 0000.0001) %MON forcing_qsw_mean             =   0.0000000000000E+00
(PID.TID 0000.0001) %MON forcing_qsw_sd               =   0.0000000000000E+00
(PID.TID 0000.0001) %MON forcing_qsw_del2             =   0.0000000000000E+00
(PID.TID 0000.0001) %MON forcing_empmr_max            =   7.6494447208479E-05
(PID.TID 0000.0001) %MON forcing_empmr_min            =  -1.5362614137596E-04
(PID.TID 0000.0001) %MON forcing_empmr_mean           =  -2.7256318706594E-21
(PID.TID 0000.0001) %MON forcing_empmr_sd             =   2.4051723601802E-05
(PID.TID 0000.0001) %MON forcing_empmr_del2           =   1.2276157049243E-07
(PID.TID 0000.0001) %MON forcing_fu_max               =   3.2743992123322E-01
(PID.TID 0000.0001) %MON forcing_fu_min               =  -2.8385275945570E-01
(PID.TID 0000.0001) %MON forcing_fu_mean              =  -4.6229742049373E-03
(PID.TID 0000.0001) %MON forcing_fu_sd                =   7.7186806088874E-02
(PID.TID 0000.0001) %MON forcing_fu_del2              =   2.0806739202098E-04
(PID.TID 0000.0001) %MON forcing_fv_max               =   2.4905121089957E-01
(PID.TID 0000.0001) %MON forcing_fv_min               =  -3.3699518760212E-01
(PID.TID 0000.0001) %MON forcing_fv_mean              =  -8.2032430591580E-03
(PID.TID 0000.0001) %MON forcing_fv_sd                =   7.5566589024491E-02
(PID.TID 0000.0001) %MON forcing_fv_del2              =   2.1186363648930E-04
(PID.TID 0000.0001) %MON trAdv_CFL_u_max              =   8.1252300550021E-02
(PID.TID 0000.0001) %MON trAdv_CFL_v_max              =   9.0378620420404E-02
(PID.TID 0000.0001) %MON trAdv_CFL_w_max              =   7.9632668862043E-02
(PID.TID 0000.0001) %MON advcfl_uvel_max              =   8.2426744429858E-02
(PID.TID 0000.0001) %MON advcfl_vvel_max              =   9.0555318239740E-02
(PID.TID 0000.0001) %MON advcfl_wvel_max              =   6.7760708096181E-02
(PID.TID 0000.0001) %MON advcfl_W_hf_max              =   7.4819115189534E-02
(PID.TID 0000.0001) %MON pe_b_mean                    =   5.3550257228766E-04
(PID.TID 0000.0001) %MON ke_max                       =   6.6028197445015E-02
(PID.TID 0000.0001) %MON ke_mean                      =   1.7175058717677E-04
(PID.TID 0000.0001) %MON ke_vol                       =   1.3398024453628E+18
(PID.TID 0000.0001) %MON vort_r_min                   =  -1.0342728575570E-06
(PID.TID 0000.0001) %MON vort_r_max                   =   1.8697297107986E-06
(PID.TID 0000.0001) %MON vort_a_mean                  =  -2.0549865324846E-05
(PID.TID 0000.0001) %MON vort_a_sd                    =   7.5259629501520E-05
(PID.TID 0000.0001) %MON vort_p_mean                  =  -2.4783522345032E-05
(PID.TID 0000.0001) %MON vort_p_sd                    =   1.2810593209730E-04
(PID.TID 0000.0001) %MON surfExpan_theta_mean         =   4.7654464401922E-08
(PID.TID 0000.0001) %MON surfExpan_salt_mean          =   1.6056281647196E-08
(PID.TID 0000.0001) // =======================================================
(PID.TID 0000.0001) // End MONITOR dynamic field statistics
(PID.TID 0000.0001) // =======================================================
(PID.TID 0000.0001) // =======================================================
(PID.TID 0000.0001) // Begin MONITOR ptracer field statistics
(PID.TID 0000.0001) // =======================================================
(PID.TID 0000.0001) %MON trcstat_ptracer01_max        =   1.5066037702707E+08
(PID.TID 0000.0001) %MON trcstat_ptracer01_min        =  -3.6163705729529E+06
(PID.TID 0000.0001) %MON trcstat_ptracer01_mean       =   1.4176086083236E+08
(PID.TID 0000.0001) %MON trcstat_ptracer01_sd         =   2.2970111061509E+07
(PID.TID 0000.0001) %MON trcstat_ptracer01_del2       =   4.7281787626957E+04
(PID.TID 0000.0001) // =======================================================
(PID.TID 0000.0001) // End MONITOR ptracer field statistics
(PID.TID 0000.0001) // =======================================================
 Computing Diagnostic #    79 "DRHODR  " (list#  1) Parms "SM      LR      ", Count=      10
 Computing Diagnostic #    64 "RHOAnoma" (list#  1) Parms "SMR     MR      ", Count=      10
 Computing Diagnostic #    80 "CONVADJ " (list#  1) Parms "SMR     LR      ", Count=      10
 Computing Diagnostic #   210 "GM_Kwx  " (list#  1) Parms "UM      LR      ", Count=      10
             Vector  Mate for "GM_Kwx  " :  Diagnostic #    211 "GM_Kwy  " exists
 Computing Diagnostic #   211 "GM_Kwy  " (list#  1) Parms "VM      LR      ", Count=      10
             Vector  Mate for "GM_Kwy  " :  Diagnostic #    210 "GM_Kwx  " exists
 Computing Diagnostic #   212 "GM_Kwz  " (list#  1) Parms "WM P    LR      ", Count=      10
 Computing Diagnostic #   213 "GM_PsiX " (list#  1) Parms "UU      LR      ", Count=      10
             Vector  Mate for "GM_PsiX " :  Diagnostic #    214 "GM_PsiY " exists
 Computing Diagnostic #   214 "GM_PsiY " (list#  1) Parms "VV      LR      ", Count=      10
             Vector  Mate for "GM_PsiY " :  Diagnostic #    213 "GM_PsiX " exists
 EXTERNAL_FIELDS_LOAD,      1710 : iP,iLd,i0,i1=    9   10    9   10 ; Wght=  0.5000000000  0.5000000000
 cg2d: Sum(rhs),rhsMax =  -4.26325641456060E-13  5.61426737054932E+00
 EXTERNAL_FIELDS_LOAD,      1711 : iP,iLd,i0,i1=    9   10    9   10 ; Wght=  0.4666666667  0.5333333333
 cg2d: Sum(rhs),rhsMax =   5.68434188608080E-14  5.61546992135340E+00
 EXTERNAL_FIELDS_LOAD,      1712 : iP,iLd,i0,i1=    9   10    9   10 ; Wght=  0.4333333333  0.5666666667
 cg2d: Sum(rhs),rhsMax =  -3.69482222595252E-13  5.61684592687830E+00
 EXTERNAL_FIELDS_LOAD,      1713 : iP,iLd,i0,i1=    9   10    9   10 ; Wght=  0.4000000000  0.6000000000
 cg2d: Sum(rhs),rhsMax =  -4.54747350886464E-13  5.61838765068310E+00
 EXTERNAL_FIELDS_LOAD,      1714 : iP,iLd,i0,i1=    9   10    9   10 ; Wght=  0.3666666667  0.6333333333
 cg2d: Sum(rhs),rhsMax =  -8.52651282912120E-14  5.62008333639237E+00
 EXTERNAL_FIELDS_LOAD,      1715 : iP,iLd,i0,i1=    9   10    9   10 ; Wght=  0.3333333333  0.6666666667
 cg2d: Sum(rhs),rhsMax =  -8.52651282912120E-14  5.62191907100518E+00
 Compute Stats, Diag. #    23 "ETAN    " (list#  1) Parms "SM      M1      ", vol(  0 )= 3.639E+14
 Compute Stats, Diag. #    30 "UVEL    " (list#  1) Parms "UUR     MR      ", vol(  0 )= 1.231E+18
 Compute Stats, Diag. #    31 "VVEL    " (list#  1) Parms "VVR     MR      ", vol(  0 )= 1.243E+18
 Compute Stats, Diag. #    32 "WVEL    " (list#  1) Parms "WM      LR      ", vol(  0 )= 1.315E+18
 Compute Stats, Diag. #    26 "THETA   " (list#  1) Parms "SMR     MR      ", vol(  0 )= 1.340E+18
 EXTERNAL_FIELDS_LOAD,      1716 : iP,iLd,i0,i1=    9   10    9   10 ; Wght=  0.3000000000  0.7000000000
 cg2d: Sum(rhs),rhsMax =  -5.96855898038484E-13  5.62387835704863E+00
 EXTERNAL_FIELDS_LOAD,      1717 : iP,iLd,i0,i1=    9   10    9   10 ; Wght=  0.2666666667  0.7333333333
 cg2d: Sum(rhs),rhsMax =  -3.69482222595252E-13  5.62594272666499E+00
 EXTERNAL_FIELDS_LOAD,      1718 : iP,iLd,i0,i1=    9   10    9   10 ; Wght=  0.2333333333  0.7666666667
 cg2d: Sum(rhs),rhsMax =  -1.98951966012828E-13  5.62809189620545E+00
 EXTERNAL_FIELDS_LOAD,      1719 : iP,iLd,i0,i1=    9   10    9   10 ; Wght=  0.2000000000  0.8000000000
 cg2d: Sum(rhs),rhsMax =  -3.69482222595252E-13  5.63030438739623E+00
 Computing Diagnostic #    79 "DRHODR  " (list#  1) Parms "SM      LR      ", Count=      10
 Computing Diagnostic #    64 "RHOAnoma" (list#  1) Parms "SMR     MR      ", Count=      10
 Computing Diagnostic #    80 "CONVADJ " (list#  1) Parms "SMR     LR      ", Count=      10
 Computing Diagnostic #   210 "GM_Kwx  " (list#  1) Parms "UM      LR      ", Count=      10
             Vector  Mate for "GM_Kwx  " :  Diagnostic #    211 "GM_Kwy  " exists
 Computing Diagnostic #   211 "GM_Kwy  " (list#  1) Parms "VM      LR      ", Count=      10
             Vector  Mate for "GM_Kwy  " :  Diagnostic #    210 "GM_Kwx  " exists
 Computing Diagnostic #   212 "GM_Kwz  " (list#  1) Parms "WM P    LR      ", Count=      10
 Computing Diagnostic #   213 "GM_PsiX " (list#  1) Parms "UU      LR      ", Count=      10
             Vector  Mate for "GM_PsiX " :  Diagnostic #    214 "GM_PsiY " exists
 Computing Diagnostic #   214 "GM_PsiY " (list#  1) Parms "VV      LR      ", Count=      10
             Vector  Mate for "GM_PsiY " :  Diagnostic #    213 "GM_PsiX " exists
 EXTERNAL_FIELDS_LOAD,      1720 : iP,iLd,i0,i1=    9   10    9   10 ; Wght=  0.1666666667  0.8333333333
 cg2d: Sum(rhs),rhsMax =  -1.70530256582424E-13  5.63255793340705E+00
 EXTERNAL_FIELDS_LOAD,      1721 : iP,iLd,i0,i1=    9   10    9   10 ; Wght=  0.1333333333  0.8666666667
 cg2d: Sum(rhs),rhsMax =  -3.97903932025656E-13  5.63482981679578E+00
 EXTERNAL_FIELDS_LOAD,      1722 : iP,iLd,i0,i1=    9   10    9   10 ; Wght=  0.1000000000  0.9000000000
 cg2d: Sum(rhs),rhsMax =  -4.83169060316868E-13  5.63709777221057E+00
 EXTERNAL_FIELDS_LOAD,      1723 : iP,iLd,i0,i1=    9   10    9   10 ; Wght=  0.0666666667  0.9333333333
 cg2d: Sum(rhs),rhsMax =  -3.12638803734444E-13  5.63934002424648E+00
 EXTERNAL_FIELDS_LOAD,      1724 : iP,iLd,i0,i1=    9   10    9   10 ; Wght=  0.0333333333  0.9666666667
 cg2d: Sum(rhs),rhsMax =  -3.41060513164848E-13  5.64153572387882E+00
 EXTERNAL_FIELDS_LOAD,      1725 : iP,iLd,i0,i1=    9   10   10   11 ; Wght=  1.0000000000  0.0000000000
 EXTERNAL_FIELDS_LOAD, it=      1725 : Reading new data, i0,i1=   10   11 (prev=    9   10 )
(PID.TID 0000.0001)  MDS_READ_FIELD: opening global file: trenberth_taux.bin
(PID.TID 0000.0001)  MDS_READ_FIELD: opening global file: trenberth_taux.bin
(PID.TID 0000.0001)  MDS_READ_FIELD: opening global file: trenberth_tauy.bin
(PID.TID 0000.0001)  MDS_READ_FIELD: opening global file: trenberth_tauy.bin
(PID.TID 0000.0001)  MDS_READ_FIELD: opening global file: shiQnet_cs32.bin
(PID.TID 0000.0001)  MDS_READ_FIELD: opening global file: shiQnet_cs32.bin
(PID.TID 0000.0001)  MDS_READ_FIELD: opening global file: shiEmPR_cs32.bin
(PID.TID 0000.0001)  MDS_READ_FIELD: opening global file: shiEmPR_cs32.bin
(PID.TID 0000.0001)  MDS_READ_FIELD: opening global file: lev_surfT_cs_12m.bin
(PID.TID 0000.0001)  MDS_READ_FIELD: opening global file: lev_surfT_cs_12m.bin
(PID.TID 0000.0001)  MDS_READ_FIELD: opening global file: lev_surfS_cs_12m.bin
(PID.TID 0000.0001)  MDS_READ_FIELD: opening global file: lev_surfS_cs_12m.bin
 cg2d: Sum(rhs),rhsMax =  -1.98951966012828E-13  5.64366555566396E+00
 Compute Stats, Diag. #    23 "ETAN    " (list#  1) Parms "SM      M1      ", vol(  0 )= 3.639E+14
 Compute Stats, Diag. #    30 "UVEL    " (list#  1) Parms "UUR     MR      ", vol(  0 )= 1.231E+18
 Compute Stats, Diag. #    31 "VVEL    " (list#  1) Parms "VVR     MR      ", vol(  0 )= 1.243E+18
 Compute Stats, Diag. #    32 "WVEL    " (list#  1) Parms "WM      LR      ", vol(  0 )= 1.315E+18
 Compute Stats, Diag. #    26 "THETA   " (list#  1) Parms "SMR     MR      ", vol(  0 )= 1.340E+18
 EXTERNAL_FIELDS_LOAD,      1726 : iP,iLd,i0,i1=   10   11   10   11 ; Wght=  0.9666666667  0.0333333333
 cg2d: Sum(rhs),rhsMax =  -4.54747350886464E-13  5.64566831038585E+00
 EXTERNAL_FIELDS_LOAD,      1727 : iP,iLd,i0,i1=   10   11   10   11 ; Wght=  0.9333333333  0.0666666667
 cg2d: Sum(rhs),rhsMax =  -2.55795384873636E-13  5.64755715844564E+00
 EXTERNAL_FIELDS_LOAD,      1728 : iP,iLd,i0,i1=   10   11   10   11 ; Wght=  0.9000000000  0.1000000000
 cg2d: Sum(rhs),rhsMax =  -3.41060513164848E-13  5.64929608947388E+00
 EXTERNAL_FIELDS_LOAD,      1729 : iP,iLd,i0,i1=   10   11   10   11 ; Wght=  0.8666666667  0.1333333333
 cg2d: Sum(rhs),rhsMax =  -5.96855898038484E-13  5.65085785104555E+00
 Computing Diagnostic #    79 "DRHODR  " (list#  1) Parms "SM      LR      ", Count=      10
 Computing Diagnostic #    64 "RHOAnoma" (list#  1) Parms "SMR     MR      ", Count=      10
 Computing Diagnostic #    80 "CONVADJ " (list#  1) Parms "SMR     LR      ", Count=      10
 Computing Diagnostic #   210 "GM_Kwx  " (list#  1) Parms "UM      LR      ", Count=      10
             Vector  Mate for "GM_Kwx  " :  Diagnostic #    211 "GM_Kwy  " exists
 Computing Diagnostic #   211 "GM_Kwy  " (list#  1) Parms "VM      LR      ", Count=      10
             Vector  Mate for "GM_Kwy  " :  Diagnostic #    210 "GM_Kwx  " exists
 Computing Diagnostic #   212 "GM_Kwz  " (list#  1) Parms "WM P    LR      ", Count=      10
 Computing Diagnostic #   213 "GM_PsiX " (list#  1) Parms "UU      LR      ", Count=      10
             Vector  Mate for "GM_PsiX " :  Diagnostic #    214 "GM_PsiY " exists
 Computing Diagnostic #   214 "GM_PsiY " (list#  1) Parms "VV      LR      ", Count=      10
             Vector  Mate for "GM_PsiY " :  Diagnostic #    213 "GM_PsiX " exists
 EXTERNAL_FIELDS_LOAD,      1730 : iP,iLd,i0,i1=   10   11   10   11 ; Wght=  0.8333333333  0.1666666667
 cg2d: Sum(rhs),rhsMax =  -1.13686837721616E-13  5.65222663463562E+00
 EXTERNAL_FIELDS_LOAD,      1731 : iP,iLd,i0,i1=   10   11   10   11 ; Wght=  0.8000000000  0.2000000000
 cg2d: Sum(rhs),rhsMax =  -3.97903932025656E-13  5.65338984233212E+00
 EXTERNAL_FIELDS_LOAD,      1732 : iP,iLd,i0,i1=   10   11   10   11 ; Wght=  0.7666666667  0.2333333333
 cg2d: Sum(rhs),rhsMax =  -3.12638803734444E-13  5.65433808201576E+00
 EXTERNAL_FIELDS_LOAD,      1733 : iP,iLd,i0,i1=   10   11   10   11 ; Wght=  0.7333333333  0.2666666667
 cg2d: Sum(rhs),rhsMax =  -4.54747350886464E-13  5.65506473575126E+00
 EXTERNAL_FIELDS_LOAD,      1734 : iP,iLd,i0,i1=   10   11   10   11 ; Wght=  0.7000000000  0.3000000000
 cg2d: Sum(rhs),rhsMax =   2.84217094304040E-14  5.65556637015032E+00
 EXTERNAL_FIELDS_LOAD,      1735 : iP,iLd,i0,i1=   10   11   10   11 ; Wght=  0.6666666667  0.3333333333
 cg2d: Sum(rhs),rhsMax =   1.13686837721616E-13  5.65584261255907E+00
 Compute Stats, Diag. #    23 "ETAN    " (list#  1) Parms "SM      M1      ", vol(  0 )= 3.639E+14
 Compute Stats, Diag. #    30 "UVEL    " (list#  1) Parms "UUR     MR      ", vol(  0 )= 1.231E+18
 Compute Stats, Diag. #    31 "VVEL    " (list#  1) Parms "VVR     MR      ", vol(  0 )= 1.243E+18
 Compute Stats, Diag. #    32 "WVEL    " (list#  1) Parms "WM      LR      ", vol(  0 )= 1.315E+18
 Compute Stats, Diag. #    26 "THETA   " (list#  1) Parms "SMR     MR      ", vol(  0 )= 1.340E+18
 EXTERNAL_FIELDS_LOAD,      1736 : iP,iLd,i0,i1=   10   11   10   11 ; Wght=  0.6333333333  0.3666666667
 cg2d: Sum(rhs),rhsMax =  -4.26325641456060E-13  5.65589605295164E+00
 EXTERNAL_FIELDS_LOAD,      1737 : iP,iLd,i0,i1=   10   11   10   11 ; Wght=  0.6000000000  0.4000000000
 cg2d: Sum(rhs),rhsMax =  -3.41060513164848E-13  5.65573211586492E+00
 EXTERNAL_FIELDS_LOAD,      1738 : iP,iLd,i0,i1=   10   11   10   11 ; Wght=  0.5666666667  0.4333333333
 cg2d: Sum(rhs),rhsMax =  -4.26325641456060E-13  5.65535890405847E+00
 EXTERNAL_FIELDS_LOAD,      1739 : iP,iLd,i0,i1=   10   11   10   11 ; Wght=  0.5333333333  0.4666666667
 cg2d: Sum(rhs),rhsMax =  -1.42108547152020E-13  5.65478692747386E+00
(PID.TID 0000.0001)      cg2d_init_res =   1.55476458294300E-01
(PID.TID 0000.0001)      cg2d_iters(min,last) =      -1      62
(PID.TID 0000.0001)      cg2d_last_res =   5.74523064710992E-07
(PID.TID 0000.0001) // =======================================================
(PID.TID 0000.0001) // Begin MONITOR dynamic field statistics
(PID.TID 0000.0001) // =======================================================
(PID.TID 0000.0001) %MON time_tsnumber                =                  1740
(PID.TID 0000.0001) %MON time_secondsf                =   1.5033600000000E+08
(PID.TID 0000.0001) %MON dynstat_eta_max              =   1.0210737408914E+00
(PID.TID 0000.0001) %MON dynstat_eta_min              =  -1.8600752274448E+00
(PID.TID 0000.0001) %MON dynstat_eta_mean             =   5.0839995232267E-16
(PID.TID 0000.0001) %MON dynstat_eta_sd               =   6.3423456564294E-01
(PID.TID 0000.0001) %MON dynstat_eta_del2             =   8.6257068682236E-04
(PID.TID 0000.0001) %MON dynstat_uvel_max             =   1.9291998378782E-01
(PID.TID 0000.0001) %MON dynstat_uvel_min             =  -2.8068777022044E-01
(PID.TID 0000.0001) %MON dynstat_uvel_mean            =  -5.2453819344538E-04
(PID.TID 0000.0001) %MON dynstat_uvel_sd              =   1.3211057267600E-02
(PID.TID 0000.0001) %MON dynstat_uvel_del2            =   5.7903513130845E-05
(PID.TID 0000.0001) %MON dynstat_vvel_max             =   2.1257326451017E-01
(PID.TID 0000.0001) %MON dynstat_vvel_min             =  -2.3182620072565E-01
(PID.TID 0000.0001) %MON dynstat_vvel_mean            =  -4.0927727809445E-04
(PID.TID 0000.0001) %MON dynstat_vvel_sd              =   1.3738680939100E-02
(PID.TID 0000.0001) %MON dynstat_vvel_del2            =   5.7660384855797E-05
(PID.TID 0000.0001) %MON dynstat_wvel_max             =   9.7334766045497E-05
(PID.TID 0000.0001) %MON dynstat_wvel_min             =  -2.0469405758942E-04
(PID.TID 0000.0001) %MON dynstat_wvel_mean            =  -9.1381989975723E-23
(PID.TID 0000.0001) %MON dynstat_wvel_sd              =   4.2911710166906E-06
(PID.TID 0000.0001) %MON dynstat_wvel_del2            =   3.4379142820282E-08
(PID.TID 0000.0001) %MON dynstat_theta_max            =   3.1325084533283E+01
(PID.TID 0000.0001) %MON dynstat_theta_min            =  -7.5039912839404E+00
(PID.TID 0000.0001) %MON dynstat_theta_mean           =   3.6105149918283E+00
(PID.TID 0000.0001) %MON dynstat_theta_sd             =   4.4207645103976E+00
(PID.TID 0000.0001) %MON dynstat_theta_del2           =   3.1090803490917E-03
(PID.TID 0000.0001) %MON dynstat_salt_max             =   4.1314820107098E+01
(PID.TID 0000.0001) %MON dynstat_salt_min             =   1.8699670641444E+01
(PID.TID 0000.0001) %MON dynstat_salt_mean            =   3.4721769580833E+01
(PID.TID 0000.0001) %MON dynstat_salt_sd              =   4.9681976191306E-01
(PID.TID 0000.0001) %MON dynstat_salt_del2            =   9.7724019060062E-04
(PID.TID 0000.0001) %MON forcing_qnet_max             =   2.9793704503360E+02
(PID.TID 0000.0001) %MON forcing_qnet_min             =  -1.5960049763274E+02
(PID.TID 0000.0001) %MON forcing_qnet_mean            =  -9.1500673756630E+00
(PID.TID 0000.0001) %MON forcing_qnet_sd              =   7.6297913186258E+01
(PID.TID 0000.0001) %MON forcing_qnet_del2            =   3.7237364511610E-01
(PID.TID 0000.0001) %MON forcing_qsw_max              =   0.0000000000000E+00
(PID.TID 0000.0001) %MON forcing_qsw_min              =   0.0000000000000E+00
(PID.TID 0000.0001) %MON forcing_qsw_mean             =   0.0000000000000E+00
(PID.TID 0000.0001) %MON forcing_qsw_sd               =   0.0000000000000E+00
(PID.TID 0000.0001) %MON forcing_qsw_del2             =   0.0000000000000E+00
(PID.TID 0000.0001) %MON forcing_empmr_max            =   7.6494447208479E-05
(PID.TID 0000.0001) %MON forcing_empmr_min            =  -1.5362614137596E-04
(PID.TID 0000.0001) %MON forcing_empmr_mean           =  -2.7256318706594E-21
(PID.TID 0000.0001) %MON forcing_empmr_sd             =   2.4051723601802E-05
(PID.TID 0000.0001) %MON forcing_empmr_del2           =   1.2276157049243E-07
(PID.TID 0000.0001) %MON forcing_fu_max               =   2.6915244895338E-01
(PID.TID 0000.0001) %MON forcing_fu_min               =  -2.7782947882907E-01
(PID.TID 0000.0001) %MON forcing_fu_mean              =  -6.4828803941406E-03
(PID.TID 0000.0001) %MON forcing_fu_sd                =   7.2811021444024E-02
(PID.TID 0000.0001) %MON forcing_fu_del2              =   1.9167538037379E-04
(PID.TID 0000.0001) %MON forcing_fv_max               =   2.2045225648718E-01
(PID.TID 0000.0001) %MON forcing_fv_min               =  -3.0184930756779E-01
(PID.TID 0000.0001) %MON forcing_fv_mean              =  -9.4338065170268E-03
(PID.TID 0000.0001) %MON forcing_fv_sd                =   7.6063126012394E-02
(PID.TID 0000.0001) %MON forcing_fv_del2              =   2.0735338434629E-04
(PID.TID 0000.0001) %MON trAdv_CFL_u_max              =   7.9101923175563E-02
(PID.TID 0000.0001) %MON trAdv_CFL_v_max              =   9.8347801281555E-02
(PID.TID 0000.0001) %MON trAdv_CFL_w_max              =   8.5070605819815E-02
(PID.TID 0000.0001) %MON advcfl_uvel_max              =   7.9608375912839E-02
(PID.TID 0000.0001) %MON advcfl_vvel_max              =   7.5313013500560E-02
(PID.TID 0000.0001) %MON advcfl_wvel_max              =   6.6737987078211E-02
(PID.TID 0000.0001) %MON advcfl_W_hf_max              =   7.3689860732191E-02
(PID.TID 0000.0001) %MON pe_b_mean                    =   5.3587597590078E-04
(PID.TID 0000.0001) %MON ke_max                       =   4.0417756554070E-02
(PID.TID 0000.0001) %MON ke_mean                      =   1.6795351269220E-04
(PID.TID 0000.0001) %MON ke_vol                       =   1.3398024453628E+18
(PID.TID 0000.0001) %MON vort_r_min                   =  -1.0698447444124E-06
(PID.TID 0000.0001) %MON vort_r_max                   =   1.3810053764633E-06
(PID.TID 0000.0001) %MON vort_a_mean                  =  -2.0549865324846E-05
(PID.TID 0000.0001) %MON vort_a_sd                    =   7.5259629589498E-05
(PID.TID 0000.0001) %MON vort_p_mean                  =  -2.4783522345032E-05
(PID.TID 0000.0001) %MON vort_p_sd                    =   1.2810592768917E-04
(PID.TID 0000.0001) %MON surfExpan_theta_mean         =   3.9672282784852E-08
(PID.TID 0000.0001) %MON surfExpan_salt_mean          =   1.5710809131114E-08
(PID.TID 0000.0001) // =======================================================
(PID.TID 0000.0001) // End MONITOR dynamic field statistics
(PID.TID 0000.0001) // =======================================================
(PID.TID 0000.0001) // =======================================================
(PID.TID 0000.0001) // Begin MONITOR ptracer field statistics
(PID.TID 0000.0001) // =======================================================
(PID.TID 0000.0001) %MON trcstat_ptracer01_max        =   1.5337809928762E+08
(PID.TID 0000.0001) %MON trcstat_ptracer01_min        =  -3.6541235580399E+06
(PID.TID 0000.0001) %MON trcstat_ptracer01_mean       =   1.4417556252708E+08
(PID.TID 0000.0001) %MON trcstat_ptracer01_sd         =   2.3531496637433E+07
(PID.TID 0000.0001) %MON trcstat_ptracer01_del2       =   4.4625516729730E+04
(PID.TID 0000.0001) // =======================================================
(PID.TID 0000.0001) // End MONITOR ptracer field statistics
(PID.TID 0000.0001) // =======================================================
 Computing Diagnostic #    79 "DRHODR  " (list#  1) Parms "SM      LR      ", Count=      10
 Computing Diagnostic #    64 "RHOAnoma" (list#  1) Parms "SMR     MR      ", Count=      10
 Computing Diagnostic #    80 "CONVADJ " (list#  1) Parms "SMR     LR      ", Count=      10
 Computing Diagnostic #   210 "GM_Kwx  " (list#  1) Parms "UM      LR      ", Count=      10
             Vector  Mate for "GM_Kwx  " :  Diagnostic #    211 "GM_Kwy  " exists
 Computing Diagnostic #   211 "GM_Kwy  " (list#  1) Parms "VM      LR      ", Count=      10
             Vector  Mate for "GM_Kwy  " :  Diagnostic #    210 "GM_Kwx  " exists
 Computing Diagnostic #   212 "GM_Kwz  " (list#  1) Parms "WM P    LR      ", Count=      10
 Computing Diagnostic #   213 "GM_PsiX " (list#  1) Parms "UU      LR      ", Count=      10
             Vector  Mate for "GM_PsiX " :  Diagnostic #    214 "GM_PsiY " exists
 Computing Diagnostic #   214 "GM_PsiY " (list#  1) Parms "VV      LR      ", Count=      10
             Vector  Mate for "GM_PsiY " :  Diagnostic #    213 "GM_PsiX " exists
 EXTERNAL_FIELDS_LOAD,      1740 : iP,iLd,i0,i1=   10   11   10   11 ; Wght=  0.5000000000  0.5000000000
 cg2d: Sum(rhs),rhsMax =  -1.70530256582424E-13  5.65402896447671E+00
 EXTERNAL_FIELDS_LOAD,      1741 : iP,iLd,i0,i1=   10   11   10   11 ; Wght=  0.4666666667  0.5333333333
 cg2d: Sum(rhs),rhsMax =  -4.54747350886464E-13  5.65309983055529E+00
 EXTERNAL_FIELDS_LOAD,      1742 : iP,iLd,i0,i1=   10   11   10   11 ; Wght=  0.4333333333  0.5666666667
 cg2d: Sum(rhs),rhsMax =  -1.98951966012828E-13  5.65201597019551E+00
 EXTERNAL_FIELDS_LOAD,      1743 : iP,iLd,i0,i1=   10   11   10   11 ; Wght=  0.4000000000  0.6000000000
 cg2d: Sum(rhs),rhsMax =  -4.26325641456060E-13  5.65079550330032E+00
 EXTERNAL_FIELDS_LOAD,      1744 : iP,iLd,i0,i1=   10   11   10   11 ; Wght=  0.3666666667  0.6333333333
 cg2d: Sum(rhs),rhsMax =  -2.27373675443232E-13  5.64945765244545E+00
 EXTERNAL_FIELDS_LOAD,      1745 : iP,iLd,i0,i1=   10   11   10   11 ; Wght=  0.3333333333  0.6666666667
 cg2d: Sum(rhs),rhsMax =  -2.27373675443232E-13  5.64802247538751E+00
 Compute Stats, Diag. #    23 "ETAN    " (list#  1) Parms "SM      M1      ", vol(  0 )= 3.639E+14
 Compute Stats, Diag. #    30 "UVEL    " (list#  1) Parms "UUR     MR      ", vol(  0 )= 1.231E+18
 Compute Stats, Diag. #    31 "VVEL    " (list#  1) Parms "VVR     MR      ", vol(  0 )= 1.243E+18
 Compute Stats, Diag. #    32 "WVEL    " (list#  1) Parms "WM      LR      ", vol(  0 )= 1.315E+18
 Compute Stats, Diag. #    26 "THETA   " (list#  1) Parms "SMR     MR      ", vol(  0 )= 1.340E+18
 EXTERNAL_FIELDS_LOAD,      1746 : iP,iLd,i0,i1=   10   11   10   11 ; Wght=  0.3000000000  0.7000000000
 cg2d: Sum(rhs),rhsMax =  -4.26325641456060E-13  5.64651068420139E+00
 EXTERNAL_FIELDS_LOAD,      1747 : iP,iLd,i0,i1=   10   11   10   11 ; Wght=  0.2666666667  0.7333333333
 cg2d: Sum(rhs),rhsMax =  -5.68434188608080E-13  5.64479394908283E+00
 EXTERNAL_FIELDS_LOAD,      1748 : iP,iLd,i0,i1=   10   11   10   11 ; Wght=  0.2333333333  0.7666666667
 cg2d: Sum(rhs),rhsMax =  -1.42108547152020E-13  5.64309801028454E+00
 EXTERNAL_FIELDS_LOAD,      1749 : iP,iLd,i0,i1=   10   11   10   11 ; Wght=  0.2000000000  0.8000000000
 cg2d: Sum(rhs),rhsMax =  -2.55795384873636E-13  5.64140196464225E+00
 Computing Diagnostic #    79 "DRHODR  " (list#  1) Parms "SM      LR      ", Count=      10
 Computing Diagnostic #    64 "RHOAnoma" (list#  1) Parms "SMR     MR      ", Count=      10
 Computing Diagnostic #    80 "CONVADJ " (list#  1) Parms "SMR     LR      ", Count=      10
 Computing Diagnostic #   210 "GM_Kwx  " (list#  1) Parms "UM      LR      ", Count=      10
             Vector  Mate for "GM_Kwx  " :  Diagnostic #    211 "GM_Kwy  " exists
 Computing Diagnostic #   211 "GM_Kwy  " (list#  1) Parms "VM      LR      ", Count=      10
             Vector  Mate for "GM_Kwy  " :  Diagnostic #    210 "GM_Kwx  " exists
 Computing Diagnostic #   212 "GM_Kwz  " (list#  1) Parms "WM P    LR      ", Count=      10
 Computing Diagnostic #   213 "GM_PsiX " (list#  1) Parms "UU      LR      ", Count=      10
             Vector  Mate for "GM_PsiX " :  Diagnostic #    214 "GM_PsiY " exists
 Computing Diagnostic #   214 "GM_PsiY " (list#  1) Parms "VV      LR      ", Count=      10
             Vector  Mate for "GM_PsiY " :  Diagnostic #    213 "GM_PsiX " exists
 EXTERNAL_FIELDS_LOAD,      1750 : iP,iLd,i0,i1=   10   11   10   11 ; Wght=  0.1666666667  0.8333333333
 cg2d: Sum(rhs),rhsMax =  -3.97903932025656E-13  5.63971788831980E+00
 EXTERNAL_FIELDS_LOAD,      1751 : iP,iLd,i0,i1=   10   11   10   11 ; Wght=  0.1333333333  0.8666666667
 cg2d: Sum(rhs),rhsMax =  -1.13686837721616E-13  5.63806324593347E+00
 EXTERNAL_FIELDS_LOAD,      1752 : iP,iLd,i0,i1=   10   11   10   11 ; Wght=  0.1000000000  0.9000000000
 cg2d: Sum(rhs),rhsMax =  -2.27373675443232E-13  5.63645450524879E+00
 EXTERNAL_FIELDS_LOAD,      1753 : iP,iLd,i0,i1=   10   11   10   11 ; Wght=  0.0666666667  0.9333333333
 cg2d: Sum(rhs),rhsMax =  -2.27373675443232E-13  5.63490603201361E+00
 EXTERNAL_FIELDS_LOAD,      1754 : iP,iLd,i0,i1=   10   11   10   11 ; Wght=  0.0333333333  0.9666666667
 cg2d: Sum(rhs),rhsMax =  -5.11590769747272E-13  5.63342985989478E+00
 EXTERNAL_FIELDS_LOAD,      1755 : iP,iLd,i0,i1=   10   11   11   12 ; Wght=  1.0000000000  0.0000000000
 EXTERNAL_FIELDS_LOAD, it=      1755 : Reading new data, i0,i1=   11   12 (prev=   10   11 )
(PID.TID 0000.0001)  MDS_READ_FIELD: opening global file: trenberth_taux.bin
(PID.TID 0000.0001)  MDS_READ_FIELD: opening global file: trenberth_taux.bin
(PID.TID 0000.0001)  MDS_READ_FIELD: opening global file: trenberth_tauy.bin
(PID.TID 0000.0001)  MDS_READ_FIELD: opening global file: trenberth_tauy.bin
(PID.TID 0000.0001)  MDS_READ_FIELD: opening global file: shiQnet_cs32.bin
(PID.TID 0000.0001)  MDS_READ_FIELD: opening global file: shiQnet_cs32.bin
(PID.TID 0000.0001)  MDS_READ_FIELD: opening global file: shiEmPR_cs32.bin
(PID.TID 0000.0001)  MDS_READ_FIELD: opening global file: shiEmPR_cs32.bin
(PID.TID 0000.0001)  MDS_READ_FIELD: opening global file: lev_surfT_cs_12m.bin
(PID.TID 0000.0001)  MDS_READ_FIELD: opening global file: lev_surfT_cs_12m.bin
(PID.TID 0000.0001)  MDS_READ_FIELD: opening global file: lev_surfS_cs_12m.bin
(PID.TID 0000.0001)  MDS_READ_FIELD: opening global file: lev_surfS_cs_12m.bin
 cg2d: Sum(rhs),rhsMax =  -4.26325641456060E-13  5.63203539839438E+00
 Compute Stats, Diag. #    23 "ETAN    " (list#  1) Parms "SM      M1      ", vol(  0 )= 3.639E+14
 Compute Stats, Diag. #    30 "UVEL    " (list#  1) Parms "UUR     MR      ", vol(  0 )= 1.231E+18
 Compute Stats, Diag. #    31 "VVEL    " (list#  1) Parms "VVR     MR      ", vol(  0 )= 1.243E+18
 Compute Stats, Diag. #    32 "WVEL    " (list#  1) Parms "WM      LR      ", vol(  0 )= 1.315E+18
 Compute Stats, Diag. #    26 "THETA   " (list#  1) Parms "SMR     MR      ", vol(  0 )= 1.340E+18
 EXTERNAL_FIELDS_LOAD,      1756 : iP,iLd,i0,i1=   11   12   11   12 ; Wght=  0.9666666667  0.0333333333
 cg2d: Sum(rhs),rhsMax =   8.52651282912120E-14  5.63071748051040E+00
 EXTERNAL_FIELDS_LOAD,      1757 : iP,iLd,i0,i1=   11   12   11   12 ; Wght=  0.9333333333  0.0666666667
 cg2d: Sum(rhs),rhsMax =  -5.11590769747272E-13  5.62950799293482E+00
 EXTERNAL_FIELDS_LOAD,      1758 : iP,iLd,i0,i1=   11   12   11   12 ; Wght=  0.9000000000  0.1000000000
 cg2d: Sum(rhs),rhsMax =  -2.55795384873636E-13  5.62842013867518E+00
 EXTERNAL_FIELDS_LOAD,      1759 : iP,iLd,i0,i1=   11   12   11   12 ; Wght=  0.8666666667  0.1333333333
 cg2d: Sum(rhs),rhsMax =  -3.97903932025656E-13  5.62746409057210E+00
 Computing Diagnostic #    79 "DRHODR  " (list#  1) Parms "SM      LR      ", Count=      10
 Computing Diagnostic #    64 "RHOAnoma" (list#  1) Parms "SMR     MR      ", Count=      10
 Computing Diagnostic #    80 "CONVADJ " (list#  1) Parms "SMR     LR      ", Count=      10
 Computing Diagnostic #   210 "GM_Kwx  " (list#  1) Parms "UM      LR      ", Count=      10
             Vector  Mate for "GM_Kwx  " :  Diagnostic #    211 "GM_Kwy  " exists
 Computing Diagnostic #   211 "GM_Kwy  " (list#  1) Parms "VM      LR      ", Count=      10
             Vector  Mate for "GM_Kwy  " :  Diagnostic #    210 "GM_Kwx  " exists
 Computing Diagnostic #   212 "GM_Kwz  " (list#  1) Parms "WM P    LR      ", Count=      10
 Computing Diagnostic #   213 "GM_PsiX " (list#  1) Parms "UU      LR      ", Count=      10
             Vector  Mate for "GM_PsiX " :  Diagnostic #    214 "GM_PsiY " exists
 Computing Diagnostic #   214 "GM_PsiY " (list#  1) Parms "VV      LR      ", Count=      10
             Vector  Mate for "GM_PsiY " :  Diagnostic #    213 "GM_PsiX " exists
 EXTERNAL_FIELDS_LOAD,      1760 : iP,iLd,i0,i1=   11   12   11   12 ; Wght=  0.8333333333  0.1666666667
 cg2d: Sum(rhs),rhsMax =  -3.41060513164848E-13  5.62664006021035E+00
 EXTERNAL_FIELDS_LOAD,      1761 : iP,iLd,i0,i1=   11   12   11   12 ; Wght=  0.8000000000  0.2000000000
 cg2d: Sum(rhs),rhsMax =  -1.70530256582424E-13  5.62594518045075E+00
 EXTERNAL_FIELDS_LOAD,      1762 : iP,iLd,i0,i1=   11   12   11   12 ; Wght=  0.7666666667  0.2333333333
 cg2d: Sum(rhs),rhsMax =  -3.41060513164848E-13  5.62537380308861E+00
 EXTERNAL_FIELDS_LOAD,      1763 : iP,iLd,i0,i1=   11   12   11   12 ; Wght=  0.7333333333  0.2666666667
 cg2d: Sum(rhs),rhsMax =  -2.27373675443232E-13  5.62491764444577E+00
 EXTERNAL_FIELDS_LOAD,      1764 : iP,iLd,i0,i1=   11   12   11   12 ; Wght=  0.7000000000  0.3000000000
 cg2d: Sum(rhs),rhsMax =  -4.54747350886464E-13  5.62456637783772E+00
 EXTERNAL_FIELDS_LOAD,      1765 : iP,iLd,i0,i1=   11   12   11   12 ; Wght=  0.6666666667  0.3333333333
 cg2d: Sum(rhs),rhsMax =  -4.26325641456060E-13  5.62430821247218E+00
 Compute Stats, Diag. #    23 "ETAN    " (list#  1) Parms "SM      M1      ", vol(  0 )= 3.639E+14
 Compute Stats, Diag. #    30 "UVEL    " (list#  1) Parms "UUR     MR      ", vol(  0 )= 1.231E+18
 Compute Stats, Diag. #    31 "VVEL    " (list#  1) Parms "VVR     MR      ", vol(  0 )= 1.243E+18
 Compute Stats, Diag. #    32 "WVEL    " (list#  1) Parms "WM      LR      ", vol(  0 )= 1.315E+18
 Compute Stats, Diag. #    26 "THETA   " (list#  1) Parms "SMR     MR      ", vol(  0 )= 1.340E+18
 EXTERNAL_FIELDS_LOAD,      1766 : iP,iLd,i0,i1=   11   12   11   12 ; Wght=  0.6333333333  0.3666666667
 cg2d: Sum(rhs),rhsMax =  -3.97903932025656E-13  5.62413033184872E+00
 EXTERNAL_FIELDS_LOAD,      1767 : iP,iLd,i0,i1=   11   12   11   12 ; Wght=  0.6000000000  0.4000000000
 cg2d: Sum(rhs),rhsMax =  -4.54747350886464E-13  5.62401925456066E+00
 EXTERNAL_FIELDS_LOAD,      1768 : iP,iLd,i0,i1=   11   12   11   12 ; Wght=  0.5666666667  0.4333333333
 cg2d: Sum(rhs),rhsMax =  -2.55795384873636E-13  5.62396118036656E+00
 EXTERNAL_FIELDS_LOAD,      1769 : iP,iLd,i0,i1=   11   12   11   12 ; Wght=  0.5333333333  0.4666666667
 cg2d: Sum(rhs),rhsMax =  -4.26325641456060E-13  5.62394226359400E+00
(PID.TID 0000.0001)      cg2d_init_res =   1.56713326656190E-01
(PID.TID 0000.0001)      cg2d_iters(min,last) =      -1      63
(PID.TID 0000.0001)      cg2d_last_res =   4.83737059918479E-07
(PID.TID 0000.0001) // =======================================================
(PID.TID 0000.0001) // Begin MONITOR dynamic field statistics
(PID.TID 0000.0001) // =======================================================
(PID.TID 0000.0001) %MON time_tsnumber                =                  1770
(PID.TID 0000.0001) %MON time_secondsf                =   1.5292800000000E+08
(PID.TID 0000.0001) %MON dynstat_eta_max              =   9.8580749977584E-01
(PID.TID 0000.0001) %MON dynstat_eta_min              =  -1.8536794283206E+00
(PID.TID 0000.0001) %MON dynstat_eta_mean             =   5.4962157007856E-16
(PID.TID 0000.0001) %MON dynstat_eta_sd               =   6.3088736393530E-01
(PID.TID 0000.0001) %MON dynstat_eta_del2             =   8.6413954318931E-04
(PID.TID 0000.0001) %MON dynstat_uvel_max             =   1.8169021453419E-01
(PID.TID 0000.0001) %MON dynstat_uvel_min             =  -2.9070642943067E-01
(PID.TID 0000.0001) %MON dynstat_uvel_mean            =  -5.2799208619796E-04
(PID.TID 0000.0001) %MON dynstat_uvel_sd              =   1.3225662390322E-02
(PID.TID 0000.0001) %MON dynstat_uvel_del2            =   5.7449661293462E-05
(PID.TID 0000.0001) %MON dynstat_vvel_max             =   1.9693065623920E-01
(PID.TID 0000.0001) %MON dynstat_vvel_min             =  -2.2725931584503E-01
(PID.TID 0000.0001) %MON dynstat_vvel_mean            =  -4.1862110747943E-04
(PID.TID 0000.0001) %MON dynstat_vvel_sd              =   1.3649008157974E-02
(PID.TID 0000.0001) %MON dynstat_vvel_del2            =   5.6314893586071E-05
(PID.TID 0000.0001) %MON dynstat_wvel_max             =   9.8415946407048E-05
(PID.TID 0000.0001) %MON dynstat_wvel_min             =  -1.9876148302177E-04
(PID.TID 0000.0001) %MON dynstat_wvel_mean            =  -1.1894163774618E-22
(PID.TID 0000.0001) %MON dynstat_wvel_sd              =   4.4140130967833E-06
(PID.TID 0000.0001) %MON dynstat_wvel_del2            =   3.3903852483741E-08
(PID.TID 0000.0001) %MON dynstat_theta_max            =   3.0479038967877E+01
(PID.TID 0000.0001) %MON dynstat_theta_min            =  -7.4502044712067E+00
(PID.TID 0000.0001) %MON dynstat_theta_mean           =   3.6112994175342E+00
(PID.TID 0000.0001) %MON dynstat_theta_sd             =   4.4169613060956E+00
(PID.TID 0000.0001) %MON dynstat_theta_del2           =   3.0452112351557E-03
(PID.TID 0000.0001) %MON dynstat_salt_max             =   4.1311054473961E+01
(PID.TID 0000.0001) %MON dynstat_salt_min             =   1.8705279723226E+01
(PID.TID 0000.0001) %MON dynstat_salt_mean            =   3.4721783379746E+01
(PID.TID 0000.0001) %MON dynstat_salt_sd              =   4.9701836495845E-01
(PID.TID 0000.0001) %MON dynstat_salt_del2            =   9.7113543458015E-04
(PID.TID 0000.0001) %MON forcing_qnet_max             =   4.1021578966536E+02
(PID.TID 0000.0001) %MON forcing_qnet_min             =  -2.0313383788713E+02
(PID.TID 0000.0001) %MON forcing_qnet_mean            =  -1.0624545108288E+01
(PID.TID 0000.0001) %MON forcing_qnet_sd              =   1.0684693269585E+02
(PID.TID 0000.0001) %MON forcing_qnet_del2            =   3.8956089286157E-01
(PID.TID 0000.0001) %MON forcing_qsw_max              =   0.0000000000000E+00
(PID.TID 0000.0001) %MON forcing_qsw_min              =   0.0000000000000E+00
(PID.TID 0000.0001) %MON forcing_qsw_mean             =   0.0000000000000E+00
(PID.TID 0000.0001) %MON forcing_qsw_sd               =   0.0000000000000E+00
(PID.TID 0000.0001) %MON forcing_qsw_del2             =   0.0000000000000E+00
(PID.TID 0000.0001) %MON forcing_empmr_max            =   7.6494447208479E-05
(PID.TID 0000.0001) %MON forcing_empmr_min            =  -1.5362614137596E-04
(PID.TID 0000.0001) %MON forcing_empmr_mean           =  -2.7256318706594E-21
(PID.TID 0000.0001) %MON forcing_empmr_sd             =   2.4051723601802E-05
(PID.TID 0000.0001) %MON forcing_empmr_del2           =   1.2276157049243E-07
(PID.TID 0000.0001) %MON forcing_fu_max               =   2.4675984841684E-01
(PID.TID 0000.0001) %MON forcing_fu_min               =  -2.2485491038058E-01
(PID.TID 0000.0001) %MON forcing_fu_mean              =  -6.1037608420371E-03
(PID.TID 0000.0001) %MON forcing_fu_sd                =   6.6859781268308E-02
(PID.TID 0000.0001) %MON forcing_fu_del2              =   1.9769316319051E-04
(PID.TID 0000.0001) %MON forcing_fv_max               =   2.2502206352242E-01
(PID.TID 0000.0001) %MON forcing_fv_min               =  -2.7065648191206E-01
(PID.TID 0000.0001) %MON forcing_fv_mean              =  -1.1140659213460E-02
(PID.TID 0000.0001) %MON forcing_fv_sd                =   7.4511506960852E-02
(PID.TID 0000.0001) %MON forcing_fv_del2              =   2.1923078472871E-04
(PID.TID 0000.0001) %MON trAdv_CFL_u_max              =   8.1929910797419E-02
(PID.TID 0000.0001) %MON trAdv_CFL_v_max              =   9.2204545665895E-02
(PID.TID 0000.0001) %MON trAdv_CFL_w_max              =   8.2666939776473E-02
(PID.TID 0000.0001) %MON advcfl_uvel_max              =   8.2449857705666E-02
(PID.TID 0000.0001) %MON advcfl_vvel_max              =   8.5839298653402E-02
(PID.TID 0000.0001) %MON advcfl_wvel_max              =   6.4803743898420E-02
(PID.TID 0000.0001) %MON advcfl_W_hf_max              =   7.1554133887839E-02
(PID.TID 0000.0001) %MON pe_b_mean                    =   5.3023468180684E-04
(PID.TID 0000.0001) %MON ke_max                       =   4.2176862410059E-02
(PID.TID 0000.0001) %MON ke_mean                      =   1.6699660697203E-04
(PID.TID 0000.0001) %MON ke_vol                       =   1.3398024453628E+18
(PID.TID 0000.0001) %MON vort_r_min                   =  -1.1200277665883E-06
(PID.TID 0000.0001) %MON vort_r_max                   =   1.3375448452744E-06
(PID.TID 0000.0001) %MON vort_a_mean                  =  -2.0549865324846E-05
(PID.TID 0000.0001) %MON vort_a_sd                    =   7.5259624163691E-05
(PID.TID 0000.0001) %MON vort_p_mean                  =  -2.4783522345032E-05
(PID.TID 0000.0001) %MON vort_p_sd                    =   1.2810603517066E-04
(PID.TID 0000.0001) %MON surfExpan_theta_mean         =   3.3827381832216E-08
(PID.TID 0000.0001) %MON surfExpan_salt_mean          =   1.5423927329045E-08
(PID.TID 0000.0001) // =======================================================
(PID.TID 0000.0001) // End MONITOR dynamic field statistics
(PID.TID 0000.0001) // =======================================================
(PID.TID 0000.0001) // =======================================================
(PID.TID 0000.0001) // Begin MONITOR ptracer field statistics
(PID.TID 0000.0001) // =======================================================
(PID.TID 0000.0001) %MON trcstat_ptracer01_max        =   1.5607563002486E+08
(PID.TID 0000.0001) %MON trcstat_ptracer01_min        =  -3.5716547673323E+06
(PID.TID 0000.0001) %MON trcstat_ptracer01_mean       =   1.4662122187988E+08
(PID.TID 0000.0001) %MON trcstat_ptracer01_sd         =   2.3998795566128E+07
(PID.TID 0000.0001) %MON trcstat_ptracer01_del2       =   4.1005141547111E+04
(PID.TID 0000.0001) // =======================================================
(PID.TID 0000.0001) // End MONITOR ptracer field statistics
(PID.TID 0000.0001) // =======================================================
 Computing Diagnostic #    79 "DRHODR  " (list#  1) Parms "SM      LR      ", Count=      10
 Computing Diagnostic #    64 "RHOAnoma" (list#  1) Parms "SMR     MR      ", Count=      10
 Computing Diagnostic #    80 "CONVADJ " (list#  1) Parms "SMR     LR      ", Count=      10
 Computing Diagnostic #   210 "GM_Kwx  " (list#  1) Parms "UM      LR      ", Count=      10
             Vector  Mate for "GM_Kwx  " :  Diagnostic #    211 "GM_Kwy  " exists
 Computing Diagnostic #   211 "GM_Kwy  " (list#  1) Parms "VM      LR      ", Count=      10
             Vector  Mate for "GM_Kwy  " :  Diagnostic #    210 "GM_Kwx  " exists
 Computing Diagnostic #   212 "GM_Kwz  " (list#  1) Parms "WM P    LR      ", Count=      10
 Computing Diagnostic #   213 "GM_PsiX " (list#  1) Parms "UU      LR      ", Count=      10
             Vector  Mate for "GM_PsiX " :  Diagnostic #    214 "GM_PsiY " exists
 Computing Diagnostic #   214 "GM_PsiY " (list#  1) Parms "VV      LR      ", Count=      10
             Vector  Mate for "GM_PsiY " :  Diagnostic #    213 "GM_PsiX " exists
 EXTERNAL_FIELDS_LOAD,      1770 : iP,iLd,i0,i1=   11   12   11   12 ; Wght=  0.5000000000  0.5000000000
 cg2d: Sum(rhs),rhsMax =  -3.41060513164848E-13  5.62394892419689E+00
 EXTERNAL_FIELDS_LOAD,      1771 : iP,iLd,i0,i1=   11   12   11   12 ; Wght=  0.4666666667  0.5333333333
 cg2d: Sum(rhs),rhsMax =  -1.70530256582424E-13  5.62396804291149E+00
 EXTERNAL_FIELDS_LOAD,      1772 : iP,iLd,i0,i1=   11   12   11   12 ; Wght=  0.4333333333  0.5666666667
 cg2d: Sum(rhs),rhsMax =  -1.42108547152020E-13  5.62398716210131E+00
 EXTERNAL_FIELDS_LOAD,      1773 : iP,iLd,i0,i1=   11   12   11   12 ; Wght=  0.4000000000  0.6000000000
 cg2d: Sum(rhs),rhsMax =  -4.26325641456060E-13  5.62399471305735E+00
 EXTERNAL_FIELDS_LOAD,      1774 : iP,iLd,i0,i1=   11   12   11   12 ; Wght=  0.3666666667  0.6333333333
 cg2d: Sum(rhs),rhsMax =  -2.84217094304040E-13  5.62402207659319E+00
 EXTERNAL_FIELDS_LOAD,      1775 : iP,iLd,i0,i1=   11   12   11   12 ; Wght=  0.3333333333  0.6666666667
 cg2d: Sum(rhs),rhsMax =  -3.41060513164848E-13  5.62400648320866E+00
 Compute Stats, Diag. #    23 "ETAN    " (list#  1) Parms "SM      M1      ", vol(  0 )= 3.639E+14
 Compute Stats, Diag. #    30 "UVEL    " (list#  1) Parms "UUR     MR      ", vol(  0 )= 1.231E+18
 Compute Stats, Diag. #    31 "VVEL    " (list#  1) Parms "VVR     MR      ", vol(  0 )= 1.243E+18
 Compute Stats, Diag. #    32 "WVEL    " (list#  1) Parms "WM      LR      ", vol(  0 )= 1.315E+18
 Compute Stats, Diag. #    26 "THETA   " (list#  1) Parms "SMR     MR      ", vol(  0 )= 1.340E+18
 EXTERNAL_FIELDS_LOAD,      1776 : iP,iLd,i0,i1=   11   12   11   12 ; Wght=  0.3000000000  0.7000000000
 cg2d: Sum(rhs),rhsMax =  -5.68434188608080E-14  5.62394704967264E+00
 EXTERNAL_FIELDS_LOAD,      1777 : iP,iLd,i0,i1=   11   12   11   12 ; Wght=  0.2666666667  0.7333333333
 cg2d: Sum(rhs),rhsMax =  -2.55795384873636E-13  5.62383878283628E+00
 EXTERNAL_FIELDS_LOAD,      1778 : iP,iLd,i0,i1=   11   12   11   12 ; Wght=  0.2333333333  0.7666666667
 cg2d: Sum(rhs),rhsMax =  -4.26325641456060E-13  5.62367732096957E+00
 EXTERNAL_FIELDS_LOAD,      1779 : iP,iLd,i0,i1=   11   12   11   12 ; Wght=  0.2000000000  0.8000000000
 cg2d: Sum(rhs),rhsMax =  -3.12638803734444E-13  5.62346037720871E+00
 Computing Diagnostic #    79 "DRHODR  " (list#  1) Parms "SM      LR      ", Count=      10
 Computing Diagnostic #    64 "RHOAnoma" (list#  1) Parms "SMR     MR      ", Count=      10
 Computing Diagnostic #    80 "CONVADJ " (list#  1) Parms "SMR     LR      ", Count=      10
 Computing Diagnostic #   210 "GM_Kwx  " (list#  1) Parms "UM      LR      ", Count=      10
             Vector  Mate for "GM_Kwx  " :  Diagnostic #    211 "GM_Kwy  " exists
 Computing Diagnostic #   211 "GM_Kwy  " (list#  1) Parms "VM      LR      ", Count=      10
             Vector  Mate for "GM_Kwy  " :  Diagnostic #    210 "GM_Kwx  " exists
 Computing Diagnostic #   212 "GM_Kwz  " (list#  1) Parms "WM P    LR      ", Count=      10
 Computing Diagnostic #   213 "GM_PsiX " (list#  1) Parms "UU      LR      ", Count=      10
             Vector  Mate for "GM_PsiX " :  Diagnostic #    214 "GM_PsiY " exists
 Computing Diagnostic #   214 "GM_PsiY " (list#  1) Parms "VV      LR      ", Count=      10
             Vector  Mate for "GM_PsiY " :  Diagnostic #    213 "GM_PsiX " exists
 EXTERNAL_FIELDS_LOAD,      1780 : iP,iLd,i0,i1=   11   12   11   12 ; Wght=  0.1666666667  0.8333333333
 cg2d: Sum(rhs),rhsMax =  -5.40012479177676E-13  5.62318791594443E+00
 EXTERNAL_FIELDS_LOAD,      1781 : iP,iLd,i0,i1=   11   12   11   12 ; Wght=  0.1333333333  0.8666666667
 cg2d: Sum(rhs),rhsMax =  -2.84217094304040E-13  5.62286977617536E+00
 EXTERNAL_FIELDS_LOAD,      1782 : iP,iLd,i0,i1=   11   12   11   12 ; Wght=  0.1000000000  0.9000000000
 cg2d: Sum(rhs),rhsMax =  -2.84217094304040E-13  5.62249830333642E+00
 EXTERNAL_FIELDS_LOAD,      1783 : iP,iLd,i0,i1=   11   12   11   12 ; Wght=  0.0666666667  0.9333333333
 cg2d: Sum(rhs),rhsMax =  -1.42108547152020E-13  5.62208319223227E+00
 EXTERNAL_FIELDS_LOAD,      1784 : iP,iLd,i0,i1=   11   12   11   12 ; Wght=  0.0333333333  0.9666666667
 cg2d: Sum(rhs),rhsMax =  -3.69482222595252E-13  5.62163321654671E+00
 EXTERNAL_FIELDS_LOAD,      1785 : iP,iLd,i0,i1=   11   12   12    1 ; Wght=  1.0000000000  0.0000000000
 EXTERNAL_FIELDS_LOAD, it=      1785 : Reading new data, i0,i1=   12    1 (prev=   11   12 )
(PID.TID 0000.0001)  MDS_READ_FIELD: opening global file: trenberth_taux.bin
(PID.TID 0000.0001)  MDS_READ_FIELD: opening global file: trenberth_taux.bin
(PID.TID 0000.0001)  MDS_READ_FIELD: opening global file: trenberth_tauy.bin
(PID.TID 0000.0001)  MDS_READ_FIELD: opening global file: trenberth_tauy.bin
(PID.TID 0000.0001)  MDS_READ_FIELD: opening global file: shiQnet_cs32.bin
(PID.TID 0000.0001)  MDS_READ_FIELD: opening global file: shiQnet_cs32.bin
(PID.TID 0000.0001)  MDS_READ_FIELD: opening global file: shiEmPR_cs32.bin
(PID.TID 0000.0001)  MDS_READ_FIELD: opening global file: shiEmPR_cs32.bin
(PID.TID 0000.0001)  MDS_READ_FIELD: opening global file: lev_surfT_cs_12m.bin
(PID.TID 0000.0001)  MDS_READ_FIELD: opening global file: lev_surfT_cs_12m.bin
(PID.TID 0000.0001)  MDS_READ_FIELD: opening global file: lev_surfS_cs_12m.bin
(PID.TID 0000.0001)  MDS_READ_FIELD: opening global file: lev_surfS_cs_12m.bin
 cg2d: Sum(rhs),rhsMax =  -4.83169060316868E-13  5.62115825163431E+00
 Compute Stats, Diag. #    23 "ETAN    " (list#  1) Parms "SM      M1      ", vol(  0 )= 3.639E+14
 Compute Stats, Diag. #    30 "UVEL    " (list#  1) Parms "UUR     MR      ", vol(  0 )= 1.231E+18
 Compute Stats, Diag. #    31 "VVEL    " (list#  1) Parms "VVR     MR      ", vol(  0 )= 1.243E+18
 Compute Stats, Diag. #    32 "WVEL    " (list#  1) Parms "WM      LR      ", vol(  0 )= 1.315E+18
 Compute Stats, Diag. #    26 "THETA   " (list#  1) Parms "SMR     MR      ", vol(  0 )= 1.340E+18
 EXTERNAL_FIELDS_LOAD,      1786 : iP,iLd,i0,i1=   12    1   12    1 ; Wght=  0.9666666667  0.0333333333
 cg2d: Sum(rhs),rhsMax =  -4.83169060316868E-13  5.62070360783791E+00
 EXTERNAL_FIELDS_LOAD,      1787 : iP,iLd,i0,i1=   12    1   12    1 ; Wght=  0.9333333333  0.0666666667
 cg2d: Sum(rhs),rhsMax =  -3.97903932025656E-13  5.62024134051902E+00
 EXTERNAL_FIELDS_LOAD,      1788 : iP,iLd,i0,i1=   12    1   12    1 ; Wght=  0.9000000000  0.1000000000
 cg2d: Sum(rhs),rhsMax =  -4.83169060316868E-13  5.61978733746183E+00
 EXTERNAL_FIELDS_LOAD,      1789 : iP,iLd,i0,i1=   12    1   12    1 ; Wght=  0.8666666667  0.1333333333
 cg2d: Sum(rhs),rhsMax =  -4.54747350886464E-13  5.61934893876447E+00
 Computing Diagnostic #    79 "DRHODR  " (list#  1) Parms "SM      LR      ", Count=      10
 Computing Diagnostic #    64 "RHOAnoma" (list#  1) Parms "SMR     MR      ", Count=      10
 Computing Diagnostic #    80 "CONVADJ " (list#  1) Parms "SMR     LR      ", Count=      10
 Computing Diagnostic #   210 "GM_Kwx  " (list#  1) Parms "UM      LR      ", Count=      10
             Vector  Mate for "GM_Kwx  " :  Diagnostic #    211 "GM_Kwy  " exists
 Computing Diagnostic #   211 "GM_Kwy  " (list#  1) Parms "VM      LR      ", Count=      10
             Vector  Mate for "GM_Kwy  " :  Diagnostic #    210 "GM_Kwx  " exists
 Computing Diagnostic #   212 "GM_Kwz  " (list#  1) Parms "WM P    LR      ", Count=      10
 Computing Diagnostic #   213 "GM_PsiX " (list#  1) Parms "UU      LR      ", Count=      10
             Vector  Mate for "GM_PsiX " :  Diagnostic #    214 "GM_PsiY " exists
 Computing Diagnostic #   214 "GM_PsiY " (list#  1) Parms "VV      LR      ", Count=      10
             Vector  Mate for "GM_PsiY " :  Diagnostic #    213 "GM_PsiX " exists
 EXTERNAL_FIELDS_LOAD,      1790 : iP,iLd,i0,i1=   12    1   12    1 ; Wght=  0.8333333333  0.1666666667
 cg2d: Sum(rhs),rhsMax =  -2.84217094304040E-13  5.61893601092940E+00
 EXTERNAL_FIELDS_LOAD,      1791 : iP,iLd,i0,i1=   12    1   12    1 ; Wght=  0.8000000000  0.2000000000
 cg2d: Sum(rhs),rhsMax =  -4.26325641456060E-13  5.61855784470141E+00
 EXTERNAL_FIELDS_LOAD,      1792 : iP,iLd,i0,i1=   12    1   12    1 ; Wght=  0.7666666667  0.2333333333
 cg2d: Sum(rhs),rhsMax =  -2.55795384873636E-13  5.61822291190601E+00
 EXTERNAL_FIELDS_LOAD,      1793 : iP,iLd,i0,i1=   12    1   12    1 ; Wght=  0.7333333333  0.2666666667
 cg2d: Sum(rhs),rhsMax =  -8.52651282912120E-14  5.61793858409546E+00
 EXTERNAL_FIELDS_LOAD,      1794 : iP,iLd,i0,i1=   12    1   12    1 ; Wght=  0.7000000000  0.3000000000
 cg2d: Sum(rhs),rhsMax =  -2.27373675443232E-13  5.61771071852562E+00
 EXTERNAL_FIELDS_LOAD,      1795 : iP,iLd,i0,i1=   12    1   12    1 ; Wght=  0.6666666667  0.3333333333
 cg2d: Sum(rhs),rhsMax =  -2.55795384873636E-13  5.61754326053464E+00
 Compute Stats, Diag. #    23 "ETAN    " (list#  1) Parms "SM      M1      ", vol(  0 )= 3.639E+14
 Compute Stats, Diag. #    30 "UVEL    " (list#  1) Parms "UUR     MR      ", vol(  0 )= 1.231E+18
 Compute Stats, Diag. #    31 "VVEL    " (list#  1) Parms "VVR     MR      ", vol(  0 )= 1.243E+18
 Compute Stats, Diag. #    32 "WVEL    " (list#  1) Parms "WM      LR      ", vol(  0 )= 1.315E+18
 Compute Stats, Diag. #    26 "THETA   " (list#  1) Parms "SMR     MR      ", vol(  0 )= 1.340E+18
 EXTERNAL_FIELDS_LOAD,      1796 : iP,iLd,i0,i1=   12    1   12    1 ; Wght=  0.6333333333  0.3666666667
 cg2d: Sum(rhs),rhsMax =  -1.42108547152020E-13  5.61743797743254E+00
 EXTERNAL_FIELDS_LOAD,      1797 : iP,iLd,i0,i1=   12    1   12    1 ; Wght=  0.6000000000  0.4000000000
 cg2d: Sum(rhs),rhsMax =  -2.27373675443232E-13  5.61739424796716E+00
 EXTERNAL_FIELDS_LOAD,      1798 : iP,iLd,i0,i1=   12    1   12    1 ; Wght=  0.5666666667  0.4333333333
 cg2d: Sum(rhs),rhsMax =  -2.84217094304040E-13  5.61740902570633E+00
 EXTERNAL_FIELDS_LOAD,      1799 : iP,iLd,i0,i1=   12    1   12    1 ; Wght=  0.5333333333  0.4666666667
 cg2d: Sum(rhs),rhsMax =  -1.98951966012828E-13  5.61747692303964E+00
(PID.TID 0000.0001)      cg2d_init_res =   1.54656742433251E-01
(PID.TID 0000.0001)      cg2d_iters(min,last) =      -1      62
(PID.TID 0000.0001)      cg2d_last_res =   4.67308560195991E-07
(PID.TID 0000.0001) // =======================================================
(PID.TID 0000.0001) // Begin MONITOR dynamic field statistics
(PID.TID 0000.0001) // =======================================================
(PID.TID 0000.0001) %MON time_tsnumber                =                  1800
(PID.TID 0000.0001) %MON time_secondsf                =   1.5552000000000E+08
(PID.TID 0000.0001) %MON dynstat_eta_max              =   9.4536832962751E-01
(PID.TID 0000.0001) %MON dynstat_eta_min              =  -1.8458751485290E+00
(PID.TID 0000.0001) %MON dynstat_eta_mean             =   6.4580534484231E-16
(PID.TID 0000.0001) %MON dynstat_eta_sd               =   6.2833054295703E-01
(PID.TID 0000.0001) %MON dynstat_eta_del2             =   8.7046160428226E-04
(PID.TID 0000.0001) %MON dynstat_uvel_max             =   1.7400107155416E-01
(PID.TID 0000.0001) %MON dynstat_uvel_min             =  -2.8887012625713E-01
(PID.TID 0000.0001) %MON dynstat_uvel_mean            =  -5.3425133507144E-04
(PID.TID 0000.0001) %MON dynstat_uvel_sd              =   1.3261187351397E-02
(PID.TID 0000.0001) %MON dynstat_uvel_del2            =   5.6978927834590E-05
(PID.TID 0000.0001) %MON dynstat_vvel_max             =   1.7596491354385E-01
(PID.TID 0000.0001) %MON dynstat_vvel_min             =  -2.3145798416611E-01
(PID.TID 0000.0001) %MON dynstat_vvel_mean            =  -4.2623806909201E-04
(PID.TID 0000.0001) %MON dynstat_vvel_sd              =   1.3574595110780E-02
(PID.TID 0000.0001) %MON dynstat_vvel_del2            =   5.5486108362951E-05
(PID.TID 0000.0001) %MON dynstat_wvel_max             =   8.6979239291651E-05
(PID.TID 0000.0001) %MON dynstat_wvel_min             =  -2.0579004376217E-04
(PID.TID 0000.0001) %MON dynstat_wvel_mean            =   8.9931482198331E-23
(PID.TID 0000.0001) %MON dynstat_wvel_sd              =   4.5011821591731E-06
(PID.TID 0000.0001) %MON dynstat_wvel_del2            =   3.3797160674394E-08
(PID.TID 0000.0001) %MON dynstat_theta_max            =   3.0922348415763E+01
(PID.TID 0000.0001) %MON dynstat_theta_min            =  -7.3969490568863E+00
(PID.TID 0000.0001) %MON dynstat_theta_mean           =   3.6129221107176E+00
(PID.TID 0000.0001) %MON dynstat_theta_sd             =   4.4148159846353E+00
(PID.TID 0000.0001) %MON dynstat_theta_del2           =   3.0306729392971E-03
(PID.TID 0000.0001) %MON dynstat_salt_max             =   4.1315015728883E+01
(PID.TID 0000.0001) %MON dynstat_salt_min             =   1.8702148270438E+01
(PID.TID 0000.0001) %MON dynstat_salt_mean            =   3.4721800947842E+01
(PID.TID 0000.0001) %MON dynstat_salt_sd              =   4.9717303519136E-01
(PID.TID 0000.0001) %MON dynstat_salt_del2            =   9.8328588173993E-04
(PID.TID 0000.0001) %MON forcing_qnet_max             =   4.5354272910296E+02
(PID.TID 0000.0001) %MON forcing_qnet_min             =  -2.1599809650417E+02
(PID.TID 0000.0001) %MON forcing_qnet_mean            =  -1.2133594023001E+01
(PID.TID 0000.0001) %MON forcing_qnet_sd              =   1.1586527760186E+02
(PID.TID 0000.0001) %MON forcing_qnet_del2            =   4.1554897025173E-01
(PID.TID 0000.0001) %MON forcing_qsw_max              =   0.0000000000000E+00
(PID.TID 0000.0001) %MON forcing_qsw_min              =   0.0000000000000E+00
(PID.TID 0000.0001) %MON forcing_qsw_mean             =   0.0000000000000E+00
(PID.TID 0000.0001) %MON forcing_qsw_sd               =   0.0000000000000E+00
(PID.TID 0000.0001) %MON forcing_qsw_del2             =   0.0000000000000E+00
(PID.TID 0000.0001) %MON forcing_empmr_max            =   7.6494447208479E-05
(PID.TID 0000.0001) %MON forcing_empmr_min            =  -1.5362614137596E-04
(PID.TID 0000.0001) %MON forcing_empmr_mean           =  -2.7256318706594E-21
(PID.TID 0000.0001) %MON forcing_empmr_sd             =   2.4051723601802E-05
(PID.TID 0000.0001) %MON forcing_empmr_del2           =   1.2276157049243E-07
(PID.TID 0000.0001) %MON forcing_fu_max               =   2.4765418498413E-01
(PID.TID 0000.0001) %MON forcing_fu_min               =  -1.9978611308685E-01
(PID.TID 0000.0001) %MON forcing_fu_mean              =  -4.5913596005962E-03
(PID.TID 0000.0001) %MON forcing_fu_sd                =   6.3941102540855E-02
(PID.TID 0000.0001) %MON forcing_fu_del2              =   2.0518848671462E-04
(PID.TID 0000.0001) %MON forcing_fv_max               =   2.5012773886324E-01
(PID.TID 0000.0001) %MON forcing_fv_min               =  -3.2613202008605E-01
(PID.TID 0000.0001) %MON forcing_fv_mean              =  -1.3680575972930E-02
(PID.TID 0000.0001) %MON forcing_fv_sd                =   7.5124443773282E-02
(PID.TID 0000.0001) %MON forcing_fv_del2              =   2.3375900006026E-04
(PID.TID 0000.0001) %MON trAdv_CFL_u_max              =   9.8447404177819E-02
(PID.TID 0000.0001) %MON trAdv_CFL_v_max              =   1.1123799322015E-01
(PID.TID 0000.0001) %MON trAdv_CFL_w_max              =   1.3494051605958E-01
(PID.TID 0000.0001) %MON advcfl_uvel_max              =   8.1929047293391E-02
(PID.TID 0000.0001) %MON advcfl_vvel_max              =   7.6700626782373E-02
(PID.TID 0000.0001) %MON advcfl_wvel_max              =   6.7095319928495E-02
(PID.TID 0000.0001) %MON advcfl_W_hf_max              =   7.4084415754380E-02
(PID.TID 0000.0001) %MON pe_b_mean                    =   5.2594558661725E-04
(PID.TID 0000.0001) %MON ke_max                       =   4.0869318112633E-02
(PID.TID 0000.0001) %MON ke_mean                      =   1.6649442290641E-04
(PID.TID 0000.0001) %MON ke_vol                       =   1.3398024453628E+18
(PID.TID 0000.0001) %MON vort_r_min                   =  -1.0833607027185E-06
(PID.TID 0000.0001) %MON vort_r_max                   =   1.2080458587080E-06
(PID.TID 0000.0001) %MON vort_a_mean                  =  -2.0549865324846E-05
(PID.TID 0000.0001) %MON vort_a_sd                    =   7.5259617277128E-05
(PID.TID 0000.0001) %MON vort_p_mean                  =  -2.4783522345032E-05
(PID.TID 0000.0001) %MON vort_p_sd                    =   1.2810597761734E-04
(PID.TID 0000.0001) %MON surfExpan_theta_mean         =   3.7531241038267E-08
(PID.TID 0000.0001) %MON surfExpan_salt_mean          =   1.4233657796073E-08
(PID.TID 0000.0001) // =======================================================
(PID.TID 0000.0001) // End MONITOR dynamic field statistics
(PID.TID 0000.0001) // =======================================================
(PID.TID 0000.0001) // =======================================================
(PID.TID 0000.0001) // Begin MONITOR ptracer field statistics
(PID.TID 0000.0001) // =======================================================
(PID.TID 0000.0001) %MON trcstat_ptracer01_max        =   1.5874679097296E+08
(PID.TID 0000.0001) %MON trcstat_ptracer01_min        =  -3.5885092628127E+06
(PID.TID 0000.0001) %MON trcstat_ptracer01_mean       =   1.4908302703007E+08
(PID.TID 0000.0001) %MON trcstat_ptracer01_sd         =   2.4407075486737E+07
(PID.TID 0000.0001) %MON trcstat_ptracer01_del2       =   3.9109413479759E+04
(PID.TID 0000.0001) // =======================================================
(PID.TID 0000.0001) // End MONITOR ptracer field statistics
(PID.TID 0000.0001) // =======================================================
 Computing Diagnostic #    79 "DRHODR  " (list#  1) Parms "SM      LR      ", Count=      10
 Computing Diagnostic #    64 "RHOAnoma" (list#  1) Parms "SMR     MR      ", Count=      10
 Computing Diagnostic #    80 "CONVADJ " (list#  1) Parms "SMR     LR      ", Count=      10
 Computing Diagnostic #   210 "GM_Kwx  " (list#  1) Parms "UM      LR      ", Count=      10
             Vector  Mate for "GM_Kwx  " :  Diagnostic #    211 "GM_Kwy  " exists
 Computing Diagnostic #   211 "GM_Kwy  " (list#  1) Parms "VM      LR      ", Count=      10
             Vector  Mate for "GM_Kwy  " :  Diagnostic #    210 "GM_Kwx  " exists
 Computing Diagnostic #   212 "GM_Kwz  " (list#  1) Parms "WM P    LR      ", Count=      10
 Computing Diagnostic #   213 "GM_PsiX " (list#  1) Parms "UU      LR      ", Count=      10
             Vector  Mate for "GM_PsiX " :  Diagnostic #    214 "GM_PsiY " exists
 Computing Diagnostic #   214 "GM_PsiY " (list#  1) Parms "VV      LR      ", Count=      10
             Vector  Mate for "GM_PsiY " :  Diagnostic #    213 "GM_PsiX " exists
(PID.TID 0000.0001) DIAGSTATS_CLOSE_IO: close file: dynStDiag.0000000000.txt , unit=     9
(PID.TID 0000.0001) %CHECKPOINT      1800 0000001800
(PID.TID 0000.0001)   Seconds in section "ALL                    [THE_MODEL_MAIN]":
(PID.TID 0000.0001)           User time:   99.1360996523872
(PID.TID 0000.0001)         System time:  0.000000000000000E+000
(PID.TID 0000.0001)     Wall clock time:   105.933830022812
(PID.TID 0000.0001)          No. starts:           1
(PID.TID 0000.0001)           No. stops:           1
(PID.TID 0000.0001)   Seconds in section "INITIALISE_FIXED       [THE_MODEL_MAIN]":
(PID.TID 0000.0001)           User time:  3.529899846762419E-002
(PID.TID 0000.0001)         System time:  0.000000000000000E+000
(PID.TID 0000.0001)     Wall clock time:  7.422900199890137E-002
(PID.TID 0000.0001)          No. starts:           1
(PID.TID 0000.0001)           No. stops:           1
(PID.TID 0000.0001)   Seconds in section "THE_MAIN_LOOP          [THE_MODEL_MAIN]":
(PID.TID 0000.0001)           User time:   99.1007810235023
(PID.TID 0000.0001)         System time:  0.000000000000000E+000
(PID.TID 0000.0001)     Wall clock time:   105.859579801559
(PID.TID 0000.0001)          No. starts:           1
(PID.TID 0000.0001)           No. stops:           1
(PID.TID 0000.0001)   Seconds in section "INITIALISE_VARIA    [THE_MAIN_LOOP]":
(PID.TID 0000.0001)           User time:  5.231100320816040E-002
(PID.TID 0000.0001)         System time:  0.000000000000000E+000
(PID.TID 0000.0001)     Wall clock time:  0.146018028259277
(PID.TID 0000.0001)          No. starts:           1
(PID.TID 0000.0001)           No. stops:           1
(PID.TID 0000.0001)   Seconds in section "MAIN LOOP           [THE_MAIN_LOOP]":
(PID.TID 0000.0001)           User time:   99.0484553948045
(PID.TID 0000.0001)         System time:  0.000000000000000E+000
(PID.TID 0000.0001)     Wall clock time:   105.713543891907
(PID.TID 0000.0001)          No. starts:           1
(PID.TID 0000.0001)           No. stops:           1
(PID.TID 0000.0001)   Seconds in section "MAIN_DO_LOOP        [THE_MAIN_LOOP]":
(PID.TID 0000.0001)           User time:   99.0377595722675
(PID.TID 0000.0001)         System time:  0.000000000000000E+000
(PID.TID 0000.0001)     Wall clock time:   105.702373504639
(PID.TID 0000.0001)          No. starts:        1800
(PID.TID 0000.0001)           No. stops:        1800
(PID.TID 0000.0001)   Seconds in section "FORWARD_STEP        [MAIN_DO_LOOP]":
(PID.TID 0000.0001)           User time:   99.0157092064619
(PID.TID 0000.0001)         System time:  0.000000000000000E+000
(PID.TID 0000.0001)     Wall clock time:   105.679890632629
(PID.TID 0000.0001)          No. starts:        1800
(PID.TID 0000.0001)           No. stops:        1800
(PID.TID 0000.0001)   Seconds in section "DO_STATEVARS_DIAGS  [FORWARD_STEP]":
(PID.TID 0000.0001)           User time:  0.522157050669193
(PID.TID 0000.0001)         System time:  0.000000000000000E+000
(PID.TID 0000.0001)     Wall clock time:  0.526629447937012
(PID.TID 0000.0001)          No. starts:        5400
(PID.TID 0000.0001)           No. stops:        5400
(PID.TID 0000.0001)   Seconds in section "LOAD_FIELDS_DRIVER  [FORWARD_STEP]":
(PID.TID 0000.0001)           User time:  0.522169046103954
(PID.TID 0000.0001)         System time:  0.000000000000000E+000
(PID.TID 0000.0001)     Wall clock time:  0.657639741897583
(PID.TID 0000.0001)          No. starts:        1800
(PID.TID 0000.0001)           No. stops:        1800
(PID.TID 0000.0001)   Seconds in section "EXTERNAL_FLDS_LOAD [LOAD_FLDS_DRIVER]":
(PID.TID 0000.0001)           User time:  0.499065384268761
(PID.TID 0000.0001)         System time:  0.000000000000000E+000
(PID.TID 0000.0001)     Wall clock time:  0.634868860244751
(PID.TID 0000.0001)          No. starts:        1800
(PID.TID 0000.0001)           No. stops:        1800
(PID.TID 0000.0001)   Seconds in section "DO_ATMOSPHERIC_PHYS [FORWARD_STEP]":
(PID.TID 0000.0001)           User time:  1.077262312173843E-002
(PID.TID 0000.0001)         System time:  0.000000000000000E+000
(PID.TID 0000.0001)     Wall clock time:  1.132225990295410E-002
(PID.TID 0000.0001)          No. starts:        1800
(PID.TID 0000.0001)           No. stops:        1800
(PID.TID 0000.0001)   Seconds in section "DO_OCEANIC_PHYS     [FORWARD_STEP]":
(PID.TID 0000.0001)           User time:   21.4504013359547
(PID.TID 0000.0001)         System time:  0.000000000000000E+000
(PID.TID 0000.0001)     Wall clock time:   21.6114523410797
(PID.TID 0000.0001)          No. starts:        1800
(PID.TID 0000.0001)           No. stops:        1800
(PID.TID 0000.0001)   Seconds in section "DYNAMICS            [FORWARD_STEP]":
(PID.TID 0000.0001)           User time:   18.7435538545251
(PID.TID 0000.0001)         System time:  0.000000000000000E+000
(PID.TID 0000.0001)     Wall clock time:   18.8352973461151
(PID.TID 0000.0001)          No. starts:        1800
(PID.TID 0000.0001)           No. stops:        1800
(PID.TID 0000.0001)   Seconds in section "UPDATE_SURF_DR      [FORWARD_STEP]":
(PID.TID 0000.0001)           User time:  0.665859244763851
(PID.TID 0000.0001)         System time:  0.000000000000000E+000
(PID.TID 0000.0001)     Wall clock time:  0.676710367202759
(PID.TID 0000.0001)          No. starts:        1800
(PID.TID 0000.0001)           No. stops:        1800
(PID.TID 0000.0001)   Seconds in section "SOLVE_FOR_PRESSURE  [FORWARD_STEP]":
(PID.TID 0000.0001)           User time:   8.05374618619680
(PID.TID 0000.0001)         System time:  0.000000000000000E+000
(PID.TID 0000.0001)     Wall clock time:   8.11615157127380
(PID.TID 0000.0001)          No. starts:        1800
(PID.TID 0000.0001)           No. stops:        1800
(PID.TID 0000.0001)   Seconds in section "MOM_CORRECTION_STEP [FORWARD_STEP]":
(PID.TID 0000.0001)           User time:   1.50153268873692
(PID.TID 0000.0001)         System time:  0.000000000000000E+000
(PID.TID 0000.0001)     Wall clock time:   1.51259279251099
(PID.TID 0000.0001)          No. starts:        1800
(PID.TID 0000.0001)           No. stops:        1800
(PID.TID 0000.0001)   Seconds in section "INTEGR_CONTINUITY   [FORWARD_STEP]":
(PID.TID 0000.0001)           User time:   1.51394170522690
(PID.TID 0000.0001)         System time:  0.000000000000000E+000
(PID.TID 0000.0001)     Wall clock time:   1.52982950210571
(PID.TID 0000.0001)          No. starts:        1800
(PID.TID 0000.0001)           No. stops:        1800
(PID.TID 0000.0001)   Seconds in section "BLOCKING_EXCHANGES  [FORWARD_STEP]":
(PID.TID 0000.0001)           User time:   6.64857427775860
(PID.TID 0000.0001)         System time:  0.000000000000000E+000
(PID.TID 0000.0001)     Wall clock time:   6.67807030677795
(PID.TID 0000.0001)          No. starts:        3600
(PID.TID 0000.0001)           No. stops:        3600
(PID.TID 0000.0001)   Seconds in section "THERMODYNAMICS      [FORWARD_STEP]":
(PID.TID 0000.0001)           User time:   21.5393806248903
(PID.TID 0000.0001)         System time:  0.000000000000000E+000
(PID.TID 0000.0001)     Wall clock time:   21.6242997646332
(PID.TID 0000.0001)          No. starts:        1800
(PID.TID 0000.0001)           No. stops:        1800
(PID.TID 0000.0001)   Seconds in section "TRC_CORRECTION_STEP [FORWARD_STEP]":
(PID.TID 0000.0001)           User time:  1.231850683689117E-002
(PID.TID 0000.0001)         System time:  0.000000000000000E+000
(PID.TID 0000.0001)     Wall clock time:  1.236391067504883E-002
(PID.TID 0000.0001)          No. starts:        1800
(PID.TID 0000.0001)           No. stops:        1800
(PID.TID 0000.0001)   Seconds in section "LONGSTEP_AVERAGE    [FORWARD_STEP]":
(PID.TID 0000.0001)           User time:   4.56927007436752
(PID.TID 0000.0001)         System time:  0.000000000000000E+000
(PID.TID 0000.0001)     Wall clock time:   4.61743021011353
(PID.TID 0000.0001)          No. starts:        1800
(PID.TID 0000.0001)           No. stops:        1800
(PID.TID 0000.0001)   Seconds in section "LONGSTEP_THERMODYNAMICS      [FORWARD_STEP]":
(PID.TID 0000.0001)           User time:   3.28463000059128
(PID.TID 0000.0001)         System time:  0.000000000000000E+000
(PID.TID 0000.0001)     Wall clock time:   3.29564046859741
(PID.TID 0000.0001)          No. starts:        1800
(PID.TID 0000.0001)           No. stops:        1800
(PID.TID 0000.0001)   Seconds in section "DO_STATEVARS_TAVE   [FORWARD_STEP]":
(PID.TID 0000.0001)           User time:   4.76169458031654
(PID.TID 0000.0001)         System time:  0.000000000000000E+000
(PID.TID 0000.0001)     Wall clock time:   4.82503724098206
(PID.TID 0000.0001)          No. starts:        1800
(PID.TID 0000.0001)           No. stops:        1800
(PID.TID 0000.0001)   Seconds in section "MONITOR             [FORWARD_STEP]":
(PID.TID 0000.0001)           User time:  0.385933309793472
(PID.TID 0000.0001)         System time:  0.000000000000000E+000
(PID.TID 0000.0001)     Wall clock time:  0.392742395401001
(PID.TID 0000.0001)          No. starts:        1800
(PID.TID 0000.0001)           No. stops:        1800
(PID.TID 0000.0001)   Seconds in section "DO_THE_MODEL_IO     [FORWARD_STEP]":
(PID.TID 0000.0001)           User time:   4.41618786752224
(PID.TID 0000.0001)         System time:  0.000000000000000E+000
(PID.TID 0000.0001)     Wall clock time:   10.2001514434814
(PID.TID 0000.0001)          No. starts:        1800
(PID.TID 0000.0001)           No. stops:        1800
(PID.TID 0000.0001)   Seconds in section "PTRACERS_RESET      [FORWARD_STEP]":
(PID.TID 0000.0001)           User time:  1.127666234970093E-002
(PID.TID 0000.0001)         System time:  0.000000000000000E+000
(PID.TID 0000.0001)     Wall clock time:  1.179409027099609E-002
(PID.TID 0000.0001)          No. starts:        1800
(PID.TID 0000.0001)           No. stops:        1800
(PID.TID 0000.0001)   Seconds in section "DO_WRITE_PICKUP     [FORWARD_STEP]":
(PID.TID 0000.0001)           User time:  0.116505011916161
(PID.TID 0000.0001)         System time:  0.000000000000000E+000
(PID.TID 0000.0001)     Wall clock time:  0.278061389923096
(PID.TID 0000.0001)          No. starts:        1800
(PID.TID 0000.0001)           No. stops:        1800
(PID.TID 0000.0001) // ======================================================
(PID.TID 0000.0001) // Tile <-> Tile communication statistics
(PID.TID 0000.0001) // ======================================================
(PID.TID 0000.0001) // o Tile number: 000001
(PID.TID 0000.0001) //         No. X exchanges =              0
(PID.TID 0000.0001) //            Max. X spins =              0
(PID.TID 0000.0001) //            Min. X spins =     1000000000
(PID.TID 0000.0001) //          Total. X spins =              0
(PID.TID 0000.0001) //            Avg. X spins =       0.00E+00
(PID.TID 0000.0001) //         No. Y exchanges =              0
(PID.TID 0000.0001) //            Max. Y spins =              0
(PID.TID 0000.0001) //            Min. Y spins =     1000000000
(PID.TID 0000.0001) //          Total. Y spins =              0
(PID.TID 0000.0001) //            Avg. Y spins =       0.00E+00
(PID.TID 0000.0001) // o Tile number: 000002
(PID.TID 0000.0001) //         No. X exchanges =              0
(PID.TID 0000.0001) //            Max. X spins =              0
(PID.TID 0000.0001) //            Min. X spins =     1000000000
(PID.TID 0000.0001) //          Total. X spins =              0
(PID.TID 0000.0001) //            Avg. X spins =       0.00E+00
(PID.TID 0000.0001) //         No. Y exchanges =              0
(PID.TID 0000.0001) //            Max. Y spins =              0
(PID.TID 0000.0001) //            Min. Y spins =     1000000000
(PID.TID 0000.0001) //          Total. Y spins =              0
(PID.TID 0000.0001) //            Avg. Y spins =       0.00E+00
(PID.TID 0000.0001) // o Tile number: 000003
(PID.TID 0000.0001) //         No. X exchanges =              0
(PID.TID 0000.0001) //            Max. X spins =              0
(PID.TID 0000.0001) //            Min. X spins =     1000000000
(PID.TID 0000.0001) //          Total. X spins =              0
(PID.TID 0000.0001) //            Avg. X spins =       0.00E+00
(PID.TID 0000.0001) //         No. Y exchanges =              0
(PID.TID 0000.0001) //            Max. Y spins =              0
(PID.TID 0000.0001) //            Min. Y spins =     1000000000
(PID.TID 0000.0001) //          Total. Y spins =              0
(PID.TID 0000.0001) //            Avg. Y spins =       0.00E+00
(PID.TID 0000.0001) // o Tile number: 000004
(PID.TID 0000.0001) //         No. X exchanges =              0
(PID.TID 0000.0001) //            Max. X spins =              0
(PID.TID 0000.0001) //            Min. X spins =     1000000000
(PID.TID 0000.0001) //          Total. X spins =              0
(PID.TID 0000.0001) //            Avg. X spins =       0.00E+00
(PID.TID 0000.0001) //         No. Y exchanges =              0
(PID.TID 0000.0001) //            Max. Y spins =              0
(PID.TID 0000.0001) //            Min. Y spins =     1000000000
(PID.TID 0000.0001) //          Total. Y spins =              0
(PID.TID 0000.0001) //            Avg. Y spins =       0.00E+00
(PID.TID 0000.0001) // o Tile number: 000005
(PID.TID 0000.0001) //         No. X exchanges =              0
(PID.TID 0000.0001) //            Max. X spins =              0
(PID.TID 0000.0001) //            Min. X spins =     1000000000
(PID.TID 0000.0001) //          Total. X spins =              0
(PID.TID 0000.0001) //            Avg. X spins =       0.00E+00
(PID.TID 0000.0001) //         No. Y exchanges =              0
(PID.TID 0000.0001) //            Max. Y spins =              0
(PID.TID 0000.0001) //            Min. Y spins =     1000000000
(PID.TID 0000.0001) //          Total. Y spins =              0
(PID.TID 0000.0001) //            Avg. Y spins =       0.00E+00
(PID.TID 0000.0001) // o Tile number: 000006
(PID.TID 0000.0001) //         No. X exchanges =              0
(PID.TID 0000.0001) //            Max. X spins =              0
(PID.TID 0000.0001) //            Min. X spins =     1000000000
(PID.TID 0000.0001) //          Total. X spins =              0
(PID.TID 0000.0001) //            Avg. X spins =       0.00E+00
(PID.TID 0000.0001) //         No. Y exchanges =              0
(PID.TID 0000.0001) //            Max. Y spins =              0
(PID.TID 0000.0001) //            Min. Y spins =     1000000000
(PID.TID 0000.0001) //          Total. Y spins =              0
(PID.TID 0000.0001) //            Avg. Y spins =       0.00E+00
(PID.TID 0000.0001) // o Tile number: 000007
(PID.TID 0000.0001) //         No. X exchanges =              0
(PID.TID 0000.0001) //            Max. X spins =              0
(PID.TID 0000.0001) //            Min. X spins =     1000000000
(PID.TID 0000.0001) //          Total. X spins =              0
(PID.TID 0000.0001) //            Avg. X spins =       0.00E+00
(PID.TID 0000.0001) //         No. Y exchanges =              0
(PID.TID 0000.0001) //            Max. Y spins =              0
(PID.TID 0000.0001) //            Min. Y spins =     1000000000
(PID.TID 0000.0001) //          Total. Y spins =              0
(PID.TID 0000.0001) //            Avg. Y spins =       0.00E+00
(PID.TID 0000.0001) // o Tile number: 000008
(PID.TID 0000.0001) //         No. X exchanges =              0
(PID.TID 0000.0001) //            Max. X spins =              0
(PID.TID 0000.0001) //            Min. X spins =     1000000000
(PID.TID 0000.0001) //          Total. X spins =              0
(PID.TID 0000.0001) //            Avg. X spins =       0.00E+00
(PID.TID 0000.0001) //         No. Y exchanges =              0
(PID.TID 0000.0001) //            Max. Y spins =              0
(PID.TID 0000.0001) //            Min. Y spins =     1000000000
(PID.TID 0000.0001) //          Total. Y spins =              0
(PID.TID 0000.0001) //            Avg. Y spins =       0.00E+00
(PID.TID 0000.0001) // o Tile number: 000009
(PID.TID 0000.0001) //         No. X exchanges =              0
(PID.TID 0000.0001) //            Max. X spins =              0
(PID.TID 0000.0001) //            Min. X spins =     1000000000
(PID.TID 0000.0001) //          Total. X spins =              0
(PID.TID 0000.0001) //            Avg. X spins =       0.00E+00
(PID.TID 0000.0001) //         No. Y exchanges =              0
(PID.TID 0000.0001) //            Max. Y spins =              0
(PID.TID 0000.0001) //            Min. Y spins =     1000000000
(PID.TID 0000.0001) //          Total. Y spins =              0
(PID.TID 0000.0001) //            Avg. Y spins =       0.00E+00
(PID.TID 0000.0001) // o Tile number: 000010
(PID.TID 0000.0001) //         No. X exchanges =              0
(PID.TID 0000.0001) //            Max. X spins =              0
(PID.TID 0000.0001) //            Min. X spins =     1000000000
(PID.TID 0000.0001) //          Total. X spins =              0
(PID.TID 0000.0001) //            Avg. X spins =       0.00E+00
(PID.TID 0000.0001) //         No. Y exchanges =              0
(PID.TID 0000.0001) //            Max. Y spins =              0
(PID.TID 0000.0001) //            Min. Y spins =     1000000000
(PID.TID 0000.0001) //          Total. Y spins =              0
(PID.TID 0000.0001) //            Avg. Y spins =       0.00E+00
(PID.TID 0000.0001) // o Tile number: 000011
(PID.TID 0000.0001) //         No. X exchanges =              0
(PID.TID 0000.0001) //            Max. X spins =              0
(PID.TID 0000.0001) //            Min. X spins =     1000000000
(PID.TID 0000.0001) //          Total. X spins =              0
(PID.TID 0000.0001) //            Avg. X spins =       0.00E+00
(PID.TID 0000.0001) //         No. Y exchanges =              0
(PID.TID 0000.0001) //            Max. Y spins =              0
(PID.TID 0000.0001) //            Min. Y spins =     1000000000
(PID.TID 0000.0001) //          Total. Y spins =              0
(PID.TID 0000.0001) //            Avg. Y spins =       0.00E+00
(PID.TID 0000.0001) // o Tile number: 000012
(PID.TID 0000.0001) //         No. X exchanges =              0
(PID.TID 0000.0001) //            Max. X spins =              0
(PID.TID 0000.0001) //            Min. X spins =     1000000000
(PID.TID 0000.0001) //          Total. X spins =              0
(PID.TID 0000.0001) //            Avg. X spins =       0.00E+00
(PID.TID 0000.0001) //         No. Y exchanges =              0
(PID.TID 0000.0001) //            Max. Y spins =              0
(PID.TID 0000.0001) //            Min. Y spins =     1000000000
(PID.TID 0000.0001) //          Total. Y spins =              0
(PID.TID 0000.0001) //            Avg. Y spins =       0.00E+00
(PID.TID 0000.0001) // o Thread number: 000001
(PID.TID 0000.0001) //            No. barriers =        1323682
(PID.TID 0000.0001) //      Max. barrier spins =              1
(PID.TID 0000.0001) //      Min. barrier spins =              1
(PID.TID 0000.0001) //     Total barrier spins =        1323682
(PID.TID 0000.0001) //      Avg. barrier spins =       1.00E+00
PROGRAM MAIN: Execution ended Normally
