(PID.TID 0000.0001) 
(PID.TID 0000.0001) // ======================================================
(PID.TID 0000.0001) //                      MITgcm UV
(PID.TID 0000.0001) //                      =========
(PID.TID 0000.0001) // ======================================================
(PID.TID 0000.0001) // execution environment starting up...
(PID.TID 0000.0001) 
(PID.TID 0000.0001) // MITgcmUV version:  checkpoint68o
(PID.TID 0000.0001) // Build user:        jm_c
(PID.TID 0000.0001) // Build host:        villon
(PID.TID 0000.0001) // Build date:        Thu Mar 30 15:52:04 EDT 2023
(PID.TID 0000.0001) 
(PID.TID 0000.0001) // =======================================================
(PID.TID 0000.0001) // Execution Environment parameter file "eedata"
(PID.TID 0000.0001) // =======================================================
(PID.TID 0000.0001) ># Example "eedata" file
(PID.TID 0000.0001) ># Lines beginning "#" are comments
(PID.TID 0000.0001) ># nTx - No. threads per process in X
(PID.TID 0000.0001) ># nTy - No. threads per process in Y
(PID.TID 0000.0001) > &EEPARMS
(PID.TID 0000.0001) > /
(PID.TID 0000.0001) ># Note: Some systems use & as the
(PID.TID 0000.0001) ># namelist terminator. Other systems
(PID.TID 0000.0001) ># use a / character (as shown here).
(PID.TID 0000.0001) 
(PID.TID 0000.0001) // =======================================================
(PID.TID 0000.0001) // Computational Grid Specification ( see files "SIZE.h" )
(PID.TID 0000.0001) //                                  ( and "eedata"       )
(PID.TID 0000.0001) // =======================================================
(PID.TID 0000.0001)      nPx =    1 ; /* No. processes in X */
(PID.TID 0000.0001)      nPy =    1 ; /* No. processes in Y */
(PID.TID 0000.0001)      nSx =    4 ; /* No. tiles in X per process */
(PID.TID 0000.0001)      nSy =    1 ; /* No. tiles in Y per process */
(PID.TID 0000.0001)      sNx =   80 ; /* Tile size in X */
(PID.TID 0000.0001)      sNy =    1 ; /* Tile size in Y */
(PID.TID 0000.0001)      OLx =    3 ; /* Tile overlap distance in X */
(PID.TID 0000.0001)      OLy =    3 ; /* Tile overlap distance in Y */
(PID.TID 0000.0001)      nTx =    1 ; /* No. threads in X per process */
(PID.TID 0000.0001)      nTy =    1 ; /* No. threads in Y per process */
(PID.TID 0000.0001)       Nr =   60 ; /* No. levels in the vertical   */
(PID.TID 0000.0001)       Nx =  320 ; /* Total domain size in X ( = nPx*nSx*sNx ) */
(PID.TID 0000.0001)       Ny =    1 ; /* Total domain size in Y ( = nPy*nSy*sNy ) */
(PID.TID 0000.0001)   nTiles =    4 ; /* Total no. tiles per process ( = nSx*nSy ) */
(PID.TID 0000.0001)   nProcs =    1 ; /* Total no. processes ( = nPx*nPy ) */
(PID.TID 0000.0001) nThreads =    1 ; /* Total no. threads per process ( = nTx*nTy ) */
(PID.TID 0000.0001) usingMPI =    F ; /* Flag used to control whether MPI is in use */
(PID.TID 0000.0001)                   /*  note: To execute a program with MPI calls */
(PID.TID 0000.0001)                   /*  it must be launched appropriately e.g     */
(PID.TID 0000.0001)                   /*  "mpirun -np 64 ......"                    */
(PID.TID 0000.0001) useCoupler=   F ; /* Flag used to control communications with   */
(PID.TID 0000.0001)                   /*  other model components, through a coupler */
(PID.TID 0000.0001) useNest2W_parent =    F ;/* Control 2-W Nesting comm */
(PID.TID 0000.0001) useNest2W_child  =    F ;/* Control 2-W Nesting comm */
(PID.TID 0000.0001) debugMode =    F ; /* print debug msg. (sequence of S/R calls)  */
(PID.TID 0000.0001) printMapIncludesZeros=    F ; /* print zeros in Std.Output maps */
(PID.TID 0000.0001) maxLengthPrt1D=   65 /* maxLength of 1D array printed to StdOut */
(PID.TID 0000.0001) 
(PID.TID 0000.0001) // ======================================================
(PID.TID 0000.0001) // Mapping of tiles to threads
(PID.TID 0000.0001) // ======================================================
(PID.TID 0000.0001) // -o- Thread   1, tiles (   1:   4,   1:   1)
(PID.TID 0000.0001) 
(PID.TID 0000.0001) // ======================================================
(PID.TID 0000.0001) // Tile <-> Tile connectvity table
(PID.TID 0000.0001) // ======================================================
(PID.TID 0000.0001) // Tile number: 000001 (process no. = 000000)
(PID.TID 0000.0001) //        WEST: Tile = 000004, Process = 000000, Comm = put
(PID.TID 0000.0001) //                bi = 000004, bj = 000001
(PID.TID 0000.0001) //        EAST: Tile = 000002, Process = 000000, Comm = put
(PID.TID 0000.0001) //                bi = 000002, bj = 000001
(PID.TID 0000.0001) //       SOUTH: Tile = 000001, Process = 000000, Comm = put
(PID.TID 0000.0001) //                bi = 000001, bj = 000001
(PID.TID 0000.0001) //       NORTH: Tile = 000001, Process = 000000, Comm = put
(PID.TID 0000.0001) //                bi = 000001, bj = 000001
(PID.TID 0000.0001) // Tile number: 000002 (process no. = 000000)
(PID.TID 0000.0001) //        WEST: Tile = 000001, Process = 000000, Comm = put
(PID.TID 0000.0001) //                bi = 000001, bj = 000001
(PID.TID 0000.0001) //        EAST: Tile = 000003, Process = 000000, Comm = put
(PID.TID 0000.0001) //                bi = 000003, bj = 000001
(PID.TID 0000.0001) //       SOUTH: Tile = 000002, Process = 000000, Comm = put
(PID.TID 0000.0001) //                bi = 000002, bj = 000001
(PID.TID 0000.0001) //       NORTH: Tile = 000002, Process = 000000, Comm = put
(PID.TID 0000.0001) //                bi = 000002, bj = 000001
(PID.TID 0000.0001) // Tile number: 000003 (process no. = 000000)
(PID.TID 0000.0001) //        WEST: Tile = 000002, Process = 000000, Comm = put
(PID.TID 0000.0001) //                bi = 000002, bj = 000001
(PID.TID 0000.0001) //        EAST: Tile = 000004, Process = 000000, Comm = put
(PID.TID 0000.0001) //                bi = 000004, bj = 000001
(PID.TID 0000.0001) //       SOUTH: Tile = 000003, Process = 000000, Comm = put
(PID.TID 0000.0001) //                bi = 000003, bj = 000001
(PID.TID 0000.0001) //       NORTH: Tile = 000003, Process = 000000, Comm = put
(PID.TID 0000.0001) //                bi = 000003, bj = 000001
(PID.TID 0000.0001) // Tile number: 000004 (process no. = 000000)
(PID.TID 0000.0001) //        WEST: Tile = 000003, Process = 000000, Comm = put
(PID.TID 0000.0001) //                bi = 000003, bj = 000001
(PID.TID 0000.0001) //        EAST: Tile = 000001, Process = 000000, Comm = put
(PID.TID 0000.0001) //                bi = 000001, bj = 000001
(PID.TID 0000.0001) //       SOUTH: Tile = 000004, Process = 000000, Comm = put
(PID.TID 0000.0001) //                bi = 000004, bj = 000001
(PID.TID 0000.0001) //       NORTH: Tile = 000004, Process = 000000, Comm = put
(PID.TID 0000.0001) //                bi = 000004, bj = 000001
(PID.TID 0000.0001) 
(PID.TID 0000.0001)  INI_PARMS: opening model parameter file "data"
(PID.TID 0000.0001)  OPEN_COPY_DATA_FILE: opening file data
(PID.TID 0000.0001) // =======================================================
(PID.TID 0000.0001) // Parameter file "data"
(PID.TID 0000.0001) // =======================================================
(PID.TID 0000.0001) ># ====================
(PID.TID 0000.0001) ># | Model parameters |
(PID.TID 0000.0001) ># ====================
(PID.TID 0000.0001) >#
(PID.TID 0000.0001) ># Continuous equation parameters
(PID.TID 0000.0001) > &PARM01
(PID.TID 0000.0001) > tRef=60*1.,
(PID.TID 0000.0001) > sRef=60*35.,
(PID.TID 0000.0001) > viscA4=0.0E4,
(PID.TID 0000.0001) > viscAh=1.E-2,
(PID.TID 0000.0001) > viscAz=1.E-3,
(PID.TID 0000.0001) > bottomDragLinear=0.E-4,
(PID.TID 0000.0001) > no_slip_sides=.TRUE.,
(PID.TID 0000.0001) > no_slip_bottom=.FALSE.,
(PID.TID 0000.0001) ># Instead of a constant bottom drag coefficient, compute coefficient
(PID.TID 0000.0001) ># from logarithmic law of the wall and bottom roughness length.
(PID.TID 0000.0001) > zRoughBot = 0.01,
(PID.TID 0000.0001) ># For this configuration (vertical grid spacing)
(PID.TID 0000.0001) ># this value of zRoughBot corresponds to approximately
(PID.TID 0000.0001) ># bottomDragQuadratic=5.E-2,
(PID.TID 0000.0001) > diffK4T=0.E4,
(PID.TID 0000.0001) > diffKhT=0.E-2,
(PID.TID 0000.0001) > diffKzT=0.E-3,
(PID.TID 0000.0001) > diffK4S=0.E4,
(PID.TID 0000.0001) > diffKhS=1.E-2,
(PID.TID 0000.0001) > diffKzS=1.E-5,
(PID.TID 0000.0001) > tempAdvScheme=33,
(PID.TID 0000.0001) > staggerTimeStep=.TRUE.,
(PID.TID 0000.0001) > f0=0.e-4,
(PID.TID 0000.0001) > beta=0.E-11,
(PID.TID 0000.0001) > eosType='LINEAR',
(PID.TID 0000.0001) > tAlpha=2.E-4,
(PID.TID 0000.0001) > sBeta =0.E-4,
(PID.TID 0000.0001) > rigidLid=.FALSE.,
(PID.TID 0000.0001) > implicitFreeSurface=.TRUE.,
(PID.TID 0000.0001) > hFacMin=0.05,
(PID.TID 0000.0001) > nonHydrostatic=.TRUE.,
(PID.TID 0000.0001) > readBinaryPrec=64,
(PID.TID 0000.0001) >#- not safe to use globalFiles in multi-processors runs
(PID.TID 0000.0001) >#globalFiles=.TRUE.,
(PID.TID 0000.0001) > useSingleCpuIO = .TRUE.,
(PID.TID 0000.0001) > plotLevel=0,
(PID.TID 0000.0001) > /
(PID.TID 0000.0001) >
(PID.TID 0000.0001) ># Elliptic solver parameters
(PID.TID 0000.0001) > &PARM02
(PID.TID 0000.0001) > cg2dMaxIters=300,
(PID.TID 0000.0001) > cg2dTargetResidual=1.E-13,
(PID.TID 0000.0001) > cg3dMaxIters=20,
(PID.TID 0000.0001) > cg3dTargetResidual=1.E-8,
(PID.TID 0000.0001) > /
(PID.TID 0000.0001) >
(PID.TID 0000.0001) ># Time stepping parameters
(PID.TID 0000.0001) > &PARM03
(PID.TID 0000.0001) > nIter0=0,
(PID.TID 0000.0001) > nTimeSteps=20,
(PID.TID 0000.0001) >#nTimeSteps=8640,
(PID.TID 0000.0001) > deltaT=20.0,
(PID.TID 0000.0001) > abEps=0.01,
(PID.TID 0000.0001) > pChkptFreq=0.0,
(PID.TID 0000.0001) > chkptFreq=0.0,
(PID.TID 0000.0001) > dumpFreq=6000.0,
(PID.TID 0000.0001) >#taveFreq=864000.0,
(PID.TID 0000.0001) > monitorSelect=2,
(PID.TID 0000.0001) > monitorFreq=1.,
(PID.TID 0000.0001) > /
(PID.TID 0000.0001) >
(PID.TID 0000.0001) ># Gridding parameters
(PID.TID 0000.0001) > &PARM04
(PID.TID 0000.0001) > usingCartesianGrid=.TRUE.,
(PID.TID 0000.0001) > delXfile='dx.bin',
(PID.TID 0000.0001) > dYspacing=200.,
(PID.TID 0000.0001) > delZ=60*3.33333333333333333333333,
(PID.TID 0000.0001) > /
(PID.TID 0000.0001) >
(PID.TID 0000.0001) ># Input datasets
(PID.TID 0000.0001) > &PARM05
(PID.TID 0000.0001) > bathyFile      ='topog.slope',
(PID.TID 0000.0001) > hydrogThetaFile='T.init',
(PID.TID 0000.0001) > surfQnetFile   ='Qnet.forcing',
(PID.TID 0000.0001) >#hydrogThetaFile='T.pickup',
(PID.TID 0000.0001) >#uVelInitFile   ='U.pickup',
(PID.TID 0000.0001) >#pSurfInitFile  ='Eta.pickup',
(PID.TID 0000.0001) > /
(PID.TID 0000.0001) 
(PID.TID 0000.0001)  INI_PARMS ; starts to read PARM01
(PID.TID 0000.0001)  INI_PARMS ; read PARM01 : OK
(PID.TID 0000.0001)  INI_PARMS ; starts to read PARM02
(PID.TID 0000.0001)  INI_PARMS ; read PARM02 : OK
(PID.TID 0000.0001)  INI_PARMS ; starts to read PARM03
(PID.TID 0000.0001)  INI_PARMS ; read PARM03 : OK
(PID.TID 0000.0001)  INI_PARMS ; starts to read PARM04
(PID.TID 0000.0001)  INI_PARMS ; read PARM04 : OK
(PID.TID 0000.0001)  INI_PARMS ; starts to read PARM05
(PID.TID 0000.0001)  INI_PARMS ; read PARM05 : OK
(PID.TID 0000.0001)  INI_PARMS: finished reading file "data"
(PID.TID 0000.0001)  PACKAGES_BOOT: opening data.pkg
(PID.TID 0000.0001)  OPEN_COPY_DATA_FILE: opening file data.pkg
(PID.TID 0000.0001) // =======================================================
(PID.TID 0000.0001) // Parameter file "data.pkg"
(PID.TID 0000.0001) // =======================================================
(PID.TID 0000.0001) ># Packages
(PID.TID 0000.0001) > &PACKAGES
(PID.TID 0000.0001) > useOBCS=.TRUE.,
(PID.TID 0000.0001) > /
(PID.TID 0000.0001) 
(PID.TID 0000.0001)  PACKAGES_BOOT: finished reading data.pkg
(PID.TID 0000.0001)  PACKAGES_BOOT: On/Off package Summary
 --------  pkgs with a standard "usePKG" On/Off switch in "data.pkg":  --------
 pkg/obcs                 compiled   and   used ( useOBCS                  = T )
 -------- pkgs without standard "usePKG" On/Off switch in "data.pkg":  --------
 pkg/generic_advdiff      compiled   and   used ( useGAD                   = T )
 pkg/mom_common           compiled   and   used ( momStepping              = T )
 pkg/mom_vecinv           compiled but not used ( +vectorInvariantMomentum = F )
 pkg/mom_fluxform         compiled   and   used ( & not vectorInvariantMom = T )
 pkg/monitor              compiled   and   used ( monitorFreq > 0.         = T )
 pkg/debug                compiled but not used ( debugMode                = F )
 pkg/rw                   compiled   and   used
 pkg/mdsio                compiled   and   used
(PID.TID 0000.0001)  PACKAGES_BOOT: End of package Summary
(PID.TID 0000.0001) 
(PID.TID 0000.0001)  OBCS_READPARMS: opening data.obcs
(PID.TID 0000.0001)  OPEN_COPY_DATA_FILE: opening file data.obcs
(PID.TID 0000.0001) // =======================================================
(PID.TID 0000.0001) // Parameter file "data.obcs"
(PID.TID 0000.0001) // =======================================================
(PID.TID 0000.0001) ># Open-boundaries
(PID.TID 0000.0001) > &OBCS_PARM01
(PID.TID 0000.0001) > OB_Ieast=1*-1,
(PID.TID 0000.0001) > useOrlanskiEast=.TRUE.,
(PID.TID 0000.0001) > useOBCSbalance=.TRUE.,
(PID.TID 0000.0001) > OBCS_monitorFreq=400.,
(PID.TID 0000.0001) > /
(PID.TID 0000.0001) >
(PID.TID 0000.0001) ># Orlanski parameters
(PID.TID 0000.0001) > &OBCS_PARM02
(PID.TID 0000.0001) > Cmax=0.45,
(PID.TID 0000.0001) > cVelTimeScale=1000.,
(PID.TID 0000.0001) > /
(PID.TID 0000.0001) 
(PID.TID 0000.0001)  OBCS_READPARMS: finished reading data.obcs
(PID.TID 0000.0001)  OB_indexUnset = /* unset OB index value (i.e. no OB) */
(PID.TID 0000.0001)                       0
(PID.TID 0000.0001)     ;
(PID.TID 0000.0001)  Northern OB global indices : OB_Jnorth =
(PID.TID 0000.0001)   320 @        0                            /* I =  1:320 */
(PID.TID 0000.0001)  Southern OB global indices : OB_Jsouth =
(PID.TID 0000.0001)   320 @        0                            /* I =  1:320 */
(PID.TID 0000.0001)  Eastern  OB global indices : OB_Ieast =
(PID.TID 0000.0001)                     320                     /* J =  1 */
(PID.TID 0000.0001)  Western  OB global indices : OB_Iwest =
(PID.TID 0000.0001)                       0                     /* J =  1 */
(PID.TID 0000.0001) 
(PID.TID 0000.0001) SET_PARMS: done
(PID.TID 0000.0001)  MDS_READVEC_LOC: open file: dx.bin
(PID.TID 0000.0001) S/R LOAD_GRID_SPACING: delX loaded from file: dx.bin
(PID.TID 0000.0001) Enter INI_VERTICAL_GRID: setInterFDr=    T ; setCenterDr=    F
(PID.TID 0000.0001) %MON XC_max                       =   6.4030118978311E+03
(PID.TID 0000.0001) %MON XC_min                       =   6.6667527892151E+00
(PID.TID 0000.0001) %MON XC_mean                      =   2.4575819181463E+03
(PID.TID 0000.0001) %MON XC_sd                        =   1.7058938715763E+03
(PID.TID 0000.0001) %MON XG_max                       =   6.3832517139640E+03
(PID.TID 0000.0001) %MON XG_min                       =   0.0000000000000E+00
(PID.TID 0000.0001) %MON XG_mean                      =   2.4475463367687E+03
(PID.TID 0000.0001) %MON XG_sd                        =   1.7014602049606E+03
(PID.TID 0000.0001) %MON DXC_max                      =   3.9508304374678E+01
(PID.TID 0000.0001) %MON DXC_min                      =   1.3333509993998E+01
(PID.TID 0000.0001) %MON DXC_mean                     =   2.0071162755307E+01
(PID.TID 0000.0001) %MON DXC_sd                       =   9.4906528979627E+00
(PID.TID 0000.0001) %MON DXF_max                      =   3.9520367734344E+01
(PID.TID 0000.0001) %MON DXF_min                      =   1.3333505578430E+01
(PID.TID 0000.0001) %MON DXF_mean                     =   2.0071162755307E+01
(PID.TID 0000.0001) %MON DXF_sd                       =   9.5190787885357E+00
(PID.TID 0000.0001) %MON DXG_max                      =   3.9520367734344E+01
(PID.TID 0000.0001) %MON DXG_min                      =   1.3333505578430E+01
(PID.TID 0000.0001) %MON DXG_mean                     =   2.0071162755307E+01
(PID.TID 0000.0001) %MON DXG_sd                       =   9.5190787885357E+00
(PID.TID 0000.0001) %MON DXV_max                      =   3.9508304374678E+01
(PID.TID 0000.0001) %MON DXV_min                      =   1.3333509993998E+01
(PID.TID 0000.0001) %MON DXV_mean                     =   2.0071162755307E+01
(PID.TID 0000.0001) %MON DXV_sd                       =   9.4906528979627E+00
(PID.TID 0000.0001) %MON YC_max                       =   1.0000000000000E+02
(PID.TID 0000.0001) %MON YC_min                       =   1.0000000000000E+02
(PID.TID 0000.0001) %MON YC_mean                      =   1.0000000000000E+02
(PID.TID 0000.0001) %MON YC_sd                        =   0.0000000000000E+00
(PID.TID 0000.0001) %MON YG_max                       =   0.0000000000000E+00
(PID.TID 0000.0001) %MON YG_min                       =   0.0000000000000E+00
(PID.TID 0000.0001) %MON YG_mean                      =   0.0000000000000E+00
(PID.TID 0000.0001) %MON YG_sd                        =   0.0000000000000E+00
(PID.TID 0000.0001) %MON DYC_max                      =   2.0000000000000E+02
(PID.TID 0000.0001) %MON DYC_min                      =   2.0000000000000E+02
(PID.TID 0000.0001) %MON DYC_mean                     =   2.0000000000000E+02
(PID.TID 0000.0001) %MON DYC_sd                       =   0.0000000000000E+00
(PID.TID 0000.0001) %MON DYF_max                      =   2.0000000000000E+02
(PID.TID 0000.0001) %MON DYF_min                      =   2.0000000000000E+02
(PID.TID 0000.0001) %MON DYF_mean                     =   2.0000000000000E+02
(PID.TID 0000.0001) %MON DYF_sd                       =   0.0000000000000E+00
(PID.TID 0000.0001) %MON DYG_max                      =   2.0000000000000E+02
(PID.TID 0000.0001) %MON DYG_min                      =   2.0000000000000E+02
(PID.TID 0000.0001) %MON DYG_mean                     =   2.0000000000000E+02
(PID.TID 0000.0001) %MON DYG_sd                       =   0.0000000000000E+00
(PID.TID 0000.0001) %MON DYU_max                      =   2.0000000000000E+02
(PID.TID 0000.0001) %MON DYU_min                      =   2.0000000000000E+02
(PID.TID 0000.0001) %MON DYU_mean                     =   2.0000000000000E+02
(PID.TID 0000.0001) %MON DYU_sd                       =   0.0000000000000E+00
(PID.TID 0000.0001) %MON RA_max                       =   7.9040735468688E+03
(PID.TID 0000.0001) %MON RA_min                       =   2.6667011156861E+03
(PID.TID 0000.0001) %MON RA_mean                      =   4.0142325510614E+03
(PID.TID 0000.0001) %MON RA_sd                        =   1.9038157577071E+03
(PID.TID 0000.0001) %MON RAW_max                      =   7.9016608749357E+03
(PID.TID 0000.0001) %MON RAW_min                      =   2.6667019987996E+03
(PID.TID 0000.0001) %MON RAW_mean                     =   4.0142325510614E+03
(PID.TID 0000.0001) %MON RAW_sd                       =   1.8981305795925E+03
(PID.TID 0000.0001) %MON RAS_max                      =   7.9040735468688E+03
(PID.TID 0000.0001) %MON RAS_min                      =   2.6667011156861E+03
(PID.TID 0000.0001) %MON RAS_mean                     =   4.0142325510614E+03
(PID.TID 0000.0001) %MON RAS_sd                       =   1.9038157577071E+03
(PID.TID 0000.0001) %MON RAZ_max                      =   7.9016608749357E+03
(PID.TID 0000.0001) %MON RAZ_min                      =   2.6667019987996E+03
(PID.TID 0000.0001) %MON RAZ_mean                     =   4.0142325510614E+03
(PID.TID 0000.0001) %MON RAZ_sd                       =   1.8981305795925E+03
(PID.TID 0000.0001) %MON AngleCS_max                  =   1.0000000000000E+00
(PID.TID 0000.0001) %MON AngleCS_min                  =   1.0000000000000E+00
(PID.TID 0000.0001) %MON AngleCS_mean                 =   1.0000000000000E+00
(PID.TID 0000.0001) %MON AngleCS_sd                   =   0.0000000000000E+00
(PID.TID 0000.0001) %MON AngleSN_max                  =   0.0000000000000E+00
(PID.TID 0000.0001) %MON AngleSN_min                  =   0.0000000000000E+00
(PID.TID 0000.0001) %MON AngleSN_mean                 =   0.0000000000000E+00
(PID.TID 0000.0001) %MON AngleSN_sd                   =   0.0000000000000E+00
(PID.TID 0000.0001)  MDS_READ_FIELD: opening global file: topog.slope
(PID.TID 0000.0001) GAD_INIT_FIXED: GAD_OlMinSize=  2  0  1
(PID.TID 0000.0001) 
(PID.TID 0000.0001) // ===================================
(PID.TID 0000.0001) // GAD parameters :
(PID.TID 0000.0001) // ===================================
(PID.TID 0000.0001) tempAdvScheme =   /* Temp. Horiz.Advection scheme selector */
(PID.TID 0000.0001)                      33
(PID.TID 0000.0001)     ;
(PID.TID 0000.0001) tempVertAdvScheme =   /* Temp. Vert. Advection scheme selector */
(PID.TID 0000.0001)                      33
(PID.TID 0000.0001)     ;
(PID.TID 0000.0001) tempMultiDimAdvec =   /* use Muti-Dim Advec method for Temp */
(PID.TID 0000.0001)                   T
(PID.TID 0000.0001)     ;
(PID.TID 0000.0001) tempSOM_Advection = /* use 2nd Order Moment Advection for Temp */
(PID.TID 0000.0001)                   F
(PID.TID 0000.0001)     ;
(PID.TID 0000.0001) AdamsBashforthGt = /* apply Adams-Bashforth extrapolation on Gt */
(PID.TID 0000.0001)                   F
(PID.TID 0000.0001)     ;
(PID.TID 0000.0001) AdamsBashforth_T = /* apply Adams-Bashforth extrapolation on Temp */
(PID.TID 0000.0001)                   F
(PID.TID 0000.0001)     ;
(PID.TID 0000.0001) saltAdvScheme =   /* Salt. Horiz.advection scheme selector */
(PID.TID 0000.0001)                       2
(PID.TID 0000.0001)     ;
(PID.TID 0000.0001) saltVertAdvScheme =   /* Salt. Vert. Advection scheme selector */
(PID.TID 0000.0001)                       2
(PID.TID 0000.0001)     ;
(PID.TID 0000.0001) saltMultiDimAdvec =   /* use Muti-Dim Advec method for Salt */
(PID.TID 0000.0001)                   F
(PID.TID 0000.0001)     ;
(PID.TID 0000.0001) saltSOM_Advection = /* use 2nd Order Moment Advection for Salt */
(PID.TID 0000.0001)                   F
(PID.TID 0000.0001)     ;
(PID.TID 0000.0001) AdamsBashforthGs = /* apply Adams-Bashforth extrapolation on Gs */
(PID.TID 0000.0001)                   T
(PID.TID 0000.0001)     ;
(PID.TID 0000.0001) AdamsBashforth_S = /* apply Adams-Bashforth extrapolation on Salt */
(PID.TID 0000.0001)                   F
(PID.TID 0000.0001)     ;
(PID.TID 0000.0001) // ===================================
(PID.TID 0000.0001) %MON fCori_max                    =   0.0000000000000E+00
(PID.TID 0000.0001) %MON fCori_min                    =   0.0000000000000E+00
(PID.TID 0000.0001) %MON fCori_mean                   =   0.0000000000000E+00
(PID.TID 0000.0001) %MON fCori_sd                     =   0.0000000000000E+00
(PID.TID 0000.0001) %MON fCoriG_max                   =   0.0000000000000E+00
(PID.TID 0000.0001) %MON fCoriG_min                   =   0.0000000000000E+00
(PID.TID 0000.0001) %MON fCoriG_mean                  =   0.0000000000000E+00
(PID.TID 0000.0001) %MON fCoriG_sd                    =   0.0000000000000E+00
(PID.TID 0000.0001) %MON fCoriCos_max                 =   0.0000000000000E+00
(PID.TID 0000.0001) %MON fCoriCos_min                 =   0.0000000000000E+00
(PID.TID 0000.0001) %MON fCoriCos_mean                =   0.0000000000000E+00
(PID.TID 0000.0001) %MON fCoriCos_sd                  =   0.0000000000000E+00
(PID.TID 0000.0001) INI_CG2D: CG2D normalisation factor =  3.8311188275726068E-04
(PID.TID 0000.0001) 
(PID.TID 0000.0001) INI_CG3D: CG3D normalisation factor =  4.2198108575273687E-04
(PID.TID 0000.0001) 
(PID.TID 0000.0001) // =======================================================
(PID.TID 0000.0001) // Model configuration
(PID.TID 0000.0001) // =======================================================
(PID.TID 0000.0001) //
(PID.TID 0000.0001) // "Physical" paramters ( PARM01 in namelist )
(PID.TID 0000.0001) //
(PID.TID 0000.0001) buoyancyRelation = /* Type of relation to get Buoyancy */
(PID.TID 0000.0001)               'OCEANIC'
(PID.TID 0000.0001)     ;
(PID.TID 0000.0001) fluidIsAir   =  /* fluid major constituent is Air */
(PID.TID 0000.0001)                   F
(PID.TID 0000.0001)     ;
(PID.TID 0000.0001) fluidIsWater =  /* fluid major constituent is Water */
(PID.TID 0000.0001)                   T
(PID.TID 0000.0001)     ;
(PID.TID 0000.0001) usingPCoords =  /* use p (or p*) vertical coordinate */
(PID.TID 0000.0001)                   F
(PID.TID 0000.0001)     ;
(PID.TID 0000.0001) usingZCoords =  /* use z (or z*) vertical coordinate */
(PID.TID 0000.0001)                   T
(PID.TID 0000.0001)     ;
(PID.TID 0000.0001) tRef =   /* Reference temperature profile ( oC or K ) */
(PID.TID 0000.0001)    60 @  1.000000000000000E+00              /* K =  1: 60 */
(PID.TID 0000.0001)     ;
(PID.TID 0000.0001) sRef =   /* Reference salinity profile ( g/kg ) */
(PID.TID 0000.0001)    60 @  3.500000000000000E+01              /* K =  1: 60 */
(PID.TID 0000.0001)     ;
(PID.TID 0000.0001) rhoRef =   /* Density vertical profile from (Ref,sRef)( kg/m^3 ) */
(PID.TID 0000.0001)    60 @  9.998000000000000E+02              /* K =  1: 60 */
(PID.TID 0000.0001)     ;
(PID.TID 0000.0001) dBdrRef = /* Vertical grad. of reference buoyancy [(m/s/r)^2] */
(PID.TID 0000.0001)    60 @  0.000000000000000E+00              /* K =  1: 60 */
(PID.TID 0000.0001)     ;
(PID.TID 0000.0001) useStrainTensionVisc= /* Use StrainTension Form of Viscous Operator */
(PID.TID 0000.0001)                   F
(PID.TID 0000.0001)     ;
(PID.TID 0000.0001) useVariableVisc = /* Use variable horizontal viscosity */
(PID.TID 0000.0001)                   F
(PID.TID 0000.0001)     ;
(PID.TID 0000.0001) useHarmonicVisc = /* Use harmonic horizontal viscosity */
(PID.TID 0000.0001)                   T
(PID.TID 0000.0001)     ;
(PID.TID 0000.0001) useBiharmonicVisc= /* Use biharmonic horiz.  viscosity */
(PID.TID 0000.0001)                   F
(PID.TID 0000.0001)     ;
(PID.TID 0000.0001) useSmag3D = /* Use isotropic 3-D Smagorinsky viscosity */
(PID.TID 0000.0001)                   F
(PID.TID 0000.0001)     ;
(PID.TID 0000.0001) viscAh  =   /* Lateral harmonic viscosity ( m^2/s ) */
(PID.TID 0000.0001)                 1.000000000000000E-02
(PID.TID 0000.0001)     ;
(PID.TID 0000.0001) viscAhW =   /* Lateral harmonic viscosity in W eq. ( m^2/s ) */
(PID.TID 0000.0001)                 1.000000000000000E-02
(PID.TID 0000.0001)     ;
(PID.TID 0000.0001) viscA4  =   /* Lateral biharmonic viscosity ( m^4/s ) */
(PID.TID 0000.0001)                 0.000000000000000E+00
(PID.TID 0000.0001)     ;
(PID.TID 0000.0001) viscA4W =   /* Lateral biharmonic viscosity in W eq. ( m^2/s ) */
(PID.TID 0000.0001)                 0.000000000000000E+00
(PID.TID 0000.0001)     ;
(PID.TID 0000.0001) no_slip_sides =  /* Viscous BCs: No-slip sides */
(PID.TID 0000.0001)                   T
(PID.TID 0000.0001)     ;
(PID.TID 0000.0001) sideDragFactor = /* side-drag scaling factor (non-dim) */
(PID.TID 0000.0001)                 2.000000000000000E+00
(PID.TID 0000.0001)     ;
(PID.TID 0000.0001) viscArNr = /* vertical profile of vertical viscosity ( m^2/s )*/
(PID.TID 0000.0001)    60 @  1.000000000000000E-03              /* K =  1: 60 */
(PID.TID 0000.0001)     ;
(PID.TID 0000.0001) no_slip_bottom =  /* Viscous BCs: No-slip bottom */
(PID.TID 0000.0001)                   F
(PID.TID 0000.0001)     ;
(PID.TID 0000.0001) bottomVisc_pCell = /* Partial-cell in bottom Visc. BC */
(PID.TID 0000.0001)                   F
(PID.TID 0000.0001)     ;
(PID.TID 0000.0001) bottomDragLinear = /* linear bottom-drag coefficient ( m/s ) */
(PID.TID 0000.0001)                 0.000000000000000E+00
(PID.TID 0000.0001)     ;
(PID.TID 0000.0001) bottomDragQuadratic = /* quadratic bottom-drag coefficient (-) */
(PID.TID 0000.0001)                 0.000000000000000E+00
(PID.TID 0000.0001)     ;
(PID.TID 0000.0001) zRoughBot = /* roughness length for bottom friction (m) */
(PID.TID 0000.0001)                 1.000000000000000E-02
(PID.TID 0000.0001)     ;
(PID.TID 0000.0001) selectBotDragQuadr = /* select quadratic bottom drag options */
(PID.TID 0000.0001)                       0
(PID.TID 0000.0001)     ;
(PID.TID 0000.0001) diffKhT =   /* Laplacian diffusion of heat laterally ( m^2/s ) */
(PID.TID 0000.0001)                 0.000000000000000E+00
(PID.TID 0000.0001)     ;
(PID.TID 0000.0001) diffK4T =   /* Biharmonic diffusion of heat laterally ( m^4/s ) */
(PID.TID 0000.0001)                 0.000000000000000E+00
(PID.TID 0000.0001)     ;
(PID.TID 0000.0001) diffKhS =   /* Laplacian diffusion of salt laterally ( m^2/s ) */
(PID.TID 0000.0001)                 1.000000000000000E-02
(PID.TID 0000.0001)     ;
(PID.TID 0000.0001) diffK4S =   /* Biharmonic diffusion of salt laterally ( m^4/s ) */
(PID.TID 0000.0001)                 0.000000000000000E+00
(PID.TID 0000.0001)     ;
(PID.TID 0000.0001) diffKrNrT = /* vertical profile of vertical diffusion of Temp ( m^2/s )*/
(PID.TID 0000.0001)    60 @  0.000000000000000E+00              /* K =  1: 60 */
(PID.TID 0000.0001)     ;
(PID.TID 0000.0001) diffKrNrS = /* vertical profile of vertical diffusion of Salt ( m^2/s )*/
(PID.TID 0000.0001)    60 @  1.000000000000000E-05              /* K =  1: 60 */
(PID.TID 0000.0001)     ;
(PID.TID 0000.0001) diffKrBL79surf = /* Surface diffusion for Bryan and Lewis 79 ( m^2/s ) */
(PID.TID 0000.0001)                 0.000000000000000E+00
(PID.TID 0000.0001)     ;
(PID.TID 0000.0001) diffKrBL79deep = /* Deep diffusion for Bryan and Lewis 1979 ( m^2/s ) */
(PID.TID 0000.0001)                 0.000000000000000E+00
(PID.TID 0000.0001)     ;
(PID.TID 0000.0001) diffKrBL79scl = /* Depth scale for Bryan and Lewis 1979 ( m ) */
(PID.TID 0000.0001)                 2.000000000000000E+02
(PID.TID 0000.0001)     ;
(PID.TID 0000.0001) diffKrBL79Ho = /* Turning depth for Bryan and Lewis 1979 ( m ) */
(PID.TID 0000.0001)                -2.000000000000000E+03
(PID.TID 0000.0001)     ;
(PID.TID 0000.0001) ivdc_kappa = /* Implicit Vertical Diffusivity for Convection ( m^2/s) */
(PID.TID 0000.0001)                 0.000000000000000E+00
(PID.TID 0000.0001)     ;
(PID.TID 0000.0001) hMixCriteria=  /* Criteria for mixed-layer diagnostic */
(PID.TID 0000.0001)                -8.000000000000000E-01
(PID.TID 0000.0001)     ;
(PID.TID 0000.0001) dRhoSmall =  /* Parameter for mixed-layer diagnostic */
(PID.TID 0000.0001)                 1.000000000000000E-06
(PID.TID 0000.0001)     ;
(PID.TID 0000.0001) hMixSmooth=  /* Smoothing parameter for mixed-layer diagnostic */
(PID.TID 0000.0001)                 0.000000000000000E+00
(PID.TID 0000.0001)     ;
(PID.TID 0000.0001) eosType =  /* Type of Equation of State */
(PID.TID 0000.0001)               'LINEAR'
(PID.TID 0000.0001)     ;
(PID.TID 0000.0001) tAlpha = /* Linear EOS thermal expansion coefficient ( 1/oC ) */
(PID.TID 0000.0001)                 2.000000000000000E-04
(PID.TID 0000.0001)     ;
(PID.TID 0000.0001) sBeta  = /* Linear EOS haline contraction coefficient ( 1/(g/kg) ) */
(PID.TID 0000.0001)                 0.000000000000000E+00
(PID.TID 0000.0001)     ;
(PID.TID 0000.0001) rhoNil    = /* Reference density for Linear EOS ( kg/m^3 ) */
(PID.TID 0000.0001)                 9.998000000000000E+02
(PID.TID 0000.0001)     ;
(PID.TID 0000.0001) selectP_inEOS_Zc = /* select pressure to use in EOS (0,1,2,3) */
(PID.TID 0000.0001)                       0
(PID.TID 0000.0001)     0= -g*rhoConst*z ; 1= pRef (from tRef,sRef); 2= Hyd P ; 3= Hyd+NH P
(PID.TID 0000.0001)     ;
(PID.TID 0000.0001) surf_pRef = /* Surface reference pressure ( Pa ) */
(PID.TID 0000.0001)                 1.013250000000000E+05
(PID.TID 0000.0001)     ;
(PID.TID 0000.0001) HeatCapacity_Cp =  /* Specific heat capacity ( J/kg/K ) */
(PID.TID 0000.0001)                 3.994000000000000E+03
(PID.TID 0000.0001)     ;
(PID.TID 0000.0001) celsius2K = /* 0 degree Celsius converted to Kelvin ( K ) */
(PID.TID 0000.0001)                 2.731500000000000E+02
(PID.TID 0000.0001)     ;
(PID.TID 0000.0001) rhoConst  = /* Reference density (Boussinesq)  ( kg/m^3 ) */
(PID.TID 0000.0001)                 9.998000000000000E+02
(PID.TID 0000.0001)     ;
(PID.TID 0000.0001) rhoFacC = /* normalized Reference density @ cell-Center (-) */
(PID.TID 0000.0001)    60 @  1.000000000000000E+00              /* K =  1: 60 */
(PID.TID 0000.0001)     ;
(PID.TID 0000.0001) rhoFacF = /* normalized Reference density @ W-Interface (-) */
(PID.TID 0000.0001)    61 @  1.000000000000000E+00              /* K =  1: 61 */
(PID.TID 0000.0001)     ;
(PID.TID 0000.0001) rhoConstFresh = /* Fresh-water reference density ( kg/m^3 ) */
(PID.TID 0000.0001)                 9.998000000000000E+02
(PID.TID 0000.0001)     ;
(PID.TID 0000.0001) gravity =   /* Gravitational acceleration ( m/s^2 ) */
(PID.TID 0000.0001)                 9.810000000000000E+00
(PID.TID 0000.0001)     ;
(PID.TID 0000.0001) gBaro =   /* Barotropic gravity ( m/s^2 ) */
(PID.TID 0000.0001)                 9.810000000000000E+00
(PID.TID 0000.0001)     ;
(PID.TID 0000.0001) gravFacC = /* gravity factor (vs surf.) @ cell-Center (-) */
(PID.TID 0000.0001)    60 @  1.000000000000000E+00              /* K =  1: 60 */
(PID.TID 0000.0001)     ;
(PID.TID 0000.0001) gravFacF = /* gravity factor (vs surf.) @ W-Interface (-) */
(PID.TID 0000.0001)    61 @  1.000000000000000E+00              /* K =  1: 61 */
(PID.TID 0000.0001)     ;
(PID.TID 0000.0001) rotationPeriod =   /* Rotation Period ( s ) */
(PID.TID 0000.0001)                 8.616400000000000E+04
(PID.TID 0000.0001)     ;
(PID.TID 0000.0001) omega =   /* Angular velocity ( rad/s ) */
(PID.TID 0000.0001)                 7.292123516990375E-05
(PID.TID 0000.0001)     ;
(PID.TID 0000.0001) f0 =   /* Reference coriolis parameter ( 1/s ) */
(PID.TID 0000.0001)                 0.000000000000000E+00
(PID.TID 0000.0001)     ;
(PID.TID 0000.0001) beta =   /* Beta ( 1/(m.s) ) */
(PID.TID 0000.0001)                 0.000000000000000E+00
(PID.TID 0000.0001)     ;
(PID.TID 0000.0001) fPrime =   /* Second coriolis parameter ( 1/s ) */
(PID.TID 0000.0001)                 0.000000000000000E+00
(PID.TID 0000.0001)     ;
(PID.TID 0000.0001) rigidLid =   /* Rigid lid on/off flag */
(PID.TID 0000.0001)                   F
(PID.TID 0000.0001)     ;
(PID.TID 0000.0001) implicitFreeSurface =   /* Implicit free surface on/off flag */
(PID.TID 0000.0001)                   T
(PID.TID 0000.0001)     ;
(PID.TID 0000.0001) freeSurfFac =   /* Implicit free surface factor */
(PID.TID 0000.0001)                 1.000000000000000E+00
(PID.TID 0000.0001)     ;
(PID.TID 0000.0001) implicSurfPress =  /* Surface Pressure implicit factor (0-1) */
(PID.TID 0000.0001)                 1.000000000000000E+00
(PID.TID 0000.0001)     ;
(PID.TID 0000.0001) implicDiv2DFlow =  /* Barot. Flow Div. implicit factor (0-1) */
(PID.TID 0000.0001)                 1.000000000000000E+00
(PID.TID 0000.0001)     ;
(PID.TID 0000.0001) uniformLin_PhiSurf = /* use uniform Bo_surf on/off flag */
(PID.TID 0000.0001)                   T
(PID.TID 0000.0001)     ;
(PID.TID 0000.0001) uniformFreeSurfLev = /* free-surface level-index is uniform */
(PID.TID 0000.0001)                   T
(PID.TID 0000.0001)     ;
(PID.TID 0000.0001) sIceLoadFac =  /* scale factor for sIceLoad (0-1) */
(PID.TID 0000.0001)                 1.000000000000000E+00
(PID.TID 0000.0001)     ;
(PID.TID 0000.0001) hFacMin =   /* minimum partial cell factor (hFac) */
(PID.TID 0000.0001)                 5.000000000000000E-02
(PID.TID 0000.0001)     ;
(PID.TID 0000.0001) hFacMinDr = /* minimum partial cell thickness ( m) */
(PID.TID 0000.0001)                 0.000000000000000E+00
(PID.TID 0000.0001)     ;
(PID.TID 0000.0001) exactConserv =  /* Exact Volume Conservation on/off flag */
(PID.TID 0000.0001)                   F
(PID.TID 0000.0001)     ;
(PID.TID 0000.0001) linFSConserveTr = /* Tracer correction for Lin Free Surface on/off flag */
(PID.TID 0000.0001)                   F
(PID.TID 0000.0001)     ;
(PID.TID 0000.0001) nonlinFreeSurf = /* Non-linear Free Surf. options (-1,0,1,2,3)*/
(PID.TID 0000.0001)                       0
(PID.TID 0000.0001)      -1,0= Off ; 1,2,3= On, 2=+rescale gU,gV, 3=+update cg2d solv.
(PID.TID 0000.0001)     ;
(PID.TID 0000.0001) hFacInf =   /* lower threshold for hFac (nonlinFreeSurf only)*/
(PID.TID 0000.0001)                 2.000000000000000E-01
(PID.TID 0000.0001)     ;
(PID.TID 0000.0001) hFacSup =   /* upper threshold for hFac (nonlinFreeSurf only)*/
(PID.TID 0000.0001)                 2.000000000000000E+00
(PID.TID 0000.0001)     ;
(PID.TID 0000.0001) select_rStar = /* r* Vertical coord. options (=0 r coord.; >0 uses r*)*/
(PID.TID 0000.0001)                       0
(PID.TID 0000.0001)     ;
(PID.TID 0000.0001) useRealFreshWaterFlux = /* Real Fresh Water Flux on/off flag*/
(PID.TID 0000.0001)                   F
(PID.TID 0000.0001)     ;
(PID.TID 0000.0001) temp_EvPrRn = /* Temp. of Evap/Prec/R (UNSET=use local T)(oC)*/
(PID.TID 0000.0001)                 1.234567000000000E+05
(PID.TID 0000.0001)     ;
(PID.TID 0000.0001) salt_EvPrRn = /* Salin. of Evap/Prec/R (UNSET=use local S)(g/kg)*/
(PID.TID 0000.0001)                 0.000000000000000E+00
(PID.TID 0000.0001)     ;
(PID.TID 0000.0001) selectAddFluid = /* option for mass source/sink of fluid (=0: off) */
(PID.TID 0000.0001)                       0
(PID.TID 0000.0001)     ;
(PID.TID 0000.0001) temp_addMass = /* Temp. of addMass array (UNSET=use local T)(oC)*/
(PID.TID 0000.0001)                 1.234567000000000E+05
(PID.TID 0000.0001)     ;
(PID.TID 0000.0001) salt_addMass = /* Salin. of addMass array (UNSET=use local S)(g/kg)*/
(PID.TID 0000.0001)                 0.000000000000000E+00
(PID.TID 0000.0001)     ;
(PID.TID 0000.0001) convertFW2Salt = /* convert F.W. Flux to Salt Flux (-1=use local S)(g/kg)*/
(PID.TID 0000.0001)                 3.500000000000000E+01
(PID.TID 0000.0001)     ;
(PID.TID 0000.0001) use3Dsolver = /* use 3-D pressure solver on/off flag */
(PID.TID 0000.0001)                   T
(PID.TID 0000.0001)     ;
(PID.TID 0000.0001) nonHydrostatic =  /* Non-Hydrostatic on/off flag */
(PID.TID 0000.0001)                   T
(PID.TID 0000.0001)     ;
(PID.TID 0000.0001) nh_Am2 = /* Non-Hydrostatic terms scaling factor */
(PID.TID 0000.0001)                 1.000000000000000E+00
(PID.TID 0000.0001)     ;
(PID.TID 0000.0001) implicitNHPress = /* Non-Hyd Pressure implicit factor (0-1)*/
(PID.TID 0000.0001)                 1.000000000000000E+00
(PID.TID 0000.0001)     ;
(PID.TID 0000.0001) selectNHfreeSurf = /* Non-Hyd (free-)Surface option */
(PID.TID 0000.0001)                       0
(PID.TID 0000.0001)     ;
(PID.TID 0000.0001) quasiHydrostatic = /* Quasi-Hydrostatic on/off flag */
(PID.TID 0000.0001)                   F
(PID.TID 0000.0001)     ;
(PID.TID 0000.0001) calc_wVelocity = /* vertical velocity calculation on/off flag */
(PID.TID 0000.0001)                   T
(PID.TID 0000.0001)     ;
(PID.TID 0000.0001) momStepping =  /* Momentum equation on/off flag */
(PID.TID 0000.0001)                   T
(PID.TID 0000.0001)     ;
(PID.TID 0000.0001) vectorInvariantMomentum= /* Vector-Invariant Momentum on/off */
(PID.TID 0000.0001)                   F
(PID.TID 0000.0001)     ;
(PID.TID 0000.0001) momAdvection =  /* Momentum advection on/off flag */
(PID.TID 0000.0001)                   T
(PID.TID 0000.0001)     ;
(PID.TID 0000.0001) momViscosity =  /* Momentum viscosity on/off flag */
(PID.TID 0000.0001)                   T
(PID.TID 0000.0001)     ;
(PID.TID 0000.0001) momImplVertAdv= /* Momentum implicit vert. advection on/off*/
(PID.TID 0000.0001)                   F
(PID.TID 0000.0001)     ;
(PID.TID 0000.0001) implicitViscosity = /* Implicit viscosity on/off flag */
(PID.TID 0000.0001)                   F
(PID.TID 0000.0001)     ;
(PID.TID 0000.0001) selectImplicitDrag= /* Implicit bot Drag options (0,1,2)*/
(PID.TID 0000.0001)                       0
(PID.TID 0000.0001)     0= Expl. ; 1= Impl. on provis. Vel ; 2= Fully Impl (with surf.P)
(PID.TID 0000.0001)     ;
(PID.TID 0000.0001) metricTerms =  /* metric-Terms on/off flag */
(PID.TID 0000.0001)                   F
(PID.TID 0000.0001)     ;
(PID.TID 0000.0001) useNHMTerms = /* Non-Hydrostatic Metric-Terms on/off */
(PID.TID 0000.0001)                   F
(PID.TID 0000.0001)     ;
(PID.TID 0000.0001) selectCoriMap = /* Coriolis Map options (0,1,2,3)*/
(PID.TID 0000.0001)                       1
(PID.TID 0000.0001)     0= f-Plane ; 1= Beta-Plane ; 2= Spherical ; 3= read from file
(PID.TID 0000.0001)     ;
(PID.TID 0000.0001) use3dCoriolis = /* 3-D Coriolis on/off flag */
(PID.TID 0000.0001)                   F
(PID.TID 0000.0001)     ;
(PID.TID 0000.0001) useCoriolis =  /* Coriolis on/off flag */
(PID.TID 0000.0001)                   T
(PID.TID 0000.0001)     ;
(PID.TID 0000.0001) useCDscheme =  /* CD scheme on/off flag */
(PID.TID 0000.0001)                   F
(PID.TID 0000.0001)     ;
(PID.TID 0000.0001) selectCoriScheme= /* Scheme selector for Coriolis-Term */
(PID.TID 0000.0001)                       0
(PID.TID 0000.0001)    = 0 : original discretization (simple averaging, no hFac)
(PID.TID 0000.0001)    = 1 : Wet-point averaging (Jamar & Ozer 1986)
(PID.TID 0000.0001)    = 2 : energy conserving scheme (no hFac weight)
(PID.TID 0000.0001)    = 3 : energy conserving scheme using Wet-point averaging
(PID.TID 0000.0001)     ;
(PID.TID 0000.0001) momForcing =  /* Momentum forcing on/off flag */
(PID.TID 0000.0001)                   T
(PID.TID 0000.0001)     ;
(PID.TID 0000.0001) momTidalForcing = /* Momentum Tidal forcing on/off flag */
(PID.TID 0000.0001)                   T
(PID.TID 0000.0001)     ;
(PID.TID 0000.0001) momPressureForcing =  /* Momentum pressure term on/off flag */
(PID.TID 0000.0001)                   T
(PID.TID 0000.0001)     ;
(PID.TID 0000.0001) implicitIntGravWave= /* Implicit Internal Gravity Wave flag */
(PID.TID 0000.0001)                   F
(PID.TID 0000.0001)     ;
(PID.TID 0000.0001) staggerTimeStep =    /* Stagger time stepping on/off flag */
(PID.TID 0000.0001)                   T
(PID.TID 0000.0001)     ;
(PID.TID 0000.0001) doResetHFactors = /* reset thickness factors @ each time-step */
(PID.TID 0000.0001)                   F
(PID.TID 0000.0001)     ;
(PID.TID 0000.0001) multiDimAdvection =  /* enable/disable Multi-Dim Advection */
(PID.TID 0000.0001)                   T
(PID.TID 0000.0001)     ;
(PID.TID 0000.0001) useMultiDimAdvec =   /* Multi-Dim Advection is/is-not used */
(PID.TID 0000.0001)                   T
(PID.TID 0000.0001)     ;
(PID.TID 0000.0001) implicitDiffusion = /* Implicit Diffusion on/off flag */
(PID.TID 0000.0001)                   F
(PID.TID 0000.0001)     ;
(PID.TID 0000.0001) tempStepping =  /* Temperature equation on/off flag */
(PID.TID 0000.0001)                   T
(PID.TID 0000.0001)     ;
(PID.TID 0000.0001) tempAdvection = /* Temperature advection on/off flag */
(PID.TID 0000.0001)                   T
(PID.TID 0000.0001)     ;
(PID.TID 0000.0001) tempImplVertAdv = /* Temp. implicit vert. advection on/off */
(PID.TID 0000.0001)                   F
(PID.TID 0000.0001)     ;
(PID.TID 0000.0001) tempForcing  =  /* Temperature forcing on/off flag */
(PID.TID 0000.0001)                   T
(PID.TID 0000.0001)     ;
(PID.TID 0000.0001) doThetaClimRelax = /* apply SST relaxation on/off flag */
(PID.TID 0000.0001)                   F
(PID.TID 0000.0001)     ;
(PID.TID 0000.0001) tempIsActiveTr = /* Temp. is a dynamically Active Tracer */
(PID.TID 0000.0001)                   T
(PID.TID 0000.0001)     ;
(PID.TID 0000.0001) saltStepping =  /* Salinity equation on/off flag */
(PID.TID 0000.0001)                   T
(PID.TID 0000.0001)     ;
(PID.TID 0000.0001) saltAdvection = /* Salinity advection on/off flag */
(PID.TID 0000.0001)                   T
(PID.TID 0000.0001)     ;
(PID.TID 0000.0001) saltImplVertAdv = /* Sali. implicit vert. advection on/off */
(PID.TID 0000.0001)                   F
(PID.TID 0000.0001)     ;
(PID.TID 0000.0001) saltForcing  =  /* Salinity forcing on/off flag */
(PID.TID 0000.0001)                   T
(PID.TID 0000.0001)     ;
(PID.TID 0000.0001) doSaltClimRelax = /* apply SSS relaxation on/off flag */
(PID.TID 0000.0001)                   F
(PID.TID 0000.0001)     ;
(PID.TID 0000.0001) saltIsActiveTr = /* Salt  is a dynamically Active Tracer */
(PID.TID 0000.0001)                   F
(PID.TID 0000.0001)     ;
(PID.TID 0000.0001)  readBinaryPrec = /* Precision used for reading binary files */
(PID.TID 0000.0001)                      64
(PID.TID 0000.0001)     ;
(PID.TID 0000.0001) writeBinaryPrec = /* Precision used for writing binary files */
(PID.TID 0000.0001)                      32
(PID.TID 0000.0001)     ;
(PID.TID 0000.0001)  rwSuffixType =   /* select format of mds file suffix */
(PID.TID 0000.0001)                       0
(PID.TID 0000.0001)    = 0 : myIter (I10.10) ;   = 1 : 100*myTime (100th sec) ;
(PID.TID 0000.0001)    = 2 : myTime (seconds);   = 3 : myTime/360 (10th of hr);
(PID.TID 0000.0001)    = 4 : myTime/3600 (hours)
(PID.TID 0000.0001)     ;
(PID.TID 0000.0001)  globalFiles = /* write "global" (=not per tile) files */
(PID.TID 0000.0001)                   F
(PID.TID 0000.0001)     ;
(PID.TID 0000.0001)  useSingleCpuIO = /* only master MPI process does I/O */
(PID.TID 0000.0001)                   T
(PID.TID 0000.0001)     ;
(PID.TID 0000.0001)  useSingleCpuInput = /* only master process reads input */
(PID.TID 0000.0001)                   T
(PID.TID 0000.0001)     ;
(PID.TID 0000.0001) /* debLev[*]  : level of debug & auxiliary message printing */
(PID.TID 0000.0001) debLevZero =  0 ; /* level of disabled aux. msg printing */
(PID.TID 0000.0001)    debLevA =  1 ; /* level of minimum  aux. msg printing */
(PID.TID 0000.0001)    debLevB =  2 ; /* level of low aux. print (report read-file opening)*/
(PID.TID 0000.0001)    debLevC =  3 ; /* level of moderate debug prt (most pkgs debug msg) */
(PID.TID 0000.0001)    debLevD =  4 ; /* level of enhanced debug prt (add DEBUG_STATS prt) */
(PID.TID 0000.0001)    debLevE =  5 ; /* level of extensive debug printing */
(PID.TID 0000.0001) debugLevel =  /* select debug printing level */
(PID.TID 0000.0001)                       2
(PID.TID 0000.0001)     ;
(PID.TID 0000.0001)  plotLevel =  /* select PLOT_FIELD printing level */
(PID.TID 0000.0001)                       0
(PID.TID 0000.0001)     ;
(PID.TID 0000.0001) //
(PID.TID 0000.0001) // Elliptic solver(s) paramters ( PARM02 in namelist )
(PID.TID 0000.0001) //
(PID.TID 0000.0001) cg2dMaxIters =   /* Upper limit on 2d con. grad iterations  */
(PID.TID 0000.0001)                     300
(PID.TID 0000.0001)     ;
(PID.TID 0000.0001) cg2dMinItersNSA =   /* Minimum number of iterations of 2d con. grad solver  */
(PID.TID 0000.0001)                       0
(PID.TID 0000.0001)     ;
(PID.TID 0000.0001) cg2dUseMinResSol= /* use cg2d last-iter(=0) / min-resid.(=1) solution */
(PID.TID 0000.0001)                       0
(PID.TID 0000.0001)     ;
(PID.TID 0000.0001) cg2dTargetResidual =   /* 2d con. grad target residual  */
(PID.TID 0000.0001)                 1.000000000000000E-13
(PID.TID 0000.0001)     ;
(PID.TID 0000.0001) cg2dTargetResWunit =   /* CG2d target residual [W units] */
(PID.TID 0000.0001)                -1.000000000000000E+00
(PID.TID 0000.0001)     ;
(PID.TID 0000.0001) cg2dPreCondFreq =   /* Freq. for updating cg2d preconditioner */
(PID.TID 0000.0001)                       1
(PID.TID 0000.0001)     ;
(PID.TID 0000.0001) useSRCGSolver =  /* use single reduction CG solver(s) */
(PID.TID 0000.0001)                   F
(PID.TID 0000.0001)     ;
(PID.TID 0000.0001) useNSACGSolver =  /* use not-self-adjoint CG solver */
(PID.TID 0000.0001)                   F
(PID.TID 0000.0001)     ;
(PID.TID 0000.0001) printResidualFreq = /* Freq. for printing CG residual */
(PID.TID 0000.0001)                       0
(PID.TID 0000.0001)     ;
(PID.TID 0000.0001) //
(PID.TID 0000.0001) // Time stepping paramters ( PARM03 in namelist )
(PID.TID 0000.0001) //
(PID.TID 0000.0001) deltaTMom =   /* Momentum equation timestep ( s ) */
(PID.TID 0000.0001)                 2.000000000000000E+01
(PID.TID 0000.0001)     ;
(PID.TID 0000.0001) deltaTFreeSurf = /* FreeSurface equation timestep ( s ) */
(PID.TID 0000.0001)                 2.000000000000000E+01
(PID.TID 0000.0001)     ;
(PID.TID 0000.0001) dTtracerLev =  /* Tracer equation timestep ( s ) */
(PID.TID 0000.0001)    60 @  2.000000000000000E+01              /* K =  1: 60 */
(PID.TID 0000.0001)     ;
(PID.TID 0000.0001) deltaTClock  =   /* Model clock timestep ( s ) */
(PID.TID 0000.0001)                 2.000000000000000E+01
(PID.TID 0000.0001)     ;
(PID.TID 0000.0001) cAdjFreq =   /* Convective adjustment interval ( s ) */
(PID.TID 0000.0001)                 0.000000000000000E+00
(PID.TID 0000.0001)     ;
(PID.TID 0000.0001) momForcingOutAB = /* =1: take Momentum Forcing out of Adams-Bash. stepping */
(PID.TID 0000.0001)                       0
(PID.TID 0000.0001)     ;
(PID.TID 0000.0001) tracForcingOutAB = /* =1: take T,S,pTr Forcing out of Adams-Bash. stepping */
(PID.TID 0000.0001)                       0
(PID.TID 0000.0001)     ;
(PID.TID 0000.0001) momDissip_In_AB = /* put Dissipation Tendency in Adams-Bash. stepping */
(PID.TID 0000.0001)                   T
(PID.TID 0000.0001)     ;
(PID.TID 0000.0001) doAB_onGtGs = /* apply AB on Tendencies (rather than on T,S)*/
(PID.TID 0000.0001)                   T
(PID.TID 0000.0001)     ;
(PID.TID 0000.0001) abEps =   /* Adams-Bashforth-2 stabilizing weight */
(PID.TID 0000.0001)                 1.000000000000000E-02
(PID.TID 0000.0001)     ;
(PID.TID 0000.0001) applyExchUV_early = /* Apply EXCH to U,V earlier in time-step */
(PID.TID 0000.0001)                   F
(PID.TID 0000.0001)     ;
(PID.TID 0000.0001) pickupStrictlyMatch= /* stop if pickup do not strictly match */
(PID.TID 0000.0001)                   T
(PID.TID 0000.0001)     ;
(PID.TID 0000.0001) nIter0   =   /* Run starting timestep number */
(PID.TID 0000.0001)                       0
(PID.TID 0000.0001)     ;
(PID.TID 0000.0001) nTimeSteps = /* Number of timesteps */
(PID.TID 0000.0001)                      20
(PID.TID 0000.0001)     ;
(PID.TID 0000.0001) nEndIter =   /* Run ending timestep number */
(PID.TID 0000.0001)                      20
(PID.TID 0000.0001)     ;
(PID.TID 0000.0001) baseTime =   /* Model base time ( s ) */
(PID.TID 0000.0001)                 0.000000000000000E+00
(PID.TID 0000.0001)     ;
(PID.TID 0000.0001) startTime =  /* Run start time ( s ) */
(PID.TID 0000.0001)                 0.000000000000000E+00
(PID.TID 0000.0001)     ;
(PID.TID 0000.0001) endTime  =   /* Integration ending time ( s ) */
(PID.TID 0000.0001)                 4.000000000000000E+02
(PID.TID 0000.0001)     ;
(PID.TID 0000.0001) pChkPtFreq = /* Permanent restart/pickup file interval ( s ) */
(PID.TID 0000.0001)                 0.000000000000000E+00
(PID.TID 0000.0001)     ;
(PID.TID 0000.0001) chkPtFreq  = /* Rolling restart/pickup file interval ( s ) */
(PID.TID 0000.0001)                 0.000000000000000E+00
(PID.TID 0000.0001)     ;
(PID.TID 0000.0001) pickup_write_mdsio =   /* Model IO flag. */
(PID.TID 0000.0001)                   T
(PID.TID 0000.0001)     ;
(PID.TID 0000.0001) pickup_read_mdsio =   /* Model IO flag. */
(PID.TID 0000.0001)                   T
(PID.TID 0000.0001)     ;
(PID.TID 0000.0001) writePickupAtEnd =   /* Model IO flag. */
(PID.TID 0000.0001)                   T
(PID.TID 0000.0001)     ;
(PID.TID 0000.0001) dumpFreq =   /* Model state write out interval ( s ). */
(PID.TID 0000.0001)                 6.000000000000000E+03
(PID.TID 0000.0001)     ;
(PID.TID 0000.0001) dumpInitAndLast= /* write out Initial & Last iter. model state */
(PID.TID 0000.0001)                   T
(PID.TID 0000.0001)     ;
(PID.TID 0000.0001) snapshot_mdsio =   /* Model IO flag. */
(PID.TID 0000.0001)                   T
(PID.TID 0000.0001)     ;
(PID.TID 0000.0001) monitorFreq =   /* Monitor output interval ( s ). */
(PID.TID 0000.0001)                 1.000000000000000E+00
(PID.TID 0000.0001)     ;
(PID.TID 0000.0001) monitorSelect = /* select group of variables to monitor */
(PID.TID 0000.0001)                       2
(PID.TID 0000.0001)     ;
(PID.TID 0000.0001) monitor_stdio =   /* Model IO flag. */
(PID.TID 0000.0001)                   T
(PID.TID 0000.0001)     ;
(PID.TID 0000.0001) externForcingPeriod =   /* forcing period (s) */
(PID.TID 0000.0001)                 0.000000000000000E+00
(PID.TID 0000.0001)     ;
(PID.TID 0000.0001) externForcingCycle =   /* period of the cyle (s). */
(PID.TID 0000.0001)                 0.000000000000000E+00
(PID.TID 0000.0001)     ;
(PID.TID 0000.0001) tauThetaClimRelax =   /* relaxation time scale (s) */
(PID.TID 0000.0001)                 0.000000000000000E+00
(PID.TID 0000.0001)     ;
(PID.TID 0000.0001) tauSaltClimRelax =   /* relaxation time scale (s) */
(PID.TID 0000.0001)                 0.000000000000000E+00
(PID.TID 0000.0001)     ;
(PID.TID 0000.0001) latBandClimRelax =   /* max. Lat. where relaxation */
(PID.TID 0000.0001)                 6.000000000000000E+02
(PID.TID 0000.0001)     ;
(PID.TID 0000.0001) //
(PID.TID 0000.0001) // Gridding paramters ( PARM04 in namelist )
(PID.TID 0000.0001) //
(PID.TID 0000.0001) usingCartesianGrid = /* Cartesian coordinates flag ( True/False ) */
(PID.TID 0000.0001)                   T
(PID.TID 0000.0001)     ;
(PID.TID 0000.0001) usingCylindricalGrid = /* Cylindrical coordinates flag ( True/False ) */
(PID.TID 0000.0001)                   F
(PID.TID 0000.0001)     ;
(PID.TID 0000.0001) usingSphericalPolarGrid = /* Spherical coordinates flag ( True/False ) */
(PID.TID 0000.0001)                   F
(PID.TID 0000.0001)     ;
(PID.TID 0000.0001) usingCurvilinearGrid = /* Curvilinear coordinates flag ( True/False ) */
(PID.TID 0000.0001)                   F
(PID.TID 0000.0001)     ;
(PID.TID 0000.0001) useMin4hFacEdges = /* set hFacW,S as minimum of adjacent hFacC factor */
(PID.TID 0000.0001)                   F
(PID.TID 0000.0001)     ;
(PID.TID 0000.0001) interViscAr_pCell = /* account for partial-cell in interior vert. viscosity */
(PID.TID 0000.0001)                   F
(PID.TID 0000.0001)     ;
(PID.TID 0000.0001) interDiffKr_pCell = /* account for partial-cell in interior vert. diffusion */
(PID.TID 0000.0001)                   F
(PID.TID 0000.0001)     ;
(PID.TID 0000.0001) pCellMix_select = /* option to enhance mixing near surface & bottom */
(PID.TID 0000.0001)                       0
(PID.TID 0000.0001)     ;
(PID.TID 0000.0001) selectSigmaCoord = /* Hybrid-Sigma Vert. Coordinate option */
(PID.TID 0000.0001)                       0
(PID.TID 0000.0001)     ;
(PID.TID 0000.0001) rSigmaBnd = /* r/sigma transition ( units of r ==  m ) */
(PID.TID 0000.0001)                 1.234567000000000E+05
(PID.TID 0000.0001)     ;
(PID.TID 0000.0001) rkSign =   /* index orientation relative to vertical coordinate */
(PID.TID 0000.0001)                -1.000000000000000E+00
(PID.TID 0000.0001)     ;
(PID.TID 0000.0001) gravitySign = /* gravity orientation relative to vertical coordinate */
(PID.TID 0000.0001)                -1.000000000000000E+00
(PID.TID 0000.0001)     ;
(PID.TID 0000.0001) seaLev_Z =  /* reference height of sea-level [m] */
(PID.TID 0000.0001)                 0.000000000000000E+00
(PID.TID 0000.0001)     ;
(PID.TID 0000.0001) top_Pres =  /* reference pressure at the top [Pa] */
(PID.TID 0000.0001)                 0.000000000000000E+00
(PID.TID 0000.0001)     ;
(PID.TID 0000.0001) mass2rUnit = /* convert mass per unit area [kg/m2] to r-units [m] */
(PID.TID 0000.0001)                 1.000200040008002E-03
(PID.TID 0000.0001)     ;
(PID.TID 0000.0001) rUnit2mass = /* convert r-units [m] to mass per unit area [kg/m2] */
(PID.TID 0000.0001)                 9.998000000000000E+02
(PID.TID 0000.0001)     ;
(PID.TID 0000.0001) drC =   /* C spacing ( units of r ) */
(PID.TID 0000.0001)                 1.666666666666667E+00,      /* K =  1 */
(PID.TID 0000.0001)    59 @  3.333333333333333E+00,             /* K =  2: 60 */
(PID.TID 0000.0001)                 1.666666666666667E+00       /* K = 61 */
(PID.TID 0000.0001)     ;
(PID.TID 0000.0001) drF =   /* W spacing ( units of r ) */
(PID.TID 0000.0001)    60 @  3.333333333333333E+00              /* K =  1: 60 */
(PID.TID 0000.0001)     ;
(PID.TID 0000.0001) delX = /* U spacing ( m - cartesian, degrees - spherical ) */
(PID.TID 0000.0001)                 1.333350557843028E+01,      /* I =  1 */
(PID.TID 0000.0001)                 1.333351440956528E+01,      /* I =  2 */
(PID.TID 0000.0001)                 1.333352369347595E+01,      /* I =  3 */
(PID.TID 0000.0001)      . . .
(PID.TID 0000.0001)                 1.334142525413410E+01,      /* I = 78 */
(PID.TID 0000.0001)                 1.334184000343805E+01,      /* I = 79 */
(PID.TID 0000.0001)                 1.334227600347911E+01,      /* I = 80 */
(PID.TID 0000.0001)                 1.334273434234323E+01,      /* I = 81 */
(PID.TID 0000.0001)                 1.334321616375004E+01,      /* I = 82 */
(PID.TID 0000.0001)                 1.334372266988904E+01,      /* I = 83 */
(PID.TID 0000.0001)      . . .
(PID.TID 0000.0001)                 1.376806664990509E+01,      /* I =158 */
(PID.TID 0000.0001)                 1.378997422175274E+01,      /* I =159 */
(PID.TID 0000.0001)                 1.381296559898911E+01,      /* I =160 */
(PID.TID 0000.0001)                 1.383709231832104E+01,      /* I =161 */
(PID.TID 0000.0001)                 1.386240815290873E+01,      /* I =162 */
(PID.TID 0000.0001)                 1.388896918716481E+01,      /* I =163 */
(PID.TID 0000.0001)      . . .
(PID.TID 0000.0001)                 2.600055500056160E+01,      /* I =238 */
(PID.TID 0000.0001)                 2.633340276042106E+01,      /* I =239 */
(PID.TID 0000.0001)                 2.666666666666666E+01,      /* I =240 */
(PID.TID 0000.0001)                 2.699993057291228E+01,      /* I =241 */
(PID.TID 0000.0001)                 2.733277833277173E+01,      /* I =242 */
(PID.TID 0000.0001)                 2.766479587583332E+01,      /* I =243 */
(PID.TID 0000.0001)      . . .
(PID.TID 0000.0001)                 3.947092518042460E+01,      /* I =318 */
(PID.TID 0000.0001)                 3.949624101501229E+01,      /* I =319 */
(PID.TID 0000.0001)                 3.952036773434423E+01       /* I =320 */
(PID.TID 0000.0001)     ;
(PID.TID 0000.0001) delY = /* V spacing ( m - cartesian, degrees - spherical ) */
(PID.TID 0000.0001)                 2.000000000000000E+02       /* J =  1 */
(PID.TID 0000.0001)     ;
(PID.TID 0000.0001) xgOrigin = /* X-axis origin of West  edge (cartesian: m, lat-lon: deg) */
(PID.TID 0000.0001)                 0.000000000000000E+00
(PID.TID 0000.0001)     ;
(PID.TID 0000.0001) ygOrigin = /* Y-axis origin of South edge (cartesian: m, lat-lon: deg) */
(PID.TID 0000.0001)                 0.000000000000000E+00
(PID.TID 0000.0001)     ;
(PID.TID 0000.0001) rSphere =  /* Radius ( ignored - cartesian, m - spherical ) */
(PID.TID 0000.0001)                 6.370000000000000E+06
(PID.TID 0000.0001)     ;
(PID.TID 0000.0001) deepAtmosphere = /* Deep/Shallow Atmosphere flag (True/False) */
(PID.TID 0000.0001)                   F
(PID.TID 0000.0001)     ;
(PID.TID 0000.0001) xC =  /* xC(:,1,:,1) : P-point X coord ( deg. or m if cartesian) */
(PID.TID 0000.0001)                 6.666752789215142E+00,      /* I =  1 */
(PID.TID 0000.0001)                 2.000026278321292E+01,      /* I =  2 */
(PID.TID 0000.0001)                 3.333378183473354E+01,      /* I =  3 */
(PID.TID 0000.0001)      . . .
(PID.TID 0000.0001)                 1.033491870505545E+03,      /* I = 78 */
(PID.TID 0000.0001)                 1.046833503134331E+03,      /* I = 79 */
(PID.TID 0000.0001)                 1.060175561137789E+03,      /* I = 80 */
(PID.TID 0000.0001)                 1.073518066310700E+03,      /* I = 81 */
(PID.TID 0000.0001)                 1.086861041563747E+03,      /* I = 82 */
(PID.TID 0000.0001)                 1.100204510980566E+03,      /* I = 83 */
(PID.TID 0000.0001)      . . .
(PID.TID 0000.0001)                 2.108764740818271E+03,      /* I =158 */
(PID.TID 0000.0001)                 2.122543761254100E+03,      /* I =159 */
(PID.TID 0000.0001)                 2.136345231164471E+03,      /* I =160 */
(PID.TID 0000.0001)                 2.150170260123126E+03,      /* I =161 */
(PID.TID 0000.0001)                 2.164020010358741E+03,      /* I =162 */
(PID.TID 0000.0001)                 2.177895699028778E+03,      /* I =163 */
(PID.TID 0000.0001)      . . .
(PID.TID 0000.0001)                 3.510369234886317E+03,      /* I =238 */
(PID.TID 0000.0001)                 3.536536213766808E+03,      /* I =239 */
(PID.TID 0000.0001)                 3.563036248480352E+03,      /* I =240 */
(PID.TID 0000.0001)                 3.589869547100142E+03,      /* I =241 */
(PID.TID 0000.0001)                 3.617035901552984E+03,      /* I =242 */
(PID.TID 0000.0001)                 3.644534688657286E+03,      /* I =243 */
(PID.TID 0000.0001)      . . .
(PID.TID 0000.0001)                 6.324020010358740E+03,      /* I =318 */
(PID.TID 0000.0001)                 6.363503593456458E+03,      /* I =319 */
(PID.TID 0000.0001)                 6.403011897831137E+03       /* I =320 */
(PID.TID 0000.0001)     ;
(PID.TID 0000.0001) yC =  /* yC(1,:,1,:) : P-point Y coord ( deg. or m if cartesian) */
(PID.TID 0000.0001)                 1.000000000000000E+02       /* J =  1 */
(PID.TID 0000.0001)     ;
(PID.TID 0000.0001) rcoord = /* P-point R coordinate (  units of r ) */
(PID.TID 0000.0001)                -1.666666666666667E+00,      /* K =  1 */
(PID.TID 0000.0001)                -5.000000000000000E+00,      /* K =  2 */
(PID.TID 0000.0001)                -8.333333333333334E+00,      /* K =  3 */
(PID.TID 0000.0001)                -1.166666666666667E+01,      /* K =  4 */
(PID.TID 0000.0001)                -1.500000000000000E+01,      /* K =  5 */
(PID.TID 0000.0001)                -1.833333333333334E+01,      /* K =  6 */
(PID.TID 0000.0001)                -2.166666666666667E+01,      /* K =  7 */
(PID.TID 0000.0001)                -2.500000000000000E+01,      /* K =  8 */
(PID.TID 0000.0001)                -2.833333333333333E+01,      /* K =  9 */
(PID.TID 0000.0001)                -3.166666666666666E+01,      /* K = 10 */
(PID.TID 0000.0001)                -3.500000000000000E+01,      /* K = 11 */
(PID.TID 0000.0001)                -3.833333333333334E+01,      /* K = 12 */
(PID.TID 0000.0001)                -4.166666666666667E+01,      /* K = 13 */
(PID.TID 0000.0001)                -4.500000000000001E+01,      /* K = 14 */
(PID.TID 0000.0001)                -4.833333333333334E+01,      /* K = 15 */
(PID.TID 0000.0001)                -5.166666666666668E+01,      /* K = 16 */
(PID.TID 0000.0001)                -5.500000000000001E+01,      /* K = 17 */
(PID.TID 0000.0001)                -5.833333333333335E+01,      /* K = 18 */
(PID.TID 0000.0001)                -6.166666666666669E+01,      /* K = 19 */
(PID.TID 0000.0001)                -6.500000000000001E+01,      /* K = 20 */
(PID.TID 0000.0001)                -6.833333333333334E+01,      /* K = 21 */
(PID.TID 0000.0001)                -7.166666666666667E+01,      /* K = 22 */
(PID.TID 0000.0001)                -7.500000000000000E+01,      /* K = 23 */
(PID.TID 0000.0001)                -7.833333333333333E+01,      /* K = 24 */
(PID.TID 0000.0001)                -8.166666666666666E+01,      /* K = 25 */
(PID.TID 0000.0001)                -8.499999999999999E+01,      /* K = 26 */
(PID.TID 0000.0001)                -8.833333333333331E+01,      /* K = 27 */
(PID.TID 0000.0001)                -9.166666666666664E+01,      /* K = 28 */
(PID.TID 0000.0001)                -9.499999999999997E+01,      /* K = 29 */
(PID.TID 0000.0001)                -9.833333333333330E+01,      /* K = 30 */
(PID.TID 0000.0001)                -1.016666666666666E+02,      /* K = 31 */
(PID.TID 0000.0001)                -1.050000000000000E+02,      /* K = 32 */
(PID.TID 0000.0001)                -1.083333333333333E+02,      /* K = 33 */
(PID.TID 0000.0001)                -1.116666666666666E+02,      /* K = 34 */
(PID.TID 0000.0001)                -1.149999999999999E+02,      /* K = 35 */
(PID.TID 0000.0001)                -1.183333333333333E+02,      /* K = 36 */
(PID.TID 0000.0001)                -1.216666666666666E+02,      /* K = 37 */
(PID.TID 0000.0001)                -1.249999999999999E+02,      /* K = 38 */
(PID.TID 0000.0001)                -1.283333333333333E+02,      /* K = 39 */
(PID.TID 0000.0001)                -1.316666666666666E+02,      /* K = 40 */
(PID.TID 0000.0001)                -1.349999999999999E+02,      /* K = 41 */
(PID.TID 0000.0001)                -1.383333333333333E+02,      /* K = 42 */
(PID.TID 0000.0001)                -1.416666666666666E+02,      /* K = 43 */
(PID.TID 0000.0001)                -1.450000000000000E+02,      /* K = 44 */
(PID.TID 0000.0001)                -1.483333333333333E+02,      /* K = 45 */
(PID.TID 0000.0001)                -1.516666666666667E+02,      /* K = 46 */
(PID.TID 0000.0001)                -1.550000000000000E+02,      /* K = 47 */
(PID.TID 0000.0001)                -1.583333333333333E+02,      /* K = 48 */
(PID.TID 0000.0001)                -1.616666666666667E+02,      /* K = 49 */
(PID.TID 0000.0001)                -1.650000000000000E+02,      /* K = 50 */
(PID.TID 0000.0001)                -1.683333333333334E+02,      /* K = 51 */
(PID.TID 0000.0001)                -1.716666666666667E+02,      /* K = 52 */
(PID.TID 0000.0001)                -1.750000000000001E+02,      /* K = 53 */
(PID.TID 0000.0001)                -1.783333333333334E+02,      /* K = 54 */
(PID.TID 0000.0001)                -1.816666666666667E+02,      /* K = 55 */
(PID.TID 0000.0001)                -1.850000000000001E+02,      /* K = 56 */
(PID.TID 0000.0001)                -1.883333333333334E+02,      /* K = 57 */
(PID.TID 0000.0001)                -1.916666666666668E+02,      /* K = 58 */
(PID.TID 0000.0001)                -1.950000000000001E+02,      /* K = 59 */
(PID.TID 0000.0001)                -1.983333333333335E+02       /* K = 60 */
(PID.TID 0000.0001)     ;
(PID.TID 0000.0001) rF =   /* W-Interf. R coordinate (  units of r ) */
(PID.TID 0000.0001)                 0.000000000000000E+00,      /* K =  1 */
(PID.TID 0000.0001)                -3.333333333333333E+00,      /* K =  2 */
(PID.TID 0000.0001)                -6.666666666666667E+00,      /* K =  3 */
(PID.TID 0000.0001)                -1.000000000000000E+01,      /* K =  4 */
(PID.TID 0000.0001)                -1.333333333333333E+01,      /* K =  5 */
(PID.TID 0000.0001)                -1.666666666666667E+01,      /* K =  6 */
(PID.TID 0000.0001)                -2.000000000000000E+01,      /* K =  7 */
(PID.TID 0000.0001)                -2.333333333333333E+01,      /* K =  8 */
(PID.TID 0000.0001)                -2.666666666666666E+01,      /* K =  9 */
(PID.TID 0000.0001)                -3.000000000000000E+01,      /* K = 10 */
(PID.TID 0000.0001)                -3.333333333333333E+01,      /* K = 11 */
(PID.TID 0000.0001)                -3.666666666666666E+01,      /* K = 12 */
(PID.TID 0000.0001)                -4.000000000000000E+01,      /* K = 13 */
(PID.TID 0000.0001)                -4.333333333333334E+01,      /* K = 14 */
(PID.TID 0000.0001)                -4.666666666666667E+01,      /* K = 15 */
(PID.TID 0000.0001)                -5.000000000000001E+01,      /* K = 16 */
(PID.TID 0000.0001)                -5.333333333333334E+01,      /* K = 17 */
(PID.TID 0000.0001)                -5.666666666666668E+01,      /* K = 18 */
(PID.TID 0000.0001)                -6.000000000000001E+01,      /* K = 19 */
(PID.TID 0000.0001)                -6.333333333333335E+01,      /* K = 20 */
(PID.TID 0000.0001)                -6.666666666666669E+01,      /* K = 21 */
(PID.TID 0000.0001)                -7.000000000000001E+01,      /* K = 22 */
(PID.TID 0000.0001)                -7.333333333333334E+01,      /* K = 23 */
(PID.TID 0000.0001)                -7.666666666666667E+01,      /* K = 24 */
(PID.TID 0000.0001)                -8.000000000000000E+01,      /* K = 25 */
(PID.TID 0000.0001)                -8.333333333333333E+01,      /* K = 26 */
(PID.TID 0000.0001)                -8.666666666666666E+01,      /* K = 27 */
(PID.TID 0000.0001)                -8.999999999999999E+01,      /* K = 28 */
(PID.TID 0000.0001)                -9.333333333333331E+01,      /* K = 29 */
(PID.TID 0000.0001)                -9.666666666666664E+01,      /* K = 30 */
(PID.TID 0000.0001)                -9.999999999999997E+01,      /* K = 31 */
(PID.TID 0000.0001)                -1.033333333333333E+02,      /* K = 32 */
(PID.TID 0000.0001)                -1.066666666666666E+02,      /* K = 33 */
(PID.TID 0000.0001)                -1.100000000000000E+02,      /* K = 34 */
(PID.TID 0000.0001)                -1.133333333333333E+02,      /* K = 35 */
(PID.TID 0000.0001)                -1.166666666666666E+02,      /* K = 36 */
(PID.TID 0000.0001)                -1.199999999999999E+02,      /* K = 37 */
(PID.TID 0000.0001)                -1.233333333333333E+02,      /* K = 38 */
(PID.TID 0000.0001)                -1.266666666666666E+02,      /* K = 39 */
(PID.TID 0000.0001)                -1.299999999999999E+02,      /* K = 40 */
(PID.TID 0000.0001)                -1.333333333333333E+02,      /* K = 41 */
(PID.TID 0000.0001)                -1.366666666666666E+02,      /* K = 42 */
(PID.TID 0000.0001)                -1.400000000000000E+02,      /* K = 43 */
(PID.TID 0000.0001)                -1.433333333333333E+02,      /* K = 44 */
(PID.TID 0000.0001)                -1.466666666666667E+02,      /* K = 45 */
(PID.TID 0000.0001)                -1.500000000000000E+02,      /* K = 46 */
(PID.TID 0000.0001)                -1.533333333333333E+02,      /* K = 47 */
(PID.TID 0000.0001)                -1.566666666666667E+02,      /* K = 48 */
(PID.TID 0000.0001)                -1.600000000000000E+02,      /* K = 49 */
(PID.TID 0000.0001)                -1.633333333333334E+02,      /* K = 50 */
(PID.TID 0000.0001)                -1.666666666666667E+02,      /* K = 51 */
(PID.TID 0000.0001)                -1.700000000000001E+02,      /* K = 52 */
(PID.TID 0000.0001)                -1.733333333333334E+02,      /* K = 53 */
(PID.TID 0000.0001)                -1.766666666666667E+02,      /* K = 54 */
(PID.TID 0000.0001)                -1.800000000000001E+02,      /* K = 55 */
(PID.TID 0000.0001)                -1.833333333333334E+02,      /* K = 56 */
(PID.TID 0000.0001)                -1.866666666666668E+02,      /* K = 57 */
(PID.TID 0000.0001)                -1.900000000000001E+02,      /* K = 58 */
(PID.TID 0000.0001)                -1.933333333333335E+02,      /* K = 59 */
(PID.TID 0000.0001)                -1.966666666666668E+02,      /* K = 60 */
(PID.TID 0000.0001)                -2.000000000000001E+02       /* K = 61 */
(PID.TID 0000.0001)     ;
(PID.TID 0000.0001) deepFacC = /* deep-model grid factor @ cell-Center (-) */
(PID.TID 0000.0001)    60 @  1.000000000000000E+00              /* K =  1: 60 */
(PID.TID 0000.0001)     ;
(PID.TID 0000.0001) deepFacF = /* deep-model grid factor @ W-Interface (-) */
(PID.TID 0000.0001)    61 @  1.000000000000000E+00              /* K =  1: 61 */
(PID.TID 0000.0001)     ;
(PID.TID 0000.0001) rotateGrid = /* use rotated grid ( True/False ) */
(PID.TID 0000.0001)                   F
(PID.TID 0000.0001)     ;
(PID.TID 0000.0001) phiEuler = /* Euler angle, rotation about original z-coordinate [rad] */
(PID.TID 0000.0001)                 0.000000000000000E+00
(PID.TID 0000.0001)     ;
(PID.TID 0000.0001) thetaEuler = /* Euler angle, rotation about new x-coordinate [rad] */
(PID.TID 0000.0001)                 0.000000000000000E+00
(PID.TID 0000.0001)     ;
(PID.TID 0000.0001) psiEuler = /* Euler angle, rotation about new z-coordinate [rad] */
(PID.TID 0000.0001)                 0.000000000000000E+00
(PID.TID 0000.0001)     ;
(PID.TID 0000.0001) dxF =  /* dxF(:,1,:,1) ( units: m ) */
(PID.TID 0000.0001)                 1.333350557843028E+01,      /* I =  1 */
(PID.TID 0000.0001)                 1.333351440956528E+01,      /* I =  2 */
(PID.TID 0000.0001)                 1.333352369347595E+01,      /* I =  3 */
(PID.TID 0000.0001)      . . .
(PID.TID 0000.0001)                 1.334142525413410E+01,      /* I = 78 */
(PID.TID 0000.0001)                 1.334184000343805E+01,      /* I = 79 */
(PID.TID 0000.0001)                 1.334227600347911E+01,      /* I = 80 */
(PID.TID 0000.0001)                 1.334273434234323E+01,      /* I = 81 */
(PID.TID 0000.0001)                 1.334321616375004E+01,      /* I = 82 */
(PID.TID 0000.0001)                 1.334372266988904E+01,      /* I = 83 */
(PID.TID 0000.0001)      . . .
(PID.TID 0000.0001)                 1.376806664990509E+01,      /* I =158 */
(PID.TID 0000.0001)                 1.378997422175274E+01,      /* I =159 */
(PID.TID 0000.0001)                 1.381296559898911E+01,      /* I =160 */
(PID.TID 0000.0001)                 1.383709231832104E+01,      /* I =161 */
(PID.TID 0000.0001)                 1.386240815290873E+01,      /* I =162 */
(PID.TID 0000.0001)                 1.388896918716481E+01,      /* I =163 */
(PID.TID 0000.0001)      . . .
(PID.TID 0000.0001)                 2.600055500056160E+01,      /* I =238 */
(PID.TID 0000.0001)                 2.633340276042106E+01,      /* I =239 */
(PID.TID 0000.0001)                 2.666666666666666E+01,      /* I =240 */
(PID.TID 0000.0001)                 2.699993057291228E+01,      /* I =241 */
(PID.TID 0000.0001)                 2.733277833277173E+01,      /* I =242 */
(PID.TID 0000.0001)                 2.766479587583332E+01,      /* I =243 */
(PID.TID 0000.0001)      . . .
(PID.TID 0000.0001)                 3.947092518042460E+01,      /* I =318 */
(PID.TID 0000.0001)                 3.949624101501229E+01,      /* I =319 */
(PID.TID 0000.0001)                 3.952036773434423E+01       /* I =320 */
(PID.TID 0000.0001)     ;
(PID.TID 0000.0001) dxF =  /* dxF(1,:,1,:) ( units: m ) */
(PID.TID 0000.0001)                 1.333350557843028E+01       /* J =  1 */
(PID.TID 0000.0001)     ;
(PID.TID 0000.0001) dyF =  /* dyF(:,1,:,1) ( units: m ) */
(PID.TID 0000.0001)   320 @  2.000000000000000E+02              /* I =  1:320 */
(PID.TID 0000.0001)     ;
(PID.TID 0000.0001) dyF =  /* dyF(1,:,1,:) ( units: m ) */
(PID.TID 0000.0001)                 2.000000000000000E+02       /* J =  1 */
(PID.TID 0000.0001)     ;
(PID.TID 0000.0001) dxG =  /* dxG(:,1,:,1) ( units: m ) */
(PID.TID 0000.0001)                 1.333350557843028E+01,      /* I =  1 */
(PID.TID 0000.0001)                 1.333351440956528E+01,      /* I =  2 */
(PID.TID 0000.0001)                 1.333352369347595E+01,      /* I =  3 */
(PID.TID 0000.0001)      . . .
(PID.TID 0000.0001)                 1.334142525413410E+01,      /* I = 78 */
(PID.TID 0000.0001)                 1.334184000343805E+01,      /* I = 79 */
(PID.TID 0000.0001)                 1.334227600347911E+01,      /* I = 80 */
(PID.TID 0000.0001)                 1.334273434234323E+01,      /* I = 81 */
(PID.TID 0000.0001)                 1.334321616375004E+01,      /* I = 82 */
(PID.TID 0000.0001)                 1.334372266988904E+01,      /* I = 83 */
(PID.TID 0000.0001)      . . .
(PID.TID 0000.0001)                 1.376806664990509E+01,      /* I =158 */
(PID.TID 0000.0001)                 1.378997422175274E+01,      /* I =159 */
(PID.TID 0000.0001)                 1.381296559898911E+01,      /* I =160 */
(PID.TID 0000.0001)                 1.383709231832104E+01,      /* I =161 */
(PID.TID 0000.0001)                 1.386240815290873E+01,      /* I =162 */
(PID.TID 0000.0001)                 1.388896918716481E+01,      /* I =163 */
(PID.TID 0000.0001)      . . .
(PID.TID 0000.0001)                 2.600055500056160E+01,      /* I =238 */
(PID.TID 0000.0001)                 2.633340276042106E+01,      /* I =239 */
(PID.TID 0000.0001)                 2.666666666666666E+01,      /* I =240 */
(PID.TID 0000.0001)                 2.699993057291228E+01,      /* I =241 */
(PID.TID 0000.0001)                 2.733277833277173E+01,      /* I =242 */
(PID.TID 0000.0001)                 2.766479587583332E+01,      /* I =243 */
(PID.TID 0000.0001)      . . .
(PID.TID 0000.0001)                 3.947092518042460E+01,      /* I =318 */
(PID.TID 0000.0001)                 3.949624101501229E+01,      /* I =319 */
(PID.TID 0000.0001)                 3.952036773434423E+01       /* I =320 */
(PID.TID 0000.0001)     ;
(PID.TID 0000.0001) dxG =  /* dxG(1,:,1,:) ( units: m ) */
(PID.TID 0000.0001)                 1.333350557843028E+01       /* J =  1 */
(PID.TID 0000.0001)     ;
(PID.TID 0000.0001) dyG =  /* dyG(:,1,:,1) ( units: m ) */
(PID.TID 0000.0001)   320 @  2.000000000000000E+02              /* I =  1:320 */
(PID.TID 0000.0001)     ;
(PID.TID 0000.0001) dyG =  /* dyG(1,:,1,:) ( units: m ) */
(PID.TID 0000.0001)                 2.000000000000000E+02       /* J =  1 */
(PID.TID 0000.0001)     ;
(PID.TID 0000.0001) dxC =  /* dxC(:,1,:,1) ( units: m ) */
(PID.TID 0000.0001)                 2.642693665638726E+01,      /* I =  1 */
(PID.TID 0000.0001)                 1.333350999399778E+01,      /* I =  2 */
(PID.TID 0000.0001)                 1.333351905152062E+01,      /* I =  3 */
(PID.TID 0000.0001)      . . .
(PID.TID 0000.0001)                 1.334122798727485E+01,      /* I = 78 */
(PID.TID 0000.0001)                 1.334163262878608E+01,      /* I = 79 */
(PID.TID 0000.0001)                 1.334205800345858E+01,      /* I = 80 */
(PID.TID 0000.0001)                 1.334250517291117E+01,      /* I = 81 */
(PID.TID 0000.0001)                 1.334297525304664E+01,      /* I = 82 */
(PID.TID 0000.0001)                 1.334346941681954E+01,      /* I = 83 */
(PID.TID 0000.0001)      . . .
(PID.TID 0000.0001)                 1.375763007933133E+01,      /* I =158 */
(PID.TID 0000.0001)                 1.377902043582892E+01,      /* I =159 */
(PID.TID 0000.0001)                 1.380146991037093E+01,      /* I =160 */
(PID.TID 0000.0001)                 1.382502895865507E+01,      /* I =161 */
(PID.TID 0000.0001)                 1.384975023561489E+01,      /* I =162 */
(PID.TID 0000.0001)                 1.387568867003677E+01,      /* I =163 */
(PID.TID 0000.0001)      . . .
(PID.TID 0000.0001)                 2.583454622903081E+01,      /* I =238 */
(PID.TID 0000.0001)                 2.616697888049133E+01,      /* I =239 */
(PID.TID 0000.0001)                 2.650003471354386E+01,      /* I =240 */
(PID.TID 0000.0001)                 2.683329861978947E+01,      /* I =241 */
(PID.TID 0000.0001)                 2.716635445284200E+01,      /* I =242 */
(PID.TID 0000.0001)                 2.749878710430253E+01,      /* I =243 */
(PID.TID 0000.0001)      . . .
(PID.TID 0000.0001)                 3.945764466329656E+01,      /* I =318 */
(PID.TID 0000.0001)                 3.948358309771845E+01,      /* I =319 */
(PID.TID 0000.0001)                 3.950830437467826E+01       /* I =320 */
(PID.TID 0000.0001)     ;
(PID.TID 0000.0001) dxC =  /* dxC(1,:,1,:) ( units: m ) */
(PID.TID 0000.0001)                 2.642693665638726E+01       /* J =  1 */
(PID.TID 0000.0001)     ;
(PID.TID 0000.0001) dyC =  /* dyC(:,1,:,1) ( units: m ) */
(PID.TID 0000.0001)   320 @  2.000000000000000E+02              /* I =  1:320 */
(PID.TID 0000.0001)     ;
(PID.TID 0000.0001) dyC =  /* dyC(1,:,1,:) ( units: m ) */
(PID.TID 0000.0001)                 2.000000000000000E+02       /* J =  1 */
(PID.TID 0000.0001)     ;
(PID.TID 0000.0001) dxV =  /* dxV(:,1,:,1) ( units: m ) */
(PID.TID 0000.0001)                 2.642693665638726E+01,      /* I =  1 */
(PID.TID 0000.0001)                 1.333350999399778E+01,      /* I =  2 */
(PID.TID 0000.0001)                 1.333351905152062E+01,      /* I =  3 */
(PID.TID 0000.0001)      . . .
(PID.TID 0000.0001)                 1.334122798727485E+01,      /* I = 78 */
(PID.TID 0000.0001)                 1.334163262878608E+01,      /* I = 79 */
(PID.TID 0000.0001)                 1.334205800345858E+01,      /* I = 80 */
(PID.TID 0000.0001)                 1.334250517291117E+01,      /* I = 81 */
(PID.TID 0000.0001)                 1.334297525304664E+01,      /* I = 82 */
(PID.TID 0000.0001)                 1.334346941681954E+01,      /* I = 83 */
(PID.TID 0000.0001)      . . .
(PID.TID 0000.0001)                 1.375763007933133E+01,      /* I =158 */
(PID.TID 0000.0001)                 1.377902043582892E+01,      /* I =159 */
(PID.TID 0000.0001)                 1.380146991037093E+01,      /* I =160 */
(PID.TID 0000.0001)                 1.382502895865507E+01,      /* I =161 */
(PID.TID 0000.0001)                 1.384975023561489E+01,      /* I =162 */
(PID.TID 0000.0001)                 1.387568867003677E+01,      /* I =163 */
(PID.TID 0000.0001)      . . .
(PID.TID 0000.0001)                 2.583454622903081E+01,      /* I =238 */
(PID.TID 0000.0001)                 2.616697888049133E+01,      /* I =239 */
(PID.TID 0000.0001)                 2.650003471354386E+01,      /* I =240 */
(PID.TID 0000.0001)                 2.683329861978947E+01,      /* I =241 */
(PID.TID 0000.0001)                 2.716635445284200E+01,      /* I =242 */
(PID.TID 0000.0001)                 2.749878710430253E+01,      /* I =243 */
(PID.TID 0000.0001)      . . .
(PID.TID 0000.0001)                 3.945764466329656E+01,      /* I =318 */
(PID.TID 0000.0001)                 3.948358309771845E+01,      /* I =319 */
(PID.TID 0000.0001)                 3.950830437467826E+01       /* I =320 */
(PID.TID 0000.0001)     ;
(PID.TID 0000.0001) dxV =  /* dxV(1,:,1,:) ( units: m ) */
(PID.TID 0000.0001)                 2.642693665638726E+01       /* J =  1 */
(PID.TID 0000.0001)     ;
(PID.TID 0000.0001) dyU =  /* dyU(:,1,:,1) ( units: m ) */
(PID.TID 0000.0001)   320 @  2.000000000000000E+02              /* I =  1:320 */
(PID.TID 0000.0001)     ;
(PID.TID 0000.0001) dyU =  /* dyU(1,:,1,:) ( units: m ) */
(PID.TID 0000.0001)                 2.000000000000000E+02       /* J =  1 */
(PID.TID 0000.0001)     ;
(PID.TID 0000.0001) rA  =  /* rA (:,1,:,1) ( units: m^2 ) */
(PID.TID 0000.0001)                 2.666701115686057E+03,      /* I =  1 */
(PID.TID 0000.0001)                 2.666702881913057E+03,      /* I =  2 */
(PID.TID 0000.0001)                 2.666704738695189E+03,      /* I =  3 */
(PID.TID 0000.0001)      . . .
(PID.TID 0000.0001)                 2.668285050826821E+03,      /* I = 78 */
(PID.TID 0000.0001)                 2.668368000687609E+03,      /* I = 79 */
(PID.TID 0000.0001)                 2.668455200695822E+03,      /* I = 80 */
(PID.TID 0000.0001)                 2.668546868468647E+03,      /* I = 81 */
(PID.TID 0000.0001)                 2.668643232750007E+03,      /* I = 82 */
(PID.TID 0000.0001)                 2.668744533977807E+03,      /* I = 83 */
(PID.TID 0000.0001)      . . .
(PID.TID 0000.0001)                 2.753613329981019E+03,      /* I =158 */
(PID.TID 0000.0001)                 2.757994844350548E+03,      /* I =159 */
(PID.TID 0000.0001)                 2.762593119797822E+03,      /* I =160 */
(PID.TID 0000.0001)                 2.767418463664208E+03,      /* I =161 */
(PID.TID 0000.0001)                 2.772481630581747E+03,      /* I =162 */
(PID.TID 0000.0001)                 2.777793837432962E+03,      /* I =163 */
(PID.TID 0000.0001)      . . .
(PID.TID 0000.0001)                 5.200111000112320E+03,      /* I =238 */
(PID.TID 0000.0001)                 5.266680552084212E+03,      /* I =239 */
(PID.TID 0000.0001)                 5.333333333333333E+03,      /* I =240 */
(PID.TID 0000.0001)                 5.399986114582455E+03,      /* I =241 */
(PID.TID 0000.0001)                 5.466555666554346E+03,      /* I =242 */
(PID.TID 0000.0001)                 5.532959175166664E+03,      /* I =243 */
(PID.TID 0000.0001)      . . .
(PID.TID 0000.0001)                 7.894185036084920E+03,      /* I =318 */
(PID.TID 0000.0001)                 7.899248203002459E+03,      /* I =319 */
(PID.TID 0000.0001)                 7.904073546868845E+03       /* I =320 */
(PID.TID 0000.0001)     ;
(PID.TID 0000.0001) rA  =  /* rA (1,:,1,:) ( units: m^2 ) */
(PID.TID 0000.0001)                 2.666701115686057E+03       /* J =  1 */
(PID.TID 0000.0001)     ;
(PID.TID 0000.0001) rAw =  /* rAw(:,1,:,1) ( units: m^2 ) */
(PID.TID 0000.0001)                 5.285387331277451E+03,      /* I =  1 */
(PID.TID 0000.0001)                 2.666701998799557E+03,      /* I =  2 */
(PID.TID 0000.0001)                 2.666703810304123E+03,      /* I =  3 */
(PID.TID 0000.0001)      . . .
(PID.TID 0000.0001)                 2.668245597454970E+03,      /* I = 78 */
(PID.TID 0000.0001)                 2.668326525757215E+03,      /* I = 79 */
(PID.TID 0000.0001)                 2.668411600691716E+03,      /* I = 80 */
(PID.TID 0000.0001)                 2.668501034582234E+03,      /* I = 81 */
(PID.TID 0000.0001)                 2.668595050609327E+03,      /* I = 82 */
(PID.TID 0000.0001)                 2.668693883363907E+03,      /* I = 83 */
(PID.TID 0000.0001)      . . .
(PID.TID 0000.0001)                 2.751526015866266E+03,      /* I =158 */
(PID.TID 0000.0001)                 2.755804087165784E+03,      /* I =159 */
(PID.TID 0000.0001)                 2.760293982074185E+03,      /* I =160 */
(PID.TID 0000.0001)                 2.765005791731015E+03,      /* I =161 */
(PID.TID 0000.0001)                 2.769950047122978E+03,      /* I =162 */
(PID.TID 0000.0001)                 2.775137734007355E+03,      /* I =163 */
(PID.TID 0000.0001)      . . .
(PID.TID 0000.0001)                 5.166909245806161E+03,      /* I =238 */
(PID.TID 0000.0001)                 5.233395776098266E+03,      /* I =239 */
(PID.TID 0000.0001)                 5.300006942708772E+03,      /* I =240 */
(PID.TID 0000.0001)                 5.366659723957894E+03,      /* I =241 */
(PID.TID 0000.0001)                 5.433270890568401E+03,      /* I =242 */
(PID.TID 0000.0001)                 5.499757420860506E+03,      /* I =243 */
(PID.TID 0000.0001)      . . .
(PID.TID 0000.0001)                 7.891528932659313E+03,      /* I =318 */
(PID.TID 0000.0001)                 7.896716619543690E+03,      /* I =319 */
(PID.TID 0000.0001)                 7.901660874935652E+03       /* I =320 */
(PID.TID 0000.0001)     ;
(PID.TID 0000.0001) rAw =  /* rAw(1,:,1,:) ( units: m^2 ) */
(PID.TID 0000.0001)                 5.285387331277451E+03       /* J =  1 */
(PID.TID 0000.0001)     ;
(PID.TID 0000.0001) rAs =  /* rAs(:,1,:,1) ( units: m^2 ) */
(PID.TID 0000.0001)                 2.666701115686057E+03,      /* I =  1 */
(PID.TID 0000.0001)                 2.666702881913057E+03,      /* I =  2 */
(PID.TID 0000.0001)                 2.666704738695189E+03,      /* I =  3 */
(PID.TID 0000.0001)      . . .
(PID.TID 0000.0001)                 2.668285050826821E+03,      /* I = 78 */
(PID.TID 0000.0001)                 2.668368000687609E+03,      /* I = 79 */
(PID.TID 0000.0001)                 2.668455200695822E+03,      /* I = 80 */
(PID.TID 0000.0001)                 2.668546868468647E+03,      /* I = 81 */
(PID.TID 0000.0001)                 2.668643232750007E+03,      /* I = 82 */
(PID.TID 0000.0001)                 2.668744533977807E+03,      /* I = 83 */
(PID.TID 0000.0001)      . . .
(PID.TID 0000.0001)                 2.753613329981019E+03,      /* I =158 */
(PID.TID 0000.0001)                 2.757994844350548E+03,      /* I =159 */
(PID.TID 0000.0001)                 2.762593119797822E+03,      /* I =160 */
(PID.TID 0000.0001)                 2.767418463664208E+03,      /* I =161 */
(PID.TID 0000.0001)                 2.772481630581747E+03,      /* I =162 */
(PID.TID 0000.0001)                 2.777793837432962E+03,      /* I =163 */
(PID.TID 0000.0001)      . . .
(PID.TID 0000.0001)                 5.200111000112320E+03,      /* I =238 */
(PID.TID 0000.0001)                 5.266680552084212E+03,      /* I =239 */
(PID.TID 0000.0001)                 5.333333333333333E+03,      /* I =240 */
(PID.TID 0000.0001)                 5.399986114582455E+03,      /* I =241 */
(PID.TID 0000.0001)                 5.466555666554346E+03,      /* I =242 */
(PID.TID 0000.0001)                 5.532959175166664E+03,      /* I =243 */
(PID.TID 0000.0001)      . . .
(PID.TID 0000.0001)                 7.894185036084920E+03,      /* I =318 */
(PID.TID 0000.0001)                 7.899248203002459E+03,      /* I =319 */
(PID.TID 0000.0001)                 7.904073546868845E+03       /* I =320 */
(PID.TID 0000.0001)     ;
(PID.TID 0000.0001) rAs =  /* rAs(1,:,1,:) ( units: m^2 ) */
(PID.TID 0000.0001)                 2.666701115686057E+03       /* J =  1 */
(PID.TID 0000.0001)     ;
(PID.TID 0000.0001) globalArea = /* Integrated horizontal Area (m^2) */
(PID.TID 0000.0001)                 1.273983641677108E+06
(PID.TID 0000.0001)     ;
(PID.TID 0000.0001) // =======================================================
(PID.TID 0000.0001) // End of Model config. summary
(PID.TID 0000.0001) // =======================================================
(PID.TID 0000.0001) 
(PID.TID 0000.0001) == Packages configuration : Check & print summary ==
(PID.TID 0000.0001) 
(PID.TID 0000.0001) OBCS_CHECK: #define ALLOW_OBCS
(PID.TID 0000.0001) // =======================================================
(PID.TID 0000.0001) // OBCS_CHECK: OBCS configuration summary
(PID.TID 0000.0001) // =======================================================
(PID.TID 0000.0001) 
(PID.TID 0000.0001) useOBCSprescribe = /* prescribe OB values */
(PID.TID 0000.0001)                   F
(PID.TID 0000.0001)     ;
(PID.TID 0000.0001) useOBCSbalance = /* balance the flow through OB */
(PID.TID 0000.0001)                   T
(PID.TID 0000.0001)     ;
(PID.TID 0000.0001) OBCSbalanceSurf = /* include surf. flux in balance */
(PID.TID 0000.0001)                   F
(PID.TID 0000.0001)     ;
(PID.TID 0000.0001) OBCS_balanceFacN = /* Northern OB Factor for balancing OB flow [-] */
(PID.TID 0000.0001)                 1.000000000000000E+00
(PID.TID 0000.0001)     ;
(PID.TID 0000.0001) OBCS_balanceFacS = /* Southern OB Factor for balancing OB flow [-] */
(PID.TID 0000.0001)                 1.000000000000000E+00
(PID.TID 0000.0001)     ;
(PID.TID 0000.0001) OBCS_balanceFacE = /* Eastern  OB Factor for balancing OB flow [-] */
(PID.TID 0000.0001)                 1.000000000000000E+00
(PID.TID 0000.0001)     ;
(PID.TID 0000.0001) OBCS_balanceFacW = /* Western  OB Factor for balancing OB flow [-] */
(PID.TID 0000.0001)                 1.000000000000000E+00
(PID.TID 0000.0001)     ;
(PID.TID 0000.0001) OBCSfixTopo =  /* mod. topo to have zero gradient across boundaries. */
(PID.TID 0000.0001)                   F
(PID.TID 0000.0001)     ;
(PID.TID 0000.0001) OBCS_uvApplyFac = /* Factor to apply to U,V 2nd column/row */
(PID.TID 0000.0001)                 1.000000000000000E+00
(PID.TID 0000.0001)     ;
(PID.TID 0000.0001) OBCS_u1_adv_T = /* Temp uses upwind adv-scheme @ OB */
(PID.TID 0000.0001)                       0
(PID.TID 0000.0001)     ;
(PID.TID 0000.0001) OBCS_u1_adv_S = /* Salt uses upwind adv-scheme @ OB */
(PID.TID 0000.0001)                       0
(PID.TID 0000.0001)     ;
(PID.TID 0000.0001) OBCS_monitorFreq = /* monitor output frequency [s] */
(PID.TID 0000.0001)                 4.000000000000000E+02
(PID.TID 0000.0001)     ;
(PID.TID 0000.0001) OBCS_monSelect = /* select group of variables to monitor */
(PID.TID 0000.0001)                       0
(PID.TID 0000.0001)     ;
(PID.TID 0000.0001) OBCSprintDiags =  /* print some OBCS diagnostics. */
(PID.TID 0000.0001)                   F
(PID.TID 0000.0001)     ;
(PID.TID 0000.0001) useOBCStides = /* apply tidal forcing through OB */
(PID.TID 0000.0001)                   F
(PID.TID 0000.0001)     ;
(PID.TID 0000.0001) tidalPeriod = /* (s) */
(PID.TID 0000.0001)    10 @  0.000000000000000E+00              /* I =  1: 10 */
(PID.TID 0000.0001)     ;
(PID.TID 0000.0001) useOrlanskiNorth =  /* use Orlanski for northern bound. */
(PID.TID 0000.0001)                   F
(PID.TID 0000.0001)     ;
(PID.TID 0000.0001) useOrlanskiSouth =  /* use Orlanski for southern bound. */
(PID.TID 0000.0001)                   F
(PID.TID 0000.0001)     ;
(PID.TID 0000.0001) useOrlanskiEast  =  /* use Orlanski for eastern bound. */
(PID.TID 0000.0001)                   T
(PID.TID 0000.0001)     ;
(PID.TID 0000.0001) useOrlanskiWest  =  /* use Orlanski for western bound. */
(PID.TID 0000.0001)                   F
(PID.TID 0000.0001)     ;
(PID.TID 0000.0001) useStevensNorth =  /* use Stevens for northern bound. */
(PID.TID 0000.0001)                   F
(PID.TID 0000.0001)     ;
(PID.TID 0000.0001) useStevensSouth =  /* use Stevens for southern bound. */
(PID.TID 0000.0001)                   F
(PID.TID 0000.0001)     ;
(PID.TID 0000.0001) useStevensEast  =  /* use Stevens for eastern bound. */
(PID.TID 0000.0001)                   F
(PID.TID 0000.0001)     ;
(PID.TID 0000.0001) useStevensWest  =  /* use Stevens for western bound. */
(PID.TID 0000.0001)                   F
(PID.TID 0000.0001)     ;
(PID.TID 0000.0001) useStevensPhaseVel  =  /* include phase vel. term. */
(PID.TID 0000.0001)                   T
(PID.TID 0000.0001)     ;
(PID.TID 0000.0001) useStevensAdvection  =  /* include advection term. */
(PID.TID 0000.0001)                   T
(PID.TID 0000.0001)     ;
(PID.TID 0000.0001) TrelaxStevens = /* relaxation time scale for theta ( s ). */
(PID.TID 0000.0001)                 0.000000000000000E+00
(PID.TID 0000.0001)     ;
(PID.TID 0000.0001) SrelaxStevens = /* relaxation time scale for salinity ( s ). */
(PID.TID 0000.0001)                 0.000000000000000E+00
(PID.TID 0000.0001)     ;
(PID.TID 0000.0001) useOBCSSponge =  /* use sponge along boundaries */
(PID.TID 0000.0001)                   F
(PID.TID 0000.0001)     ;
(PID.TID 0000.0001) OB_indexNone = /* null value for OB index (i.e. no OB) */
(PID.TID 0000.0001)                     -99
(PID.TID 0000.0001)     ;
(PID.TID 0000.0001) ======== Tile bi=   1 , bj=   1 ========
(PID.TID 0000.0001)  OB_Jn = /* Northern OB local indices */
(PID.TID 0000.0001)    86 @      -99                            /* I = -2: 83 */
(PID.TID 0000.0001)  OB_Js = /* Southern OB local indices */
(PID.TID 0000.0001)    86 @      -99                            /* I = -2: 83 */
(PID.TID 0000.0001)  OB_Ie = /* Eastern OB local indices */
(PID.TID 0000.0001)     7 @      -99                            /* J = -2:  4 */
(PID.TID 0000.0001)  OB_Iw = /* Western OB local indices */
(PID.TID 0000.0001)     7 @      -99                            /* J = -2:  4 */
(PID.TID 0000.0001) ======== Tile bi=   2 , bj=   1 ========
(PID.TID 0000.0001)  OB_Jn = /* Northern OB local indices */
(PID.TID 0000.0001)    86 @      -99                            /* I = -2: 83 */
(PID.TID 0000.0001)  OB_Js = /* Southern OB local indices */
(PID.TID 0000.0001)    86 @      -99                            /* I = -2: 83 */
(PID.TID 0000.0001)  OB_Ie = /* Eastern OB local indices */
(PID.TID 0000.0001)     7 @      -99                            /* J = -2:  4 */
(PID.TID 0000.0001)  OB_Iw = /* Western OB local indices */
(PID.TID 0000.0001)     7 @      -99                            /* J = -2:  4 */
(PID.TID 0000.0001) ======== Tile bi=   3 , bj=   1 ========
(PID.TID 0000.0001)  OB_Jn = /* Northern OB local indices */
(PID.TID 0000.0001)    86 @      -99                            /* I = -2: 83 */
(PID.TID 0000.0001)  OB_Js = /* Southern OB local indices */
(PID.TID 0000.0001)    86 @      -99                            /* I = -2: 83 */
(PID.TID 0000.0001)  OB_Ie = /* Eastern OB local indices */
(PID.TID 0000.0001)     7 @      -99                            /* J = -2:  4 */
(PID.TID 0000.0001)  OB_Iw = /* Western OB local indices */
(PID.TID 0000.0001)     7 @      -99                            /* J = -2:  4 */
(PID.TID 0000.0001) ======== Tile bi=   4 , bj=   1 ========
(PID.TID 0000.0001)  OB_Jn = /* Northern OB local indices */
(PID.TID 0000.0001)    86 @      -99                            /* I = -2: 83 */
(PID.TID 0000.0001)  OB_Js = /* Southern OB local indices */
(PID.TID 0000.0001)    86 @      -99                            /* I = -2: 83 */
(PID.TID 0000.0001)  OB_Ie = /* Eastern OB local indices */
(PID.TID 0000.0001)     7 @       80                            /* J = -2:  4 */
(PID.TID 0000.0001)  OB_Iw = /* Western OB local indices */
(PID.TID 0000.0001)     7 @      -99                            /* J = -2:  4 */
(PID.TID 0000.0001) // =======================================================
(PID.TID 0000.0001) // End of OBCS config. summary
(PID.TID 0000.0001) // =======================================================
(PID.TID 0000.0001) 
(PID.TID 0000.0001) OBCS_CHECK: #define ALLOW_ORLANSKI
(PID.TID 0000.0001) OBCS_CHECK: set-up OK
(PID.TID 0000.0001) OBCS_CHECK: check Inside Mask and OB locations: OK
(PID.TID 0000.0001) GAD_CHECK: #define ALLOW_GENERIC_ADVDIFF
(PID.TID 0000.0001) // =======================================================
(PID.TID 0000.0001) // Check Model config. (CONFIG_CHECK):
(PID.TID 0000.0001) // CONFIG_CHECK : Normal End
(PID.TID 0000.0001) // =======================================================
(PID.TID 0000.0001) 
(PID.TID 0000.0001)  MDS_READ_FIELD: opening global file: T.init
(PID.TID 0000.0001) Start initial hydrostatic pressure computation
(PID.TID 0000.0001) Pressure is predetermined for buoyancyRelation OCEANIC
(PID.TID 0000.0001) 
(PID.TID 0000.0001)  MDS_READ_FIELD: opening global file: Qnet.forcing
(PID.TID 0000.0001) // =======================================================
(PID.TID 0000.0001) // Model current state
(PID.TID 0000.0001) // =======================================================
(PID.TID 0000.0001) 
(PID.TID 0000.0001) // =======================================================
(PID.TID 0000.0001) // Begin MONITOR dynamic field statistics
(PID.TID 0000.0001) // =======================================================
(PID.TID 0000.0001) %MON time_tsnumber                =                     0
(PID.TID 0000.0001) %MON time_secondsf                =   0.0000000000000E+00
(PID.TID 0000.0001) %MON dynstat_eta_max              =   0.0000000000000E+00
(PID.TID 0000.0001) %MON dynstat_eta_min              =   0.0000000000000E+00
(PID.TID 0000.0001) %MON dynstat_eta_mean             =   0.0000000000000E+00
(PID.TID 0000.0001) %MON dynstat_eta_sd               =   0.0000000000000E+00
(PID.TID 0000.0001) %MON dynstat_eta_del2             =   0.0000000000000E+00
(PID.TID 0000.0001) %MON dynstat_uvel_max             =   0.0000000000000E+00
(PID.TID 0000.0001) %MON dynstat_uvel_min             =   0.0000000000000E+00
(PID.TID 0000.0001) %MON dynstat_uvel_mean            =   0.0000000000000E+00
(PID.TID 0000.0001) %MON dynstat_uvel_sd              =   0.0000000000000E+00
(PID.TID 0000.0001) %MON dynstat_uvel_del2            =   0.0000000000000E+00
(PID.TID 0000.0001) %MON dynstat_vvel_max             =   0.0000000000000E+00
(PID.TID 0000.0001) %MON dynstat_vvel_min             =   0.0000000000000E+00
(PID.TID 0000.0001) %MON dynstat_vvel_mean            =   0.0000000000000E+00
(PID.TID 0000.0001) %MON dynstat_vvel_sd              =   0.0000000000000E+00
(PID.TID 0000.0001) %MON dynstat_vvel_del2            =   0.0000000000000E+00
(PID.TID 0000.0001) %MON dynstat_wvel_max             =  -0.0000000000000E+00
(PID.TID 0000.0001) %MON dynstat_wvel_min             =  -0.0000000000000E+00
(PID.TID 0000.0001) %MON dynstat_wvel_mean            =   0.0000000000000E+00
(PID.TID 0000.0001) %MON dynstat_wvel_sd              =   0.0000000000000E+00
(PID.TID 0000.0001) %MON dynstat_wvel_del2            =   0.0000000000000E+00
(PID.TID 0000.0001) %MON dynstat_theta_max            =   9.9980345224379E-03
(PID.TID 0000.0001) %MON dynstat_theta_min            =   3.9889598923900E-07
(PID.TID 0000.0001) %MON dynstat_theta_mean           =   5.0640617176934E-03
(PID.TID 0000.0001) %MON dynstat_theta_sd             =   2.8825342517700E-03
(PID.TID 0000.0001) %MON dynstat_theta_del2           =   6.1216372586452E-05
(PID.TID 0000.0001) %MON dynstat_salt_max             =   3.5000000000000E+01
(PID.TID 0000.0001) %MON dynstat_salt_min             =   3.5000000000000E+01
(PID.TID 0000.0001) %MON dynstat_salt_mean            =   3.5000000000000E+01
(PID.TID 0000.0001) %MON dynstat_salt_sd              =   1.2789769243682E-13
(PID.TID 0000.0001) %MON dynstat_salt_del2            =   0.0000000000000E+00
(PID.TID 0000.0001) %MON trAdv_CFL_u_max              =   0.0000000000000E+00
(PID.TID 0000.0001) %MON trAdv_CFL_v_max              =   0.0000000000000E+00
(PID.TID 0000.0001) %MON trAdv_CFL_w_max              =   0.0000000000000E+00
(PID.TID 0000.0001) %MON advcfl_uvel_max              =   0.0000000000000E+00
(PID.TID 0000.0001) %MON advcfl_vvel_max              =   0.0000000000000E+00
(PID.TID 0000.0001) %MON advcfl_wvel_max              =   0.0000000000000E+00
(PID.TID 0000.0001) %MON advcfl_W_hf_max              =   0.0000000000000E+00
(PID.TID 0000.0001) %MON pe_b_mean                    =   0.0000000000000E+00
(PID.TID 0000.0001) %MON ke_max                       =   0.0000000000000E+00
(PID.TID 0000.0001) %MON ke_mean                      =   0.0000000000000E+00
(PID.TID 0000.0001) %MON ke_vol                       =   2.0102771472217E+08
(PID.TID 0000.0001) %MON vort_r_min                   =   0.0000000000000E+00
(PID.TID 0000.0001) %MON vort_r_max                   =   0.0000000000000E+00
(PID.TID 0000.0001) %MON vort_a_mean                  =   0.0000000000000E+00
(PID.TID 0000.0001) %MON vort_a_sd                    =   0.0000000000000E+00
(PID.TID 0000.0001) %MON vort_p_mean                  =   0.0000000000000E+00
(PID.TID 0000.0001) %MON vort_p_sd                    =   0.0000000000000E+00
(PID.TID 0000.0001) %MON surfExpan_theta_mean         =   0.0000000000000E+00
(PID.TID 0000.0001) %MON surfExpan_salt_mean          =   0.0000000000000E+00
(PID.TID 0000.0001) // =======================================================
(PID.TID 0000.0001) // End MONITOR dynamic field statistics
(PID.TID 0000.0001) // =======================================================
(PID.TID 0000.0001) // =======================================================
(PID.TID 0000.0001) // Begin OBCS MONITOR field statistics
(PID.TID 0000.0001) // =======================================================
(PID.TID 0000.0001) %MON obc_time_tsnumber            =                     0
(PID.TID 0000.0001) %MON obc_time_secondsf            =   0.0000000000000E+00
(PID.TID 0000.0001) %MON obc_E_uVel_max               =   0.0000000000000E+00
(PID.TID 0000.0001) %MON obc_E_uVel_min               =   0.0000000000000E+00
(PID.TID 0000.0001) %MON obc_E_uVel_mean              =   0.0000000000000E+00
(PID.TID 0000.0001) %MON obc_E_uVel_sd                =   0.0000000000000E+00
(PID.TID 0000.0001) %MON obc_E_uVel_Int               =   0.0000000000000E+00
(PID.TID 0000.0001) // =======================================================
(PID.TID 0000.0001) // End OBCS MONITOR field statistics
(PID.TID 0000.0001) // =======================================================
(PID.TID 0000.0001) SOLVE_FOR_PRESSURE: putPmEinXvector =    F
(PID.TID 0000.0001) SOLVE_FOR_PRESSURE: zeroPsNH=    F , zeroMeanPnh=    F
(PID.TID 0000.0001) SOLVE_FOR_PRESSURE: oldFreeSurfTerm =    T
 cg2d: Sum(rhs),rhsMax =   6.66133814775094E-16  4.34534814524274E-04
(PID.TID 0000.0001)      cg2d_init_res =   4.31213602031276E+00
(PID.TID 0000.0001)      cg2d_iters(min,last) =      -1     199
(PID.TID 0000.0001)      cg2d_last_res =   8.69882100770269E-14
 cg3d: Sum(rhs),rhsMax =  -2.73210273848967E-14  9.42857689229853E-06
(PID.TID 0000.0001)      cg3d_init_res =   2.10684632797408E+01
(PID.TID 0000.0001)      cg3d_iters (last) =                 20
(PID.TID 0000.0001)      cg3d_last_res =   3.04049897397057E-03
(PID.TID 0000.0001) // =======================================================
(PID.TID 0000.0001) // Begin MONITOR dynamic field statistics
(PID.TID 0000.0001) // =======================================================
(PID.TID 0000.0001) %MON time_tsnumber                =                     1
(PID.TID 0000.0001) %MON time_secondsf                =   2.0000000000000E+01
(PID.TID 0000.0001) %MON dynstat_eta_max              =   2.3725500233583E-05
(PID.TID 0000.0001) %MON dynstat_eta_min              =  -2.0699974017747E-05
(PID.TID 0000.0001) %MON dynstat_eta_mean             =  -2.1801260627244E-19
(PID.TID 0000.0001) %MON dynstat_eta_sd               =   7.5296024184042E-06
(PID.TID 0000.0001) %MON dynstat_eta_del2             =   9.0533798245052E-07
(PID.TID 0000.0001) %MON dynstat_uvel_max             =   1.0004216839354E-04
(PID.TID 0000.0001) %MON dynstat_uvel_min             =  -1.0905120582135E-04
(PID.TID 0000.0001) %MON dynstat_uvel_mean            =   1.0756742432170E-07
(PID.TID 0000.0001) %MON dynstat_uvel_sd              =   2.1316815734603E-05
(PID.TID 0000.0001) %MON dynstat_uvel_del2            =   5.6951890137339E-07
(PID.TID 0000.0001) %MON dynstat_vvel_max             =   0.0000000000000E+00
(PID.TID 0000.0001) %MON dynstat_vvel_min             =   0.0000000000000E+00
(PID.TID 0000.0001) %MON dynstat_vvel_mean            =   0.0000000000000E+00
(PID.TID 0000.0001) %MON dynstat_vvel_sd              =   0.0000000000000E+00
(PID.TID 0000.0001) %MON dynstat_vvel_del2            =   0.0000000000000E+00
(PID.TID 0000.0001) %MON dynstat_wvel_max             =   8.9133299602885E-05
(PID.TID 0000.0001) %MON dynstat_wvel_min             =  -9.5323128568249E-05
(PID.TID 0000.0001) %MON dynstat_wvel_mean            =  -5.7732074913562E-23
(PID.TID 0000.0001) %MON dynstat_wvel_sd              =   2.0618351917428E-05
(PID.TID 0000.0001) %MON dynstat_wvel_del2            =   5.8122434880565E-07
(PID.TID 0000.0001) %MON dynstat_theta_max            =   9.9980210743326E-03
(PID.TID 0000.0001) %MON dynstat_theta_min            =  -1.6971463843299E-06
(PID.TID 0000.0001) %MON dynstat_theta_mean           =   5.0633840131541E-03
(PID.TID 0000.0001) %MON dynstat_theta_sd             =   2.8823288461251E-03
(PID.TID 0000.0001) %MON dynstat_theta_del2           =   6.1209819701864E-05
(PID.TID 0000.0001) %MON dynstat_salt_max             =   3.5000000000000E+01
(PID.TID 0000.0001) %MON dynstat_salt_min             =   3.5000000000000E+01
(PID.TID 0000.0001) %MON dynstat_salt_mean            =   3.5000000000000E+01
(PID.TID 0000.0001) %MON dynstat_salt_sd              =   1.2789769243682E-13
(PID.TID 0000.0001) %MON dynstat_salt_del2            =   0.0000000000000E+00
(PID.TID 0000.0001) %MON trAdv_CFL_u_max              =   2.2946484398834E-04
(PID.TID 0000.0001) %MON trAdv_CFL_v_max              =   0.0000000000000E+00
(PID.TID 0000.0001) %MON trAdv_CFL_w_max              =   5.7193877140949E-04
(PID.TID 0000.0001) %MON advcfl_uvel_max              =   1.6354763613003E-04
(PID.TID 0000.0001) %MON advcfl_vvel_max              =   0.0000000000000E+00
(PID.TID 0000.0001) %MON advcfl_wvel_max              =   5.7193877140949E-04
(PID.TID 0000.0001) %MON advcfl_W_hf_max              =   5.7193877140949E-04
(PID.TID 0000.0001) %MON pe_b_mean                    =   1.7623453526678E-12
(PID.TID 0000.0001) %MON ke_max                       =   4.7002899891188E-09
(PID.TID 0000.0001) %MON ke_mean                      =   4.3923124901351E-10
(PID.TID 0000.0001) %MON ke_vol                       =   2.0102771472217E+08
(PID.TID 0000.0001) %MON vort_r_min                   =   0.0000000000000E+00
(PID.TID 0000.0001) %MON vort_r_max                   =   0.0000000000000E+00
(PID.TID 0000.0001) %MON vort_a_mean                  =   0.0000000000000E+00
(PID.TID 0000.0001) %MON vort_a_sd                    =   0.0000000000000E+00
(PID.TID 0000.0001) %MON vort_p_mean                  =   0.0000000000000E+00
(PID.TID 0000.0001) %MON vort_p_sd                    =   0.0000000000000E+00
(PID.TID 0000.0001) %MON surfExpan_theta_mean         =   2.3960859949972E-10
(PID.TID 0000.0001) %MON surfExpan_salt_mean          =  -5.7843013716005E-21
(PID.TID 0000.0001) // =======================================================
(PID.TID 0000.0001) // End MONITOR dynamic field statistics
(PID.TID 0000.0001) // =======================================================
 cg2d: Sum(rhs),rhsMax =   2.23815813142625E-06  4.34550800999035E-04
(PID.TID 0000.0001)      cg2d_init_res =   1.57377283861334E-03
(PID.TID 0000.0001)      cg2d_iters(min,last) =      -1     187
(PID.TID 0000.0001)      cg2d_last_res =   7.42767194477353E-14
 cg3d: Sum(rhs),rhsMax =   7.11930514540882E-15  9.42787453239293E-06
(PID.TID 0000.0001)      cg3d_init_res =   7.82205886086472E-02
(PID.TID 0000.0001)      cg3d_iters (last) =                 20
(PID.TID 0000.0001)      cg3d_last_res =   3.60371778783145E-04
(PID.TID 0000.0001) // =======================================================
(PID.TID 0000.0001) // Begin MONITOR dynamic field statistics
(PID.TID 0000.0001) // =======================================================
(PID.TID 0000.0001) %MON time_tsnumber                =                     2
(PID.TID 0000.0001) %MON time_secondsf                =   4.0000000000000E+01
(PID.TID 0000.0001) %MON dynstat_eta_max              =   2.4209078977724E-05
(PID.TID 0000.0001) %MON dynstat_eta_min              =  -2.0550421704206E-05
(PID.TID 0000.0001) %MON dynstat_eta_mean             =  -7.9707986619789E-10
(PID.TID 0000.0001) %MON dynstat_eta_sd               =   7.6288707639973E-06
(PID.TID 0000.0001) %MON dynstat_eta_del2             =   9.0551011746044E-07
(PID.TID 0000.0001) %MON dynstat_uvel_max             =   1.9909757529946E-04
(PID.TID 0000.0001) %MON dynstat_uvel_min             =  -2.1605805942540E-04
(PID.TID 0000.0001) %MON dynstat_uvel_mean            =   1.4918590059606E-07
(PID.TID 0000.0001) %MON dynstat_uvel_sd              =   4.2577106075981E-05
(PID.TID 0000.0001) %MON dynstat_uvel_del2            =   1.1360462000507E-06
(PID.TID 0000.0001) %MON dynstat_vvel_max             =   0.0000000000000E+00
(PID.TID 0000.0001) %MON dynstat_vvel_min             =   0.0000000000000E+00
(PID.TID 0000.0001) %MON dynstat_vvel_mean            =   0.0000000000000E+00
(PID.TID 0000.0001) %MON dynstat_vvel_sd              =   0.0000000000000E+00
(PID.TID 0000.0001) %MON dynstat_vvel_del2            =   0.0000000000000E+00
(PID.TID 0000.0001) %MON dynstat_wvel_max             =   1.7788404001256E-04
(PID.TID 0000.0001) %MON dynstat_wvel_min             =  -1.9027029154783E-04
(PID.TID 0000.0001) %MON dynstat_wvel_mean            =  -6.3949375288869E-22
(PID.TID 0000.0001) %MON dynstat_wvel_sd              =   4.1157398571935E-05
(PID.TID 0000.0001) %MON dynstat_wvel_del2            =   1.1596812176664E-06
(PID.TID 0000.0001) %MON dynstat_theta_max            =   9.9979934955426E-03
(PID.TID 0000.0001) %MON dynstat_theta_min            =  -2.8990100788158E-04
(PID.TID 0000.0001) %MON dynstat_theta_mean           =   5.0627063390148E-03
(PID.TID 0000.0001) %MON dynstat_theta_sd             =   2.8819511341779E-03
(PID.TID 0000.0001) %MON dynstat_theta_del2           =   6.1196750979156E-05
(PID.TID 0000.0001) %MON dynstat_salt_max             =   3.5000000000000E+01
(PID.TID 0000.0001) %MON dynstat_salt_min             =   3.5000000000000E+01
(PID.TID 0000.0001) %MON dynstat_salt_mean            =   3.5000000000000E+01
(PID.TID 0000.0001) %MON dynstat_salt_sd              =   1.2789769243682E-13
(PID.TID 0000.0001) %MON dynstat_salt_del2            =   0.0000000000000E+00
(PID.TID 0000.0001) %MON trAdv_CFL_u_max              =   4.5575658301707E-04
(PID.TID 0000.0001) %MON trAdv_CFL_v_max              =   0.0000000000000E+00
(PID.TID 0000.0001) %MON trAdv_CFL_w_max              =   1.1416217492870E-03
(PID.TID 0000.0001) %MON advcfl_uvel_max              =   3.2402929082467E-04
(PID.TID 0000.0001) %MON advcfl_vvel_max              =   0.0000000000000E+00
(PID.TID 0000.0001) %MON advcfl_wvel_max              =   1.1416217492870E-03
(PID.TID 0000.0001) %MON advcfl_W_hf_max              =   1.1416217492870E-03
(PID.TID 0000.0001) %MON pe_b_mean                    =   1.8091203051251E-12
(PID.TID 0000.0001) %MON ke_max                       =   1.8726890597219E-08
(PID.TID 0000.0001) %MON ke_mean                      =   1.7512500623063E-09
(PID.TID 0000.0001) %MON ke_vol                       =   2.0102771472217E+08
(PID.TID 0000.0001) %MON vort_r_min                   =   0.0000000000000E+00
(PID.TID 0000.0001) %MON vort_r_max                   =   0.0000000000000E+00
(PID.TID 0000.0001) %MON vort_a_mean                  =   0.0000000000000E+00
(PID.TID 0000.0001) %MON vort_a_sd                    =   0.0000000000000E+00
(PID.TID 0000.0001) %MON vort_p_mean                  =   0.0000000000000E+00
(PID.TID 0000.0001) %MON vort_p_sd                    =   0.0000000000000E+00
(PID.TID 0000.0001) %MON surfExpan_theta_mean         =  -4.9915406082761E-14
(PID.TID 0000.0001) %MON surfExpan_salt_mean          =  -5.8148023957822E-20
(PID.TID 0000.0001) // =======================================================
(PID.TID 0000.0001) // End MONITOR dynamic field statistics
(PID.TID 0000.0001) // =======================================================
 cg2d: Sum(rhs),rhsMax =   2.41481457020909E-06  4.34511207280642E-04
(PID.TID 0000.0001)      cg2d_init_res =   9.24082669891254E-04
(PID.TID 0000.0001)      cg2d_iters(min,last) =      -1     187
(PID.TID 0000.0001)      cg2d_last_res =   6.09123787664842E-14
 cg3d: Sum(rhs),rhsMax =   6.64572563646715E-14  9.42551251836822E-06
(PID.TID 0000.0001)      cg3d_init_res =   3.64962857081734E-02
(PID.TID 0000.0001)      cg3d_iters (last) =                 20
(PID.TID 0000.0001)      cg3d_last_res =   1.98276558094457E-04
(PID.TID 0000.0001) // =======================================================
(PID.TID 0000.0001) // Begin MONITOR dynamic field statistics
(PID.TID 0000.0001) // =======================================================
(PID.TID 0000.0001) %MON time_tsnumber                =                     3
(PID.TID 0000.0001) %MON time_secondsf                =   6.0000000000000E+01
(PID.TID 0000.0001) %MON dynstat_eta_max              =   2.4086829539332E-05
(PID.TID 0000.0001) %MON dynstat_eta_min              =  -2.0349422672653E-05
(PID.TID 0000.0001) %MON dynstat_eta_mean             =  -8.5991453021286E-10
(PID.TID 0000.0001) %MON dynstat_eta_sd               =   7.6273125820413E-06
(PID.TID 0000.0001) %MON dynstat_eta_del2             =   9.0535967865542E-07
(PID.TID 0000.0001) %MON dynstat_uvel_max             =   2.9793294453878E-04
(PID.TID 0000.0001) %MON dynstat_uvel_min             =  -3.2185343110942E-04
(PID.TID 0000.0001) %MON dynstat_uvel_mean            =   1.6845706618984E-07
(PID.TID 0000.0001) %MON dynstat_uvel_sd              =   6.3779925093980E-05
(PID.TID 0000.0001) %MON dynstat_uvel_del2            =   1.7003809576567E-06
(PID.TID 0000.0001) %MON dynstat_vvel_max             =   0.0000000000000E+00
(PID.TID 0000.0001) %MON dynstat_vvel_min             =   0.0000000000000E+00
(PID.TID 0000.0001) %MON dynstat_vvel_mean            =   0.0000000000000E+00
(PID.TID 0000.0001) %MON dynstat_vvel_sd              =   0.0000000000000E+00
(PID.TID 0000.0001) %MON dynstat_vvel_del2            =   0.0000000000000E+00
(PID.TID 0000.0001) %MON dynstat_wvel_max             =   2.6644438863733E-04
(PID.TID 0000.0001) %MON dynstat_wvel_min             =  -2.8498330553196E-04
(PID.TID 0000.0001) %MON dynstat_wvel_mean            =   8.0106055145253E-11
(PID.TID 0000.0001) %MON dynstat_wvel_sd              =   6.1666245963179E-05
(PID.TID 0000.0001) %MON dynstat_wvel_del2            =   1.7365170464312E-06
(PID.TID 0000.0001) %MON dynstat_theta_max            =   9.9979520457098E-03
(PID.TID 0000.0001) %MON dynstat_theta_min            =  -5.7713868592836E-04
(PID.TID 0000.0001) %MON dynstat_theta_mean           =   5.0620286653525E-03
(PID.TID 0000.0001) %MON dynstat_theta_sd             =   2.8814018443826E-03
(PID.TID 0000.0001) %MON dynstat_theta_del2           =   6.1177191871126E-05
(PID.TID 0000.0001) %MON dynstat_salt_max             =   3.5000000000000E+01
(PID.TID 0000.0001) %MON dynstat_salt_min             =   3.5000000000000E+01
(PID.TID 0000.0001) %MON dynstat_salt_mean            =   3.5000000000000E+01
(PID.TID 0000.0001) %MON dynstat_salt_sd              =   1.2789769243682E-13
(PID.TID 0000.0001) %MON dynstat_salt_del2            =   0.0000000000000E+00
(PID.TID 0000.0001) %MON trAdv_CFL_u_max              =   6.7992969487489E-04
(PID.TID 0000.0001) %MON trAdv_CFL_v_max              =   0.0000000000000E+00
(PID.TID 0000.0001) %MON trAdv_CFL_w_max              =   1.7098998331917E-03
(PID.TID 0000.0001) %MON advcfl_uvel_max              =   4.8269404672626E-04
(PID.TID 0000.0001) %MON advcfl_vvel_max              =   0.0000000000000E+00
(PID.TID 0000.0001) %MON advcfl_wvel_max              =   1.7098998331917E-03
(PID.TID 0000.0001) %MON advcfl_W_hf_max              =   1.7098998331917E-03
(PID.TID 0000.0001) %MON pe_b_mean                    =   1.8083813652621E-12
(PID.TID 0000.0001) %MON ke_max                       =   4.2003030071767E-08
(PID.TID 0000.0001) %MON ke_mean                      =   3.9305298551232E-09
(PID.TID 0000.0001) %MON ke_vol                       =   2.0102771472217E+08
(PID.TID 0000.0001) %MON vort_r_min                   =   0.0000000000000E+00
(PID.TID 0000.0001) %MON vort_r_max                   =   0.0000000000000E+00
(PID.TID 0000.0001) %MON vort_a_mean                  =   0.0000000000000E+00
(PID.TID 0000.0001) %MON vort_a_sd                    =   0.0000000000000E+00
(PID.TID 0000.0001) %MON vort_p_mean                  =   0.0000000000000E+00
(PID.TID 0000.0001) %MON vort_p_sd                    =   0.0000000000000E+00
(PID.TID 0000.0001) %MON surfExpan_theta_mean         =  -3.0170376091621E-12
(PID.TID 0000.0001) %MON surfExpan_salt_mean          =  -7.4073915869837E-20
(PID.TID 0000.0001) // =======================================================
(PID.TID 0000.0001) // End MONITOR dynamic field statistics
(PID.TID 0000.0001) // =======================================================
 cg2d: Sum(rhs),rhsMax =   1.91505486450694E-06  4.34475043664295E-04
(PID.TID 0000.0001)      cg2d_init_res =   7.34277256895778E-04
(PID.TID 0000.0001)      cg2d_iters(min,last) =      -1     186
(PID.TID 0000.0001)      cg2d_last_res =   5.31479418783895E-14
 cg3d: Sum(rhs),rhsMax =   5.54849135386837E-14  9.42215859953424E-06
(PID.TID 0000.0001)      cg3d_init_res =   9.36355444481918E-03
(PID.TID 0000.0001)      cg3d_iters (last) =                 20
(PID.TID 0000.0001)      cg3d_last_res =   1.52314019033639E-04
(PID.TID 0000.0001) // =======================================================
(PID.TID 0000.0001) // Begin MONITOR dynamic field statistics
(PID.TID 0000.0001) // =======================================================
(PID.TID 0000.0001) %MON time_tsnumber                =                     4
(PID.TID 0000.0001) %MON time_secondsf                =   8.0000000000000E+01
(PID.TID 0000.0001) %MON dynstat_eta_max              =   2.3971539549744E-05
(PID.TID 0000.0001) %MON dynstat_eta_min              =  -2.0026517887242E-05
(PID.TID 0000.0001) %MON dynstat_eta_mean             =  -6.8189353586751E-10
(PID.TID 0000.0001) %MON dynstat_eta_sd               =   7.6439490258528E-06
(PID.TID 0000.0001) %MON dynstat_eta_del2             =   9.0527882453940E-07
(PID.TID 0000.0001) %MON dynstat_uvel_max             =   3.9647194365496E-04
(PID.TID 0000.0001) %MON dynstat_uvel_min             =  -4.2646295904740E-04
(PID.TID 0000.0001) %MON dynstat_uvel_mean            =   1.7033546557638E-07
(PID.TID 0000.0001) %MON dynstat_uvel_sd              =   8.4932770713200E-05
(PID.TID 0000.0001) %MON dynstat_uvel_del2            =   2.2625876500548E-06
(PID.TID 0000.0001) %MON dynstat_vvel_max             =   0.0000000000000E+00
(PID.TID 0000.0001) %MON dynstat_vvel_min             =   0.0000000000000E+00
(PID.TID 0000.0001) %MON dynstat_vvel_mean            =   0.0000000000000E+00
(PID.TID 0000.0001) %MON dynstat_vvel_sd              =   0.0000000000000E+00
(PID.TID 0000.0001) %MON dynstat_vvel_del2            =   0.0000000000000E+00
(PID.TID 0000.0001) %MON dynstat_wvel_max             =   3.5477973859371E-04
(PID.TID 0000.0001) %MON dynstat_wvel_min             =  -3.7946070255206E-04
(PID.TID 0000.0001) %MON dynstat_wvel_mean            =   2.8249858402952E-10
(PID.TID 0000.0001) %MON dynstat_wvel_sd              =   8.2135516593114E-05
(PID.TID 0000.0001) %MON dynstat_wvel_del2            =   2.3116289487073E-06
(PID.TID 0000.0001) %MON dynstat_theta_max            =   9.9978965472701E-03
(PID.TID 0000.0001) %MON dynstat_theta_min            =  -8.6341586034006E-04
(PID.TID 0000.0001) %MON dynstat_theta_mean           =   5.0613509913889E-03
(PID.TID 0000.0001) %MON dynstat_theta_sd             =   2.8806820548813E-03
(PID.TID 0000.0001) %MON dynstat_theta_del2           =   6.1151179791597E-05
(PID.TID 0000.0001) %MON dynstat_salt_max             =   3.5000000000000E+01
(PID.TID 0000.0001) %MON dynstat_salt_min             =   3.5000000000000E+01
(PID.TID 0000.0001) %MON dynstat_salt_mean            =   3.5000000000000E+01
(PID.TID 0000.0001) %MON dynstat_salt_sd              =   1.2789769243682E-13
(PID.TID 0000.0001) %MON dynstat_salt_del2            =   0.0000000000000E+00
(PID.TID 0000.0001) %MON trAdv_CFL_u_max              =   9.0196348737697E-04
(PID.TID 0000.0001) %MON trAdv_CFL_v_max              =   0.0000000000000E+00
(PID.TID 0000.0001) %MON trAdv_CFL_w_max              =   2.2767642153124E-03
(PID.TID 0000.0001) %MON advcfl_uvel_max              =   6.3958035423728E-04
(PID.TID 0000.0001) %MON advcfl_vvel_max              =   0.0000000000000E+00
(PID.TID 0000.0001) %MON advcfl_wvel_max              =   2.2767642153124E-03
(PID.TID 0000.0001) %MON advcfl_W_hf_max              =   2.2767642153124E-03
(PID.TID 0000.0001) %MON pe_b_mean                    =   1.8162787241218E-12
(PID.TID 0000.0001) %MON ke_max                       =   7.4459603369167E-08
(PID.TID 0000.0001) %MON ke_mean                      =   6.9714298109590E-09
(PID.TID 0000.0001) %MON ke_vol                       =   2.0102771472217E+08
(PID.TID 0000.0001) %MON vort_r_min                   =   0.0000000000000E+00
(PID.TID 0000.0001) %MON vort_r_max                   =   0.0000000000000E+00
(PID.TID 0000.0001) %MON vort_a_mean                  =   0.0000000000000E+00
(PID.TID 0000.0001) %MON vort_a_sd                    =   0.0000000000000E+00
(PID.TID 0000.0001) %MON vort_p_mean                  =   0.0000000000000E+00
(PID.TID 0000.0001) %MON vort_p_sd                    =   0.0000000000000E+00
(PID.TID 0000.0001) %MON surfExpan_theta_mean         =   9.5945277135006E-13
(PID.TID 0000.0001) %MON surfExpan_salt_mean          =   3.8344144685563E-20
(PID.TID 0000.0001) // =======================================================
(PID.TID 0000.0001) // End MONITOR dynamic field statistics
(PID.TID 0000.0001) // =======================================================
 cg2d: Sum(rhs),rhsMax =   9.01814270315437E-07  4.34427624253047E-04
(PID.TID 0000.0001)      cg2d_init_res =   9.62035102142264E-04
(PID.TID 0000.0001)      cg2d_iters(min,last) =      -1     186
(PID.TID 0000.0001)      cg2d_last_res =   6.71578403657019E-14
 cg3d: Sum(rhs),rhsMax =   1.15608260811695E-13  9.41774267343692E-06
(PID.TID 0000.0001)      cg3d_init_res =   1.01206780877783E-02
(PID.TID 0000.0001)      cg3d_iters (last) =                 20
(PID.TID 0000.0001)      cg3d_last_res =   8.08558325574904E-05
(PID.TID 0000.0001) // =======================================================
(PID.TID 0000.0001) // Begin MONITOR dynamic field statistics
(PID.TID 0000.0001) // =======================================================
(PID.TID 0000.0001) %MON time_tsnumber                =                     5
(PID.TID 0000.0001) %MON time_secondsf                =   1.0000000000000E+02
(PID.TID 0000.0001) %MON dynstat_eta_max              =   2.3969093570893E-05
(PID.TID 0000.0001) %MON dynstat_eta_min              =  -1.9736497683203E-05
(PID.TID 0000.0001) %MON dynstat_eta_mean             =  -3.2107393691919E-10
(PID.TID 0000.0001) %MON dynstat_eta_sd               =   7.6757739975331E-06
(PID.TID 0000.0001) %MON dynstat_eta_del2             =   9.0517522186353E-07
(PID.TID 0000.0001) %MON dynstat_uvel_max             =   4.9468481717482E-04
(PID.TID 0000.0001) %MON dynstat_uvel_min             =  -5.2997187012014E-04
(PID.TID 0000.0001) %MON dynstat_uvel_mean            =   1.5467275076887E-07
(PID.TID 0000.0001) %MON dynstat_uvel_sd              =   1.0603565620668E-04
(PID.TID 0000.0001) %MON dynstat_uvel_del2            =   2.8226516393856E-06
(PID.TID 0000.0001) %MON dynstat_vvel_max             =   0.0000000000000E+00
(PID.TID 0000.0001) %MON dynstat_vvel_min             =   0.0000000000000E+00
(PID.TID 0000.0001) %MON dynstat_vvel_mean            =   0.0000000000000E+00
(PID.TID 0000.0001) %MON dynstat_vvel_sd              =   0.0000000000000E+00
(PID.TID 0000.0001) %MON dynstat_vvel_del2            =   0.0000000000000E+00
(PID.TID 0000.0001) %MON dynstat_wvel_max             =   4.4287497244108E-04
(PID.TID 0000.0001) %MON dynstat_wvel_min             =  -4.7369687602573E-04
(PID.TID 0000.0001) %MON dynstat_wvel_mean            =   6.4724026741285E-10
(PID.TID 0000.0001) %MON dynstat_wvel_sd              =   1.0256445225923E-04
(PID.TID 0000.0001) %MON dynstat_wvel_del2            =   2.8850039748568E-06
(PID.TID 0000.0001) %MON dynstat_theta_max            =   9.9978268770505E-03
(PID.TID 0000.0001) %MON dynstat_theta_min            =  -1.1487378012617E-03
(PID.TID 0000.0001) %MON dynstat_theta_mean           =   5.0606733173968E-03
(PID.TID 0000.0001) %MON dynstat_theta_sd             =   2.8797932203190E-03
(PID.TID 0000.0001) %MON dynstat_theta_del2           =   6.1118758547085E-05
(PID.TID 0000.0001) %MON dynstat_salt_max             =   3.5000000000000E+01
(PID.TID 0000.0001) %MON dynstat_salt_min             =   3.5000000000000E+01
(PID.TID 0000.0001) %MON dynstat_salt_mean            =   3.5000000000000E+01
(PID.TID 0000.0001) %MON dynstat_salt_sd              =   1.2789769243682E-13
(PID.TID 0000.0001) %MON dynstat_salt_del2            =   0.0000000000000E+00
(PID.TID 0000.0001) %MON trAdv_CFL_u_max              =   1.1218351521695E-03
(PID.TID 0000.0001) %MON trAdv_CFL_v_max              =   0.0000000000000E+00
(PID.TID 0000.0001) %MON trAdv_CFL_w_max              =   2.8421812561544E-03
(PID.TID 0000.0001) %MON advcfl_uvel_max              =   7.9481603087963E-04
(PID.TID 0000.0001) %MON advcfl_vvel_max              =   0.0000000000000E+00
(PID.TID 0000.0001) %MON advcfl_wvel_max              =   2.8421812561544E-03
(PID.TID 0000.0001) %MON advcfl_W_hf_max              =   2.8421812561544E-03
(PID.TID 0000.0001) %MON pe_b_mean                    =   1.8314340592595E-12
(PID.TID 0000.0001) %MON ke_max                       =   1.1602371463667E-07
(PID.TID 0000.0001) %MON ke_mean                      =   1.0868277215584E-08
(PID.TID 0000.0001) %MON ke_vol                       =   2.0102771472217E+08
(PID.TID 0000.0001) %MON vort_r_min                   =   0.0000000000000E+00
(PID.TID 0000.0001) %MON vort_r_max                   =   0.0000000000000E+00
(PID.TID 0000.0001) %MON vort_a_mean                  =   0.0000000000000E+00
(PID.TID 0000.0001) %MON vort_a_sd                    =   0.0000000000000E+00
(PID.TID 0000.0001) %MON vort_p_mean                  =   0.0000000000000E+00
(PID.TID 0000.0001) %MON vort_p_sd                    =   0.0000000000000E+00
(PID.TID 0000.0001) %MON surfExpan_theta_mean         =   3.4570532846265E-12
(PID.TID 0000.0001) %MON surfExpan_salt_mean          =   1.6557698841493E-21
(PID.TID 0000.0001) // =======================================================
(PID.TID 0000.0001) // End MONITOR dynamic field statistics
(PID.TID 0000.0001) // =======================================================
 cg2d: Sum(rhs),rhsMax =  -8.41672780166336E-07  4.34368533505472E-04
(PID.TID 0000.0001)      cg2d_init_res =   1.19787220858063E-03
(PID.TID 0000.0001)      cg2d_iters(min,last) =      -1     186
(PID.TID 0000.0001)      cg2d_last_res =   8.05187838747966E-14
 cg3d: Sum(rhs),rhsMax =  -3.37453589377423E-14  9.41224895769901E-06
(PID.TID 0000.0001)      cg3d_init_res =   1.22574671931000E-02
(PID.TID 0000.0001)      cg3d_iters (last) =                 20
(PID.TID 0000.0001)      cg3d_last_res =   6.60687314723290E-05
(PID.TID 0000.0001) // =======================================================
(PID.TID 0000.0001) // Begin MONITOR dynamic field statistics
(PID.TID 0000.0001) // =======================================================
(PID.TID 0000.0001) %MON time_tsnumber                =                     6
(PID.TID 0000.0001) %MON time_secondsf                =   1.2000000000000E+02
(PID.TID 0000.0001) %MON dynstat_eta_max              =   2.4060487736102E-05
(PID.TID 0000.0001) %MON dynstat_eta_min              =  -1.9552908999972E-05
(PID.TID 0000.0001) %MON dynstat_eta_mean             =   2.9962093617288E-10
(PID.TID 0000.0001) %MON dynstat_eta_sd               =   7.7108679367531E-06
(PID.TID 0000.0001) %MON dynstat_eta_del2             =   9.0504603555070E-07
(PID.TID 0000.0001) %MON dynstat_uvel_max             =   5.9255710742447E-04
(PID.TID 0000.0001) %MON dynstat_uvel_min             =  -6.3241280795302E-04
(PID.TID 0000.0001) %MON dynstat_uvel_mean            =   1.2521765138075E-07
(PID.TID 0000.0001) %MON dynstat_uvel_sd              =   1.2708813070884E-04
(PID.TID 0000.0001) %MON dynstat_uvel_del2            =   3.3805567999052E-06
(PID.TID 0000.0001) %MON dynstat_vvel_max             =   0.0000000000000E+00
(PID.TID 0000.0001) %MON dynstat_vvel_min             =   0.0000000000000E+00
(PID.TID 0000.0001) %MON dynstat_vvel_mean            =   0.0000000000000E+00
(PID.TID 0000.0001) %MON dynstat_vvel_sd              =   0.0000000000000E+00
(PID.TID 0000.0001) %MON dynstat_vvel_del2            =   0.0000000000000E+00
(PID.TID 0000.0001) %MON dynstat_wvel_max             =   5.3072326144000E-04
(PID.TID 0000.0001) %MON dynstat_wvel_min             =  -5.6769312925158E-04
(PID.TID 0000.0001) %MON dynstat_wvel_mean            =   1.2040022559682E-09
(PID.TID 0000.0001) %MON dynstat_wvel_sd              =   1.2295273126791E-04
(PID.TID 0000.0001) %MON dynstat_wvel_del2            =   3.4566279179964E-06
(PID.TID 0000.0001) %MON dynstat_theta_max            =   9.9977430255630E-03
(PID.TID 0000.0001) %MON dynstat_theta_min            =  -1.4331098800952E-03
(PID.TID 0000.0001) %MON dynstat_theta_mean           =   5.0599956435612E-03
(PID.TID 0000.0001) %MON dynstat_theta_sd             =   2.8787368724876E-03
(PID.TID 0000.0001) %MON dynstat_theta_del2           =   6.1079975946143E-05
(PID.TID 0000.0001) %MON dynstat_salt_max             =   3.5000000000000E+01
(PID.TID 0000.0001) %MON dynstat_salt_min             =   3.5000000000000E+01
(PID.TID 0000.0001) %MON dynstat_salt_mean            =   3.5000000000000E+01
(PID.TID 0000.0001) %MON dynstat_salt_sd              =   1.2789769243682E-13
(PID.TID 0000.0001) %MON dynstat_salt_del2            =   0.0000000000000E+00
(PID.TID 0000.0001) %MON trAdv_CFL_u_max              =   1.3395417682619E-03
(PID.TID 0000.0001) %MON trAdv_CFL_v_max              =   0.0000000000000E+00
(PID.TID 0000.0001) %MON trAdv_CFL_w_max              =   3.4061587755095E-03
(PID.TID 0000.0001) %MON advcfl_uvel_max              =   9.4845003335878E-04
(PID.TID 0000.0001) %MON advcfl_vvel_max              =   0.0000000000000E+00
(PID.TID 0000.0001) %MON advcfl_wvel_max              =   3.4061587755095E-03
(PID.TID 0000.0001) %MON advcfl_W_hf_max              =   3.4061587755095E-03
(PID.TID 0000.0001) %MON pe_b_mean                    =   1.8482191187126E-12
(PID.TID 0000.0001) %MON ke_max                       =   1.6662286665589E-07
(PID.TID 0000.0001) %MON ke_mean                      =   1.5615346345890E-08
(PID.TID 0000.0001) %MON ke_vol                       =   2.0102771472217E+08
(PID.TID 0000.0001) %MON vort_r_min                   =   0.0000000000000E+00
(PID.TID 0000.0001) %MON vort_r_max                   =   0.0000000000000E+00
(PID.TID 0000.0001) %MON vort_a_mean                  =   0.0000000000000E+00
(PID.TID 0000.0001) %MON vort_a_sd                    =   0.0000000000000E+00
(PID.TID 0000.0001) %MON vort_p_mean                  =   0.0000000000000E+00
(PID.TID 0000.0001) %MON vort_p_sd                    =   0.0000000000000E+00
(PID.TID 0000.0001) %MON surfExpan_theta_mean         =   5.0276565879222E-12
(PID.TID 0000.0001) %MON surfExpan_salt_mean          =   7.2570651106596E-20
(PID.TID 0000.0001) // =======================================================
(PID.TID 0000.0001) // End MONITOR dynamic field statistics
(PID.TID 0000.0001) // =======================================================
 cg2d: Sum(rhs),rhsMax =  -3.29314474097064E-06  4.34297937972757E-04
(PID.TID 0000.0001)      cg2d_init_res =   1.43333613168551E-03
(PID.TID 0000.0001)      cg2d_iters(min,last) =      -1     186
(PID.TID 0000.0001)      cg2d_last_res =   9.21284065438754E-14
 cg3d: Sum(rhs),rhsMax =  -1.31886472229392E-13  9.40568226993945E-06
(PID.TID 0000.0001)      cg3d_init_res =   1.44792581269258E-02
(PID.TID 0000.0001)      cg3d_iters (last) =                 20
(PID.TID 0000.0001)      cg3d_last_res =   2.57775096432215E-05
(PID.TID 0000.0001) // =======================================================
(PID.TID 0000.0001) // Begin MONITOR dynamic field statistics
(PID.TID 0000.0001) // =======================================================
(PID.TID 0000.0001) %MON time_tsnumber                =                     7
(PID.TID 0000.0001) %MON time_secondsf                =   1.4000000000000E+02
(PID.TID 0000.0001) %MON dynstat_eta_max              =   2.4188352421996E-05
(PID.TID 0000.0001) %MON dynstat_eta_min              =  -1.9452439157131E-05
(PID.TID 0000.0001) %MON dynstat_eta_mean             =   1.1721119778817E-09
(PID.TID 0000.0001) %MON dynstat_eta_sd               =   7.7412005444025E-06
(PID.TID 0000.0001) %MON dynstat_eta_del2             =   9.0489191485580E-07
(PID.TID 0000.0001) %MON dynstat_uvel_max             =   6.9008619292788E-04
(PID.TID 0000.0001) %MON dynstat_uvel_min             =  -7.3377642207053E-04
(PID.TID 0000.0001) %MON dynstat_uvel_mean            =   8.8190514768972E-08
(PID.TID 0000.0001) %MON dynstat_uvel_sd              =   1.4808979744663E-04
(PID.TID 0000.0001) %MON dynstat_uvel_del2            =   3.9362876856978E-06
(PID.TID 0000.0001) %MON dynstat_vvel_max             =   0.0000000000000E+00
(PID.TID 0000.0001) %MON dynstat_vvel_min             =   0.0000000000000E+00
(PID.TID 0000.0001) %MON dynstat_vvel_mean            =   0.0000000000000E+00
(PID.TID 0000.0001) %MON dynstat_vvel_sd              =   0.0000000000000E+00
(PID.TID 0000.0001) %MON dynstat_vvel_del2            =   0.0000000000000E+00
(PID.TID 0000.0001) %MON dynstat_wvel_max             =   6.1831676717826E-04
(PID.TID 0000.0001) %MON dynstat_wvel_min             =  -6.6144889596640E-04
(PID.TID 0000.0001) %MON dynstat_wvel_mean            =   1.9772049991961E-09
(PID.TID 0000.0001) %MON dynstat_wvel_sd              =   1.4330004129112E-04
(PID.TID 0000.0001) %MON dynstat_wvel_del2            =   4.0264880992500E-06
(PID.TID 0000.0001) %MON dynstat_theta_max            =   9.9976450514864E-03
(PID.TID 0000.0001) %MON dynstat_theta_min            =  -1.7165377965886E-03
(PID.TID 0000.0001) %MON dynstat_theta_mean           =   5.0593179700635E-03
(PID.TID 0000.0001) %MON dynstat_theta_sd             =   2.8775150002203E-03
(PID.TID 0000.0001) %MON dynstat_theta_del2           =   6.1034878739659E-05
(PID.TID 0000.0001) %MON dynstat_salt_max             =   3.5000000000000E+01
(PID.TID 0000.0001) %MON dynstat_salt_min             =   3.5000000000000E+01
(PID.TID 0000.0001) %MON dynstat_salt_mean            =   3.5000000000000E+01
(PID.TID 0000.0001) %MON dynstat_salt_sd              =   1.2789769243682E-13
(PID.TID 0000.0001) %MON dynstat_salt_del2            =   0.0000000000000E+00
(PID.TID 0000.0001) %MON trAdv_CFL_u_max              =   1.5550996253045E-03
(PID.TID 0000.0001) %MON trAdv_CFL_v_max              =   0.0000000000000E+00
(PID.TID 0000.0001) %MON trAdv_CFL_w_max              =   3.9686933757984E-03
(PID.TID 0000.0001) %MON advcfl_uvel_max              =   1.1004683384628E-03
(PID.TID 0000.0001) %MON advcfl_vvel_max              =   0.0000000000000E+00
(PID.TID 0000.0001) %MON advcfl_wvel_max              =   3.9686933757984E-03
(PID.TID 0000.0001) %MON advcfl_W_hf_max              =   3.9686933757984E-03
(PID.TID 0000.0001) %MON pe_b_mean                    =   1.8627886133932E-12
(PID.TID 0000.0001) %MON ke_max                       =   2.2618454375546E-07
(PID.TID 0000.0001) %MON ke_mean                      =   2.1206869025752E-08
(PID.TID 0000.0001) %MON ke_vol                       =   2.0102771472217E+08
(PID.TID 0000.0001) %MON vort_r_min                   =   0.0000000000000E+00
(PID.TID 0000.0001) %MON vort_r_max                   =   0.0000000000000E+00
(PID.TID 0000.0001) %MON vort_a_mean                  =   0.0000000000000E+00
(PID.TID 0000.0001) %MON vort_a_sd                    =   0.0000000000000E+00
(PID.TID 0000.0001) %MON vort_p_mean                  =   0.0000000000000E+00
(PID.TID 0000.0001) %MON vort_p_sd                    =   0.0000000000000E+00
(PID.TID 0000.0001) %MON surfExpan_theta_mean         =   5.6189939905406E-12
(PID.TID 0000.0001) %MON surfExpan_salt_mean          =  -1.2832216602157E-19
(PID.TID 0000.0001) // =======================================================
(PID.TID 0000.0001) // End MONITOR dynamic field statistics
(PID.TID 0000.0001) // =======================================================
 cg2d: Sum(rhs),rhsMax =  -6.84265687590779E-06  4.34215565627678E-04
(PID.TID 0000.0001)      cg2d_init_res =   1.66819596592030E-03
(PID.TID 0000.0001)      cg2d_iters(min,last) =      -1     187
(PID.TID 0000.0001)      cg2d_last_res =   6.19560853956792E-14
 cg3d: Sum(rhs),rhsMax =  -1.21674588807186E-14  9.39805172352553E-06
(PID.TID 0000.0001)      cg3d_init_res =   1.66959566269706E-02
(PID.TID 0000.0001)      cg3d_iters (last) =                 20
(PID.TID 0000.0001)      cg3d_last_res =   2.48790013322244E-05
(PID.TID 0000.0001) // =======================================================
(PID.TID 0000.0001) // Begin MONITOR dynamic field statistics
(PID.TID 0000.0001) // =======================================================
(PID.TID 0000.0001) %MON time_tsnumber                =                     8
(PID.TID 0000.0001) %MON time_secondsf                =   1.6000000000000E+02
(PID.TID 0000.0001) %MON dynstat_eta_max              =   2.4301976990332E-05
(PID.TID 0000.0001) %MON dynstat_eta_min              =  -1.9405208294514E-05
(PID.TID 0000.0001) %MON dynstat_eta_mean             =   2.4350095457721E-09
(PID.TID 0000.0001) %MON dynstat_eta_sd               =   7.7613816158795E-06
(PID.TID 0000.0001) %MON dynstat_eta_del2             =   9.0471320510136E-07
(PID.TID 0000.0001) %MON dynstat_uvel_max             =   7.8727802267991E-04
(PID.TID 0000.0001) %MON dynstat_uvel_min             =  -8.3404138727579E-04
(PID.TID 0000.0001) %MON dynstat_uvel_mean            =   4.9557412633551E-08
(PID.TID 0000.0001) %MON dynstat_uvel_sd              =   1.6904027760717E-04
(PID.TID 0000.0001) %MON dynstat_uvel_del2            =   4.4898290701175E-06
(PID.TID 0000.0001) %MON dynstat_vvel_max             =   0.0000000000000E+00
(PID.TID 0000.0001) %MON dynstat_vvel_min             =   0.0000000000000E+00
(PID.TID 0000.0001) %MON dynstat_vvel_mean            =   0.0000000000000E+00
(PID.TID 0000.0001) %MON dynstat_vvel_sd              =   0.0000000000000E+00
(PID.TID 0000.0001) %MON dynstat_vvel_del2            =   0.0000000000000E+00
(PID.TID 0000.0001) %MON dynstat_wvel_max             =   7.0564929463346E-04
(PID.TID 0000.0001) %MON dynstat_wvel_min             =  -7.5496167235315E-04
(PID.TID 0000.0001) %MON dynstat_wvel_mean            =   2.9860842731086E-09
(PID.TID 0000.0001) %MON dynstat_wvel_sd              =   1.6360601513836E-04
(PID.TID 0000.0001) %MON dynstat_wvel_del2            =   4.5945698181696E-06
(PID.TID 0000.0001) %MON dynstat_theta_max            =   9.9975330432097E-03
(PID.TID 0000.0001) %MON dynstat_theta_min            =  -1.9990276301273E-03
(PID.TID 0000.0001) %MON dynstat_theta_mean           =   5.0586402971099E-03
(PID.TID 0000.0001) %MON dynstat_theta_sd             =   2.8761297860995E-03
(PID.TID 0000.0001) %MON dynstat_theta_del2           =   6.0983539735391E-05
(PID.TID 0000.0001) %MON dynstat_salt_max             =   3.5000000000000E+01
(PID.TID 0000.0001) %MON dynstat_salt_min             =   3.5000000000000E+01
(PID.TID 0000.0001) %MON dynstat_salt_mean            =   3.5000000000000E+01
(PID.TID 0000.0001) %MON dynstat_salt_sd              =   1.2789769243682E-13
(PID.TID 0000.0001) %MON dynstat_salt_del2            =   0.0000000000000E+00
(PID.TID 0000.0001) %MON trAdv_CFL_u_max              =   1.7685305124108E-03
(PID.TID 0000.0001) %MON trAdv_CFL_v_max              =   0.0000000000000E+00
(PID.TID 0000.0001) %MON trAdv_CFL_w_max              =   4.5297700341189E-03
(PID.TID 0000.0001) %MON advcfl_uvel_max              =   1.2508389641012E-03
(PID.TID 0000.0001) %MON advcfl_vvel_max              =   0.0000000000000E+00
(PID.TID 0000.0001) %MON advcfl_wvel_max              =   4.5297700341189E-03
(PID.TID 0000.0001) %MON advcfl_W_hf_max              =   4.5297700341189E-03
(PID.TID 0000.0001) %MON pe_b_mean                    =   1.8725138799473E-12
(PID.TID 0000.0001) %MON ke_max                       =   2.9463544744461E-07
(PID.TID 0000.0001) %MON ke_mean                      =   2.7637023824166E-08
(PID.TID 0000.0001) %MON ke_vol                       =   2.0102771472217E+08
(PID.TID 0000.0001) %MON vort_r_min                   =   0.0000000000000E+00
(PID.TID 0000.0001) %MON vort_r_max                   =   0.0000000000000E+00
(PID.TID 0000.0001) %MON vort_a_mean                  =   0.0000000000000E+00
(PID.TID 0000.0001) %MON vort_a_sd                    =   0.0000000000000E+00
(PID.TID 0000.0001) %MON vort_p_mean                  =   0.0000000000000E+00
(PID.TID 0000.0001) %MON vort_p_sd                    =   0.0000000000000E+00
(PID.TID 0000.0001) %MON surfExpan_theta_mean         =   4.9872683515014E-12
(PID.TID 0000.0001) %MON surfExpan_salt_mean          =  -9.6726372936208E-20
(PID.TID 0000.0001) // =======================================================
(PID.TID 0000.0001) // End MONITOR dynamic field statistics
(PID.TID 0000.0001) // =======================================================
 cg2d: Sum(rhs),rhsMax =  -1.16119664666375E-05  4.34121251514198E-04
(PID.TID 0000.0001)      cg2d_init_res =   1.90207723876975E-03
(PID.TID 0000.0001)      cg2d_iters(min,last) =      -1     187
(PID.TID 0000.0001)      cg2d_last_res =   6.83977303402417E-14
 cg3d: Sum(rhs),rhsMax =   2.39563143628052E-14  9.38936763133497E-06
(PID.TID 0000.0001)      cg3d_init_res =   1.88908382204913E-02
(PID.TID 0000.0001)      cg3d_iters (last) =                 20
(PID.TID 0000.0001)      cg3d_last_res =   3.26447421947210E-05
(PID.TID 0000.0001) // =======================================================
(PID.TID 0000.0001) // Begin MONITOR dynamic field statistics
(PID.TID 0000.0001) // =======================================================
(PID.TID 0000.0001) %MON time_tsnumber                =                     9
(PID.TID 0000.0001) %MON time_secondsf                =   1.8000000000000E+02
(PID.TID 0000.0001) %MON dynstat_eta_max              =   2.4373506071527E-05
(PID.TID 0000.0001) %MON dynstat_eta_min              =  -1.9399498379530E-05
(PID.TID 0000.0001) %MON dynstat_eta_mean             =   4.1313057426435E-09
(PID.TID 0000.0001) %MON dynstat_eta_sd               =   7.7685366879808E-06
(PID.TID 0000.0001) %MON dynstat_eta_del2             =   9.0451024979267E-07
(PID.TID 0000.0001) %MON dynstat_uvel_max             =   8.8414375627665E-04
(PID.TID 0000.0001) %MON dynstat_uvel_min             =  -9.3475912318418E-04
(PID.TID 0000.0001) %MON dynstat_uvel_mean            =   1.3833462895570E-08
(PID.TID 0000.0001) %MON dynstat_uvel_sd              =   1.8993920282110E-04
(PID.TID 0000.0001) %MON dynstat_uvel_del2            =   5.0411661021285E-06
(PID.TID 0000.0001) %MON dynstat_vvel_max             =   0.0000000000000E+00
(PID.TID 0000.0001) %MON dynstat_vvel_min             =   0.0000000000000E+00
(PID.TID 0000.0001) %MON dynstat_vvel_mean            =   0.0000000000000E+00
(PID.TID 0000.0001) %MON dynstat_vvel_sd              =   0.0000000000000E+00
(PID.TID 0000.0001) %MON dynstat_vvel_del2            =   0.0000000000000E+00
(PID.TID 0000.0001) %MON dynstat_wvel_max             =   7.9271514345235E-04
(PID.TID 0000.0001) %MON dynstat_wvel_min             =  -8.4822851710013E-04
(PID.TID 0000.0001) %MON dynstat_wvel_mean            =   4.2447532932284E-09
(PID.TID 0000.0001) %MON dynstat_wvel_sd              =   1.8387030943821E-04
(PID.TID 0000.0001) %MON dynstat_wvel_del2            =   5.1608593946757E-06
(PID.TID 0000.0001) %MON dynstat_theta_max            =   9.9974071017821E-03
(PID.TID 0000.0001) %MON dynstat_theta_min            =  -2.2805857907473E-03
(PID.TID 0000.0001) %MON dynstat_theta_mean           =   5.0579626248734E-03
(PID.TID 0000.0001) %MON dynstat_theta_sd             =   2.8745833333878E-03
(PID.TID 0000.0001) %MON dynstat_theta_del2           =   6.0926005530160E-05
(PID.TID 0000.0001) %MON dynstat_salt_max             =   3.5000000000000E+01
(PID.TID 0000.0001) %MON dynstat_salt_min             =   3.5000000000000E+01
(PID.TID 0000.0001) %MON dynstat_salt_mean            =   3.5000000000000E+01
(PID.TID 0000.0001) %MON dynstat_salt_sd              =   1.2789769243682E-13
(PID.TID 0000.0001) %MON dynstat_salt_del2            =   0.0000000000000E+00
(PID.TID 0000.0001) %MON trAdv_CFL_u_max              =   1.9798569075973E-03
(PID.TID 0000.0001) %MON trAdv_CFL_v_max              =   0.0000000000000E+00
(PID.TID 0000.0001) %MON trAdv_CFL_w_max              =   5.0893711026008E-03
(PID.TID 0000.0001) %MON advcfl_uvel_max              =   1.4020466772432E-03
(PID.TID 0000.0001) %MON advcfl_vvel_max              =   0.0000000000000E+00
(PID.TID 0000.0001) %MON advcfl_wvel_max              =   5.0893711026008E-03
(PID.TID 0000.0001) %MON advcfl_W_hf_max              =   5.0893711026008E-03
(PID.TID 0000.0001) %MON pe_b_mean                    =   1.8759682880577E-12
(PID.TID 0000.0001) %MON ke_max                       =   3.7190146327571E-07
(PID.TID 0000.0001) %MON ke_mean                      =   3.4899945389018E-08
(PID.TID 0000.0001) %MON ke_vol                       =   2.0102771472217E+08
(PID.TID 0000.0001) %MON vort_r_min                   =   0.0000000000000E+00
(PID.TID 0000.0001) %MON vort_r_max                   =   0.0000000000000E+00
(PID.TID 0000.0001) %MON vort_a_mean                  =   0.0000000000000E+00
(PID.TID 0000.0001) %MON vort_a_sd                    =   0.0000000000000E+00
(PID.TID 0000.0001) %MON vort_p_mean                  =   0.0000000000000E+00
(PID.TID 0000.0001) %MON vort_p_sd                    =   0.0000000000000E+00
(PID.TID 0000.0001) %MON surfExpan_theta_mean         =   3.3546392047247E-12
(PID.TID 0000.0001) %MON surfExpan_salt_mean          =  -1.9453006859874E-19
(PID.TID 0000.0001) // =======================================================
(PID.TID 0000.0001) // End MONITOR dynamic field statistics
(PID.TID 0000.0001) // =======================================================
 cg2d: Sum(rhs),rhsMax =  -1.76822457728931E-05  4.34014888254532E-04
(PID.TID 0000.0001)      cg2d_init_res =   2.13674198462221E-03
(PID.TID 0000.0001)      cg2d_iters(min,last) =      -1     187
(PID.TID 0000.0001)      cg2d_last_res =   7.64135922439909E-14
 cg3d: Sum(rhs),rhsMax =   1.13739272449183E-13  9.37963879959696E-06
(PID.TID 0000.0001)      cg3d_init_res =   2.10747145110800E-02
(PID.TID 0000.0001)      cg3d_iters (last) =                 20
(PID.TID 0000.0001)      cg3d_last_res =   4.98027022628392E-05
(PID.TID 0000.0001) // =======================================================
(PID.TID 0000.0001) // Begin MONITOR dynamic field statistics
(PID.TID 0000.0001) // =======================================================
(PID.TID 0000.0001) %MON time_tsnumber                =                    10
(PID.TID 0000.0001) %MON time_secondsf                =   2.0000000000000E+02
(PID.TID 0000.0001) %MON dynstat_eta_max              =   2.4397399691114E-05
(PID.TID 0000.0001) %MON dynstat_eta_min              =  -1.9430882797286E-05
(PID.TID 0000.0001) %MON dynstat_eta_mean             =   6.2894485337040E-09
(PID.TID 0000.0001) %MON dynstat_eta_sd               =   7.7630040904293E-06
(PID.TID 0000.0001) %MON dynstat_eta_del2             =   9.0428315561705E-07
(PID.TID 0000.0001) %MON dynstat_uvel_max             =   9.8069467630973E-04
(PID.TID 0000.0001) %MON dynstat_uvel_min             =  -1.0360747497258E-03
(PID.TID 0000.0001) %MON dynstat_uvel_mean            =  -1.5955752793344E-08
(PID.TID 0000.0001) %MON dynstat_uvel_sd              =   2.1078620468187E-04
(PID.TID 0000.0001) %MON dynstat_uvel_del2            =   5.5902840543539E-06
(PID.TID 0000.0001) %MON dynstat_vvel_max             =   0.0000000000000E+00
(PID.TID 0000.0001) %MON dynstat_vvel_min             =   0.0000000000000E+00
(PID.TID 0000.0001) %MON dynstat_vvel_mean            =   0.0000000000000E+00
(PID.TID 0000.0001) %MON dynstat_vvel_sd              =   0.0000000000000E+00
(PID.TID 0000.0001) %MON dynstat_vvel_del2            =   0.0000000000000E+00
(PID.TID 0000.0001) %MON dynstat_wvel_max             =   8.7950873785488E-04
(PID.TID 0000.0001) %MON dynstat_wvel_min             =  -9.4124646915388E-04
(PID.TID 0000.0001) %MON dynstat_wvel_mean            =   5.7623062585644E-09
(PID.TID 0000.0001) %MON dynstat_wvel_sd              =   2.0409258173998E-04
(PID.TID 0000.0001) %MON dynstat_wvel_del2            =   5.7253430625176E-06
(PID.TID 0000.0001) %MON dynstat_theta_max            =   9.9972673377655E-03
(PID.TID 0000.0001) %MON dynstat_theta_min            =  -2.5612189535135E-03
(PID.TID 0000.0001) %MON dynstat_theta_mean           =   5.0572849534644E-03
(PID.TID 0000.0001) %MON dynstat_theta_sd             =   2.8728769211634E-03
(PID.TID 0000.0001) %MON dynstat_theta_del2           =   6.0862357990256E-05
(PID.TID 0000.0001) %MON dynstat_salt_max             =   3.5000000000000E+01
(PID.TID 0000.0001) %MON dynstat_salt_min             =   3.5000000000000E+01
(PID.TID 0000.0001) %MON dynstat_salt_mean            =   3.5000000000000E+01
(PID.TID 0000.0001) %MON dynstat_salt_sd              =   1.2789769243682E-13
(PID.TID 0000.0001) %MON dynstat_salt_del2            =   0.0000000000000E+00
(PID.TID 0000.0001) %MON trAdv_CFL_u_max              =   2.1891003253569E-03
(PID.TID 0000.0001) %MON trAdv_CFL_v_max              =   0.0000000000000E+00
(PID.TID 0000.0001) %MON trAdv_CFL_w_max              =   5.6474788149233E-03
(PID.TID 0000.0001) %MON advcfl_uvel_max              =   1.5540101446460E-03
(PID.TID 0000.0001) %MON advcfl_vvel_max              =   0.0000000000000E+00
(PID.TID 0000.0001) %MON advcfl_wvel_max              =   5.6474788149233E-03
(PID.TID 0000.0001) %MON advcfl_W_hf_max              =   5.6474788149233E-03
(PID.TID 0000.0001) %MON pe_b_mean                    =   1.8732978846656E-12
(PID.TID 0000.0001) %MON ke_max                       =   4.5790764227774E-07
(PID.TID 0000.0001) %MON ke_mean                      =   4.2989721711394E-08
(PID.TID 0000.0001) %MON ke_vol                       =   2.0102771472217E+08
(PID.TID 0000.0001) %MON vort_r_min                   =   0.0000000000000E+00
(PID.TID 0000.0001) %MON vort_r_max                   =   0.0000000000000E+00
(PID.TID 0000.0001) %MON vort_a_mean                  =   0.0000000000000E+00
(PID.TID 0000.0001) %MON vort_a_sd                    =   0.0000000000000E+00
(PID.TID 0000.0001) %MON vort_p_mean                  =   0.0000000000000E+00
(PID.TID 0000.0001) %MON vort_p_sd                    =   0.0000000000000E+00
(PID.TID 0000.0001) %MON surfExpan_theta_mean         =   1.1885986883044E-12
(PID.TID 0000.0001) %MON surfExpan_salt_mean          =   2.9444381558260E-20
(PID.TID 0000.0001) // =======================================================
(PID.TID 0000.0001) // End MONITOR dynamic field statistics
(PID.TID 0000.0001) // =======================================================
 cg2d: Sum(rhs),rhsMax =  -2.50106049382304E-05  4.33896974102028E-04
(PID.TID 0000.0001)      cg2d_init_res =   2.36947374523446E-03
(PID.TID 0000.0001)      cg2d_iters(min,last) =      -1     187
(PID.TID 0000.0001)      cg2d_last_res =   8.41372526672456E-14
 cg3d: Sum(rhs),rhsMax =  -1.38853772230219E-15  9.36887579226894E-06
(PID.TID 0000.0001)      cg3d_init_res =   2.32442972140039E-02
(PID.TID 0000.0001)      cg3d_iters (last) =                 20
(PID.TID 0000.0001)      cg3d_last_res =   6.54321074700078E-05
(PID.TID 0000.0001) // =======================================================
(PID.TID 0000.0001) // Begin MONITOR dynamic field statistics
(PID.TID 0000.0001) // =======================================================
(PID.TID 0000.0001) %MON time_tsnumber                =                    11
(PID.TID 0000.0001) %MON time_secondsf                =   2.2000000000000E+02
(PID.TID 0000.0001) %MON dynstat_eta_max              =   2.4383213150648E-05
(PID.TID 0000.0001) %MON dynstat_eta_min              =  -1.9492423462278E-05
(PID.TID 0000.0001) %MON dynstat_eta_mean             =   8.8936766377612E-09
(PID.TID 0000.0001) %MON dynstat_eta_sd               =   7.7480175813482E-06
(PID.TID 0000.0001) %MON dynstat_eta_del2             =   9.0403208560506E-07
(PID.TID 0000.0001) %MON dynstat_uvel_max             =   1.0769393336881E-03
(PID.TID 0000.0001) %MON dynstat_uvel_min             =  -1.1368397421017E-03
(PID.TID 0000.0001) %MON dynstat_uvel_mean            =  -3.7859359299295E-08
(PID.TID 0000.0001) %MON dynstat_uvel_sd              =   2.3158091859243E-04
(PID.TID 0000.0001) %MON dynstat_uvel_del2            =   6.1371685071417E-06
(PID.TID 0000.0001) %MON dynstat_vvel_max             =   0.0000000000000E+00
(PID.TID 0000.0001) %MON dynstat_vvel_min             =   0.0000000000000E+00
(PID.TID 0000.0001) %MON dynstat_vvel_mean            =   0.0000000000000E+00
(PID.TID 0000.0001) %MON dynstat_vvel_sd              =   0.0000000000000E+00
(PID.TID 0000.0001) %MON dynstat_vvel_del2            =   0.0000000000000E+00
(PID.TID 0000.0001) %MON dynstat_wvel_max             =   9.6602442698580E-04
(PID.TID 0000.0001) %MON dynstat_wvel_min             =  -1.0340127605043E-03
(PID.TID 0000.0001) %MON dynstat_wvel_mean            =   7.5422905426285E-09
(PID.TID 0000.0001) %MON dynstat_wvel_sd              =   2.2427250213791E-04
(PID.TID 0000.0001) %MON dynstat_wvel_del2            =   6.2880075375111E-06
(PID.TID 0000.0001) %MON dynstat_theta_max            =   9.9971138732412E-03
(PID.TID 0000.0001) %MON dynstat_theta_min            =  -2.8409339885489E-03
(PID.TID 0000.0001) %MON dynstat_theta_mean           =   5.0566072829135E-03
(PID.TID 0000.0001) %MON dynstat_theta_sd             =   2.8710129632642E-03
(PID.TID 0000.0001) %MON dynstat_theta_del2           =   6.0792678285614E-05
(PID.TID 0000.0001) %MON dynstat_salt_max             =   3.5000000000000E+01
(PID.TID 0000.0001) %MON dynstat_salt_min             =   3.5000000000000E+01
(PID.TID 0000.0001) %MON dynstat_salt_mean            =   3.5000000000000E+01
(PID.TID 0000.0001) %MON dynstat_salt_sd              =   1.2789769243682E-13
(PID.TID 0000.0001) %MON dynstat_salt_del2            =   0.0000000000000E+00
(PID.TID 0000.0001) %MON trAdv_CFL_u_max              =   2.3962800715417E-03
(PID.TID 0000.0001) %MON trAdv_CFL_v_max              =   0.0000000000000E+00
(PID.TID 0000.0001) %MON trAdv_CFL_w_max              =   6.2040765630257E-03
(PID.TID 0000.0001) %MON advcfl_uvel_max              =   1.7051477149988E-03
(PID.TID 0000.0001) %MON advcfl_vvel_max              =   0.0000000000000E+00
(PID.TID 0000.0001) %MON advcfl_wvel_max              =   6.2040765630257E-03
(PID.TID 0000.0001) %MON advcfl_W_hf_max              =   6.2040765630257E-03
(PID.TID 0000.0001) %MON pe_b_mean                    =   1.8660732825401E-12
(PID.TID 0000.0001) %MON ke_max                       =   5.5257826445055E-07
(PID.TID 0000.0001) %MON ke_mean                      =   5.1900398491617E-08
(PID.TID 0000.0001) %MON ke_vol                       =   2.0102771472217E+08
(PID.TID 0000.0001) %MON vort_r_min                   =   0.0000000000000E+00
(PID.TID 0000.0001) %MON vort_r_max                   =   0.0000000000000E+00
(PID.TID 0000.0001) %MON vort_a_mean                  =   0.0000000000000E+00
(PID.TID 0000.0001) %MON vort_a_sd                    =   0.0000000000000E+00
(PID.TID 0000.0001) %MON vort_p_mean                  =   0.0000000000000E+00
(PID.TID 0000.0001) %MON vort_p_sd                    =   0.0000000000000E+00
(PID.TID 0000.0001) %MON surfExpan_theta_mean         =  -8.9913370868522E-13
(PID.TID 0000.0001) %MON surfExpan_salt_mean          =   1.7778829131053E-19
(PID.TID 0000.0001) // =======================================================
(PID.TID 0000.0001) // End MONITOR dynamic field statistics
(PID.TID 0000.0001) // =======================================================
 cg2d: Sum(rhs),rhsMax =  -3.35859961355378E-05  4.33767074237177E-04
(PID.TID 0000.0001)      cg2d_init_res =   2.61097984151390E-03
(PID.TID 0000.0001)      cg2d_iters(min,last) =      -1     187
(PID.TID 0000.0001)      cg2d_last_res =   9.24412043059259E-14
 cg3d: Sum(rhs),rhsMax =  -1.09480566973241E-14  9.35708958784259E-06
(PID.TID 0000.0001)      cg3d_init_res =   2.54219654129363E-02
(PID.TID 0000.0001)      cg3d_iters (last) =                 20
(PID.TID 0000.0001)      cg3d_last_res =   7.19914558136640E-05
(PID.TID 0000.0001) // =======================================================
(PID.TID 0000.0001) // Begin MONITOR dynamic field statistics
(PID.TID 0000.0001) // =======================================================
(PID.TID 0000.0001) %MON time_tsnumber                =                    12
(PID.TID 0000.0001) %MON time_secondsf                =   2.4000000000000E+02
(PID.TID 0000.0001) %MON dynstat_eta_max              =   2.4348101500112E-05
(PID.TID 0000.0001) %MON dynstat_eta_min              =  -1.9572972538303E-05
(PID.TID 0000.0001) %MON dynstat_eta_mean             =   1.1939477848786E-08
(PID.TID 0000.0001) %MON dynstat_eta_sd               =   7.7282821363923E-06
(PID.TID 0000.0001) %MON dynstat_eta_del2             =   9.0375666976703E-07
(PID.TID 0000.0001) %MON dynstat_uvel_max             =   1.1728824898310E-03
(PID.TID 0000.0001) %MON dynstat_uvel_min             =  -1.2370451764644E-03
(PID.TID 0000.0001) %MON dynstat_uvel_mean            =  -5.0715257666241E-08
(PID.TID 0000.0001) %MON dynstat_uvel_sd              =   2.5232296912971E-04
(PID.TID 0000.0001) %MON dynstat_uvel_del2            =   6.6818051697253E-06
(PID.TID 0000.0001) %MON dynstat_vvel_max             =   0.0000000000000E+00
(PID.TID 0000.0001) %MON dynstat_vvel_min             =   0.0000000000000E+00
(PID.TID 0000.0001) %MON dynstat_vvel_mean            =   0.0000000000000E+00
(PID.TID 0000.0001) %MON dynstat_vvel_sd              =   0.0000000000000E+00
(PID.TID 0000.0001) %MON dynstat_vvel_del2            =   0.0000000000000E+00
(PID.TID 0000.0001) %MON dynstat_wvel_max             =   1.0522562785154E-03
(PID.TID 0000.0001) %MON dynstat_wvel_min             =  -1.1265221557003E-03
(PID.TID 0000.0001) %MON dynstat_wvel_mean            =   9.5581920054411E-09
(PID.TID 0000.0001) %MON dynstat_wvel_sd              =   2.4440973049755E-04
(PID.TID 0000.0001) %MON dynstat_wvel_del2            =   6.8488392641643E-06
(PID.TID 0000.0001) %MON dynstat_theta_max            =   9.9969468442896E-03
(PID.TID 0000.0001) %MON dynstat_theta_min            =  -3.1197378848451E-03
(PID.TID 0000.0001) %MON dynstat_theta_mean           =   5.0559296131836E-03
(PID.TID 0000.0001) %MON dynstat_theta_sd             =   2.8689963255060E-03
(PID.TID 0000.0001) %MON dynstat_theta_del2           =   6.0717056601742E-05
(PID.TID 0000.0001) %MON dynstat_salt_max             =   3.5000000000000E+01
(PID.TID 0000.0001) %MON dynstat_salt_min             =   3.5000000000000E+01
(PID.TID 0000.0001) %MON dynstat_salt_mean            =   3.5000000000000E+01
(PID.TID 0000.0001) %MON dynstat_salt_sd              =   1.2789769243682E-13
(PID.TID 0000.0001) %MON dynstat_salt_del2            =   0.0000000000000E+00
(PID.TID 0000.0001) %MON trAdv_CFL_u_max              =   2.6014117868606E-03
(PID.TID 0000.0001) %MON trAdv_CFL_v_max              =   0.0000000000000E+00
(PID.TID 0000.0001) %MON trAdv_CFL_w_max              =   6.7591329342019E-03
(PID.TID 0000.0001) %MON advcfl_uvel_max              =   1.8554460034085E-03
(PID.TID 0000.0001) %MON advcfl_vvel_max              =   0.0000000000000E+00
(PID.TID 0000.0001) %MON advcfl_wvel_max              =   6.7591329342019E-03
(PID.TID 0000.0001) %MON advcfl_W_hf_max              =   6.7591329342019E-03
(PID.TID 0000.0001) %MON pe_b_mean                    =   1.8565809980131E-12
(PID.TID 0000.0001) %MON ke_max                       =   6.5583302808057E-07
(PID.TID 0000.0001) %MON ke_mean                      =   6.1625972533330E-08
(PID.TID 0000.0001) %MON ke_vol                       =   2.0102771472217E+08
(PID.TID 0000.0001) %MON vort_r_min                   =   0.0000000000000E+00
(PID.TID 0000.0001) %MON vort_r_max                   =   0.0000000000000E+00
(PID.TID 0000.0001) %MON vort_a_mean                  =   0.0000000000000E+00
(PID.TID 0000.0001) %MON vort_a_sd                    =   0.0000000000000E+00
(PID.TID 0000.0001) %MON vort_p_mean                  =   0.0000000000000E+00
(PID.TID 0000.0001) %MON vort_p_sd                    =   0.0000000000000E+00
(PID.TID 0000.0001) %MON surfExpan_theta_mean         =  -2.3678887514685E-12
(PID.TID 0000.0001) %MON surfExpan_salt_mean          =  -2.7085998795640E-19
(PID.TID 0000.0001) // =======================================================
(PID.TID 0000.0001) // End MONITOR dynamic field statistics
(PID.TID 0000.0001) // =======================================================
 cg2d: Sum(rhs),rhsMax =  -4.35723076804839E-05  4.33625200651200E-04
(PID.TID 0000.0001)      cg2d_init_res =   2.83998656487476E-03
(PID.TID 0000.0001)      cg2d_iters(min,last) =      -1     187
(PID.TID 0000.0001)      cg2d_last_res =   9.96870166490927E-14
 cg3d: Sum(rhs),rhsMax =   2.71961272946264E-15  9.34429140450606E-06
(PID.TID 0000.0001)      cg3d_init_res =   2.75578361448932E-02
(PID.TID 0000.0001)      cg3d_iters (last) =                 20
(PID.TID 0000.0001)      cg3d_last_res =   8.39233592389554E-05
(PID.TID 0000.0001) // =======================================================
(PID.TID 0000.0001) // Begin MONITOR dynamic field statistics
(PID.TID 0000.0001) // =======================================================
(PID.TID 0000.0001) %MON time_tsnumber                =                    13
(PID.TID 0000.0001) %MON time_secondsf                =   2.6000000000000E+02
(PID.TID 0000.0001) %MON dynstat_eta_max              =   2.4310081837736E-05
(PID.TID 0000.0001) %MON dynstat_eta_min              =  -1.9659207681121E-05
(PID.TID 0000.0001) %MON dynstat_eta_mean             =   1.5484443182092E-08
(PID.TID 0000.0001) %MON dynstat_eta_sd               =   7.7083656843904E-06
(PID.TID 0000.0001) %MON dynstat_eta_del2             =   9.0345828405258E-07
(PID.TID 0000.0001) %MON dynstat_uvel_max             =   1.2685252711320E-03
(PID.TID 0000.0001) %MON dynstat_uvel_min             =  -1.3366879997969E-03
(PID.TID 0000.0001) %MON dynstat_uvel_mean            =  -5.4118196642472E-08
(PID.TID 0000.0001) %MON dynstat_uvel_sd              =   2.7301199493765E-04
(PID.TID 0000.0001) %MON dynstat_uvel_del2            =   7.2241802414404E-06
(PID.TID 0000.0001) %MON dynstat_vvel_max             =   0.0000000000000E+00
(PID.TID 0000.0001) %MON dynstat_vvel_min             =   0.0000000000000E+00
(PID.TID 0000.0001) %MON dynstat_vvel_mean            =   0.0000000000000E+00
(PID.TID 0000.0001) %MON dynstat_vvel_sd              =   0.0000000000000E+00
(PID.TID 0000.0001) %MON dynstat_vvel_del2            =   0.0000000000000E+00
(PID.TID 0000.0001) %MON dynstat_wvel_max             =   1.1381980161757E-03
(PID.TID 0000.0001) %MON dynstat_wvel_min             =  -1.2187721215277E-03
(PID.TID 0000.0001) %MON dynstat_wvel_mean            =   1.1785313569758E-08
(PID.TID 0000.0001) %MON dynstat_wvel_sd              =   2.6450393662391E-04
(PID.TID 0000.0001) %MON dynstat_wvel_del2            =   7.4078249636009E-06
(PID.TID 0000.0001) %MON dynstat_theta_max            =   9.9967664023632E-03
(PID.TID 0000.0001) %MON dynstat_theta_min            =  -3.3976376655138E-03
(PID.TID 0000.0001) %MON dynstat_theta_mean           =   5.0552519441985E-03
(PID.TID 0000.0001) %MON dynstat_theta_sd             =   2.8668295115209E-03
(PID.TID 0000.0001) %MON dynstat_theta_del2           =   6.0635543483892E-05
(PID.TID 0000.0001) %MON dynstat_salt_max             =   3.5000000000000E+01
(PID.TID 0000.0001) %MON dynstat_salt_min             =   3.5000000000000E+01
(PID.TID 0000.0001) %MON dynstat_salt_mean            =   3.5000000000000E+01
(PID.TID 0000.0001) %MON dynstat_salt_sd              =   1.2789769243682E-13
(PID.TID 0000.0001) %MON dynstat_salt_del2            =   0.0000000000000E+00
(PID.TID 0000.0001) %MON trAdv_CFL_u_max              =   2.8045069741812E-03
(PID.TID 0000.0001) %MON trAdv_CFL_v_max              =   0.0000000000000E+00
(PID.TID 0000.0001) %MON trAdv_CFL_w_max              =   7.3126327291664E-03
(PID.TID 0000.0001) %MON advcfl_uvel_max              =   2.0049004306502E-03
(PID.TID 0000.0001) %MON advcfl_vvel_max              =   0.0000000000000E+00
(PID.TID 0000.0001) %MON advcfl_wvel_max              =   7.3126327291664E-03
(PID.TID 0000.0001) %MON advcfl_W_hf_max              =   7.3126327291664E-03
(PID.TID 0000.0001) %MON pe_b_mean                    =   1.8470272331681E-12
(PID.TID 0000.0001) %MON ke_max                       =   7.6759321834162E-07
(PID.TID 0000.0001) %MON ke_mean                      =   7.2160402364936E-08
(PID.TID 0000.0001) %MON ke_vol                       =   2.0102771472217E+08
(PID.TID 0000.0001) %MON vort_r_min                   =   0.0000000000000E+00
(PID.TID 0000.0001) %MON vort_r_max                   =   0.0000000000000E+00
(PID.TID 0000.0001) %MON vort_a_mean                  =   0.0000000000000E+00
(PID.TID 0000.0001) %MON vort_a_sd                    =   0.0000000000000E+00
(PID.TID 0000.0001) %MON vort_p_mean                  =   0.0000000000000E+00
(PID.TID 0000.0001) %MON vort_p_sd                    =   0.0000000000000E+00
(PID.TID 0000.0001) %MON surfExpan_theta_mean         =  -2.9074231384937E-12
(PID.TID 0000.0001) %MON surfExpan_salt_mean          =  -1.3976005008971E-19
(PID.TID 0000.0001) // =======================================================
(PID.TID 0000.0001) // End MONITOR dynamic field statistics
(PID.TID 0000.0001) // =======================================================
 cg2d: Sum(rhs),rhsMax =  -5.50262311207056E-05  4.33471337007030E-04
(PID.TID 0000.0001)      cg2d_init_res =   3.06973883043074E-03
(PID.TID 0000.0001)      cg2d_iters(min,last) =      -1     188
(PID.TID 0000.0001)      cg2d_last_res =   5.23874834379332E-14
 cg3d: Sum(rhs),rhsMax =   1.05804471087212E-13  9.33049312257702E-06
(PID.TID 0000.0001)      cg3d_init_res =   2.96876825406703E-02
(PID.TID 0000.0001)      cg3d_iters (last) =                 20
(PID.TID 0000.0001)      cg3d_last_res =   9.82334818777206E-05
(PID.TID 0000.0001) // =======================================================
(PID.TID 0000.0001) // Begin MONITOR dynamic field statistics
(PID.TID 0000.0001) // =======================================================
(PID.TID 0000.0001) %MON time_tsnumber                =                    14
(PID.TID 0000.0001) %MON time_secondsf                =   2.8000000000000E+02
(PID.TID 0000.0001) %MON dynstat_eta_max              =   2.4282967441321E-05
(PID.TID 0000.0001) %MON dynstat_eta_min              =  -1.9737813019069E-05
(PID.TID 0000.0001) %MON dynstat_eta_mean             =   1.9547925293216E-08
(PID.TID 0000.0001) %MON dynstat_eta_sd               =   7.6917073759346E-06
(PID.TID 0000.0001) %MON dynstat_eta_del2             =   9.0313735380933E-07
(PID.TID 0000.0001) %MON dynstat_uvel_max             =   1.3638658469086E-03
(PID.TID 0000.0001) %MON dynstat_uvel_min             =  -1.4357709410304E-03
(PID.TID 0000.0001) %MON dynstat_uvel_mean            =  -4.8512536215971E-08
(PID.TID 0000.0001) %MON dynstat_uvel_sd              =   2.9364763120496E-04
(PID.TID 0000.0001) %MON dynstat_uvel_del2            =   7.7642797101351E-06
(PID.TID 0000.0001) %MON dynstat_vvel_max             =   0.0000000000000E+00
(PID.TID 0000.0001) %MON dynstat_vvel_min             =   0.0000000000000E+00
(PID.TID 0000.0001) %MON dynstat_vvel_mean            =   0.0000000000000E+00
(PID.TID 0000.0001) %MON dynstat_vvel_sd              =   0.0000000000000E+00
(PID.TID 0000.0001) %MON dynstat_vvel_del2            =   0.0000000000000E+00
(PID.TID 0000.0001) %MON dynstat_wvel_max             =   1.2238431896685E-03
(PID.TID 0000.0001) %MON dynstat_wvel_min             =  -1.3107601261736E-03
(PID.TID 0000.0001) %MON dynstat_wvel_mean            =   1.4200859525660E-08
(PID.TID 0000.0001) %MON dynstat_wvel_sd              =   2.8455479351262E-04
(PID.TID 0000.0001) %MON dynstat_wvel_del2            =   7.9649514244715E-06
(PID.TID 0000.0001) %MON dynstat_theta_max            =   9.9965727139583E-03
(PID.TID 0000.0001) %MON dynstat_theta_min            =  -3.6746403029739E-03
(PID.TID 0000.0001) %MON dynstat_theta_mean           =   5.0545742758716E-03
(PID.TID 0000.0001) %MON dynstat_theta_sd             =   2.8645150799234E-03
(PID.TID 0000.0001) %MON dynstat_theta_del2           =   6.0548239413129E-05
(PID.TID 0000.0001) %MON dynstat_salt_max             =   3.5000000000000E+01
(PID.TID 0000.0001) %MON dynstat_salt_min             =   3.5000000000000E+01
(PID.TID 0000.0001) %MON dynstat_salt_mean            =   3.5000000000000E+01
(PID.TID 0000.0001) %MON dynstat_salt_sd              =   1.2789769243682E-13
(PID.TID 0000.0001) %MON dynstat_salt_del2            =   0.0000000000000E+00
(PID.TID 0000.0001) %MON trAdv_CFL_u_max              =   3.0055736780834E-03
(PID.TID 0000.0001) %MON trAdv_CFL_v_max              =   0.0000000000000E+00
(PID.TID 0000.0001) %MON trAdv_CFL_w_max              =   7.8645607570418E-03
(PID.TID 0000.0001) %MON advcfl_uvel_max              =   2.1535150898522E-03
(PID.TID 0000.0001) %MON advcfl_vvel_max              =   0.0000000000000E+00
(PID.TID 0000.0001) %MON advcfl_wvel_max              =   7.8645607570418E-03
(PID.TID 0000.0001) %MON advcfl_W_hf_max              =   7.8645607570418E-03
(PID.TID 0000.0001) %MON pe_b_mean                    =   1.8390572105890E-12
(PID.TID 0000.0001) %MON ke_max                       =   8.8777877376807E-07
(PID.TID 0000.0001) %MON ke_mean                      =   8.3497604269430E-08
(PID.TID 0000.0001) %MON ke_vol                       =   2.0102771472217E+08
(PID.TID 0000.0001) %MON vort_r_min                   =   0.0000000000000E+00
(PID.TID 0000.0001) %MON vort_r_max                   =   0.0000000000000E+00
(PID.TID 0000.0001) %MON vort_a_mean                  =   0.0000000000000E+00
(PID.TID 0000.0001) %MON vort_a_sd                    =   0.0000000000000E+00
(PID.TID 0000.0001) %MON vort_p_mean                  =   0.0000000000000E+00
(PID.TID 0000.0001) %MON vort_p_sd                    =   0.0000000000000E+00
(PID.TID 0000.0001) %MON surfExpan_theta_mean         =  -2.4334653412958E-12
(PID.TID 0000.0001) %MON surfExpan_salt_mean          =   3.1810389576926E-19
(PID.TID 0000.0001) // =======================================================
(PID.TID 0000.0001) // End MONITOR dynamic field statistics
(PID.TID 0000.0001) // =======================================================
 cg2d: Sum(rhs),rhsMax =  -6.79700504498254E-05  4.33305441553495E-04
(PID.TID 0000.0001)      cg2d_init_res =   3.31254893549103E-03
(PID.TID 0000.0001)      cg2d_iters(min,last) =      -1     188
(PID.TID 0000.0001)      cg2d_last_res =   5.45186547882271E-14
 cg3d: Sum(rhs),rhsMax =   8.60964945170739E-15  9.31570618074364E-06
(PID.TID 0000.0001)      cg3d_init_res =   3.18416004223657E-02
(PID.TID 0000.0001)      cg3d_iters (last) =                 20
(PID.TID 0000.0001)      cg3d_last_res =   1.23514757506529E-04
(PID.TID 0000.0001) // =======================================================
(PID.TID 0000.0001) // Begin MONITOR dynamic field statistics
(PID.TID 0000.0001) // =======================================================
(PID.TID 0000.0001) %MON time_tsnumber                =                    15
(PID.TID 0000.0001) %MON time_secondsf                =   3.0000000000000E+02
(PID.TID 0000.0001) %MON dynstat_eta_max              =   2.4274175780557E-05
(PID.TID 0000.0001) %MON dynstat_eta_min              =  -1.9797148099380E-05
(PID.TID 0000.0001) %MON dynstat_eta_mean             =   2.4136942321122E-08
(PID.TID 0000.0001) %MON dynstat_eta_sd               =   7.6804202448075E-06
(PID.TID 0000.0001) %MON dynstat_eta_del2             =   9.0279283303530E-07
(PID.TID 0000.0001) %MON dynstat_uvel_max             =   1.4589001795918E-03
(PID.TID 0000.0001) %MON dynstat_uvel_min             =  -1.5343006465262E-03
(PID.TID 0000.0001) %MON dynstat_uvel_mean            =  -3.5264805384515E-08
(PID.TID 0000.0001) %MON dynstat_uvel_sd              =   3.1422951876137E-04
(PID.TID 0000.0001) %MON dynstat_uvel_del2            =   8.3020902339505E-06
(PID.TID 0000.0001) %MON dynstat_vvel_max             =   0.0000000000000E+00
(PID.TID 0000.0001) %MON dynstat_vvel_min             =   0.0000000000000E+00
(PID.TID 0000.0001) %MON dynstat_vvel_mean            =   0.0000000000000E+00
(PID.TID 0000.0001) %MON dynstat_vvel_sd              =   0.0000000000000E+00
(PID.TID 0000.0001) %MON dynstat_vvel_del2            =   0.0000000000000E+00
(PID.TID 0000.0001) %MON dynstat_wvel_max             =   1.3091852895002E-03
(PID.TID 0000.0001) %MON dynstat_wvel_min             =  -1.4024795767034E-03
(PID.TID 0000.0001) %MON dynstat_wvel_mean            =   1.6784590977023E-08
(PID.TID 0000.0001) %MON dynstat_wvel_sd              =   3.0456195905503E-04
(PID.TID 0000.0001) %MON dynstat_wvel_del2            =   8.5202050663003E-06
(PID.TID 0000.0001) %MON dynstat_theta_max            =   9.9963659585653E-03
(PID.TID 0000.0001) %MON dynstat_theta_min            =  -3.9507526659494E-03
(PID.TID 0000.0001) %MON dynstat_theta_mean           =   5.0538966081345E-03
(PID.TID 0000.0001) %MON dynstat_theta_sd             =   2.8620564859475E-03
(PID.TID 0000.0001) %MON dynstat_theta_del2           =   6.0455160123593E-05
(PID.TID 0000.0001) %MON dynstat_salt_max             =   3.5000000000000E+01
(PID.TID 0000.0001) %MON dynstat_salt_min             =   3.5000000000000E+01
(PID.TID 0000.0001) %MON dynstat_salt_mean            =   3.5000000000000E+01
(PID.TID 0000.0001) %MON dynstat_salt_sd              =   1.2789769243682E-13
(PID.TID 0000.0001) %MON dynstat_salt_del2            =   0.0000000000000E+00
(PID.TID 0000.0001) %MON trAdv_CFL_u_max              =   3.2046177449773E-03
(PID.TID 0000.0001) %MON trAdv_CFL_v_max              =   0.0000000000000E+00
(PID.TID 0000.0001) %MON trAdv_CFL_w_max              =   8.4148774602201E-03
(PID.TID 0000.0001) %MON advcfl_uvel_max              =   2.3012999499020E-03
(PID.TID 0000.0001) %MON advcfl_vvel_max              =   0.0000000000000E+00
(PID.TID 0000.0001) %MON advcfl_wvel_max              =   8.4148774602201E-03
(PID.TID 0000.0001) %MON advcfl_W_hf_max              =   8.4148774602201E-03
(PID.TID 0000.0001) %MON pe_b_mean                    =   1.8336700192032E-12
(PID.TID 0000.0001) %MON ke_max                       =   1.0163035909640E-06
(PID.TID 0000.0001) %MON ke_mean                      =   9.5631450076221E-08
(PID.TID 0000.0001) %MON ke_vol                       =   2.0102771472217E+08
(PID.TID 0000.0001) %MON vort_r_min                   =   0.0000000000000E+00
(PID.TID 0000.0001) %MON vort_r_max                   =   0.0000000000000E+00
(PID.TID 0000.0001) %MON vort_a_mean                  =   0.0000000000000E+00
(PID.TID 0000.0001) %MON vort_a_sd                    =   0.0000000000000E+00
(PID.TID 0000.0001) %MON vort_p_mean                  =   0.0000000000000E+00
(PID.TID 0000.0001) %MON vort_p_sd                    =   0.0000000000000E+00
(PID.TID 0000.0001) %MON surfExpan_theta_mean         =  -1.0937143582888E-12
(PID.TID 0000.0001) %MON surfExpan_salt_mean          =  -2.9091441135586E-19
(PID.TID 0000.0001) // =======================================================
(PID.TID 0000.0001) // End MONITOR dynamic field statistics
(PID.TID 0000.0001) // =======================================================
 cg2d: Sum(rhs),rhsMax =  -8.20225334580982E-05  4.33127444262009E-04
(PID.TID 0000.0001)      cg2d_init_res =   3.51160997655364E-03
(PID.TID 0000.0001)      cg2d_iters(min,last) =      -1     188
(PID.TID 0000.0001)      cg2d_last_res =   6.18371269790304E-14
 cg3d: Sum(rhs),rhsMax =  -6.68152599220262E-14  9.30034729454208E-06
(PID.TID 0000.0001)      cg3d_init_res =   3.39574009770563E-02
(PID.TID 0000.0001)      cg3d_iters (last) =                 20
(PID.TID 0000.0001)      cg3d_last_res =   1.46147715813973E-04
(PID.TID 0000.0001) // =======================================================
(PID.TID 0000.0001) // Begin MONITOR dynamic field statistics
(PID.TID 0000.0001) // =======================================================
(PID.TID 0000.0001) %MON time_tsnumber                =                    16
(PID.TID 0000.0001) %MON time_secondsf                =   3.2000000000000E+02
(PID.TID 0000.0001) %MON dynstat_eta_max              =   2.4284797480129E-05
(PID.TID 0000.0001) %MON dynstat_eta_min              =  -1.9828594172629E-05
(PID.TID 0000.0001) %MON dynstat_eta_mean             =   2.9115174641915E-08
(PID.TID 0000.0001) %MON dynstat_eta_sd               =   7.6755969710176E-06
(PID.TID 0000.0001) %MON dynstat_eta_del2             =   9.0242688260958E-07
(PID.TID 0000.0001) %MON dynstat_uvel_max             =   1.5536112409333E-03
(PID.TID 0000.0001) %MON dynstat_uvel_min             =  -1.6322853821986E-03
(PID.TID 0000.0001) %MON dynstat_uvel_mean            =  -1.6590175769883E-08
(PID.TID 0000.0001) %MON dynstat_uvel_sd              =   3.3475729480071E-04
(PID.TID 0000.0001) %MON dynstat_uvel_del2            =   8.8375979736387E-06
(PID.TID 0000.0001) %MON dynstat_vvel_max             =   0.0000000000000E+00
(PID.TID 0000.0001) %MON dynstat_vvel_min             =   0.0000000000000E+00
(PID.TID 0000.0001) %MON dynstat_vvel_mean            =   0.0000000000000E+00
(PID.TID 0000.0001) %MON dynstat_vvel_sd              =   0.0000000000000E+00
(PID.TID 0000.0001) %MON dynstat_vvel_del2            =   0.0000000000000E+00
(PID.TID 0000.0001) %MON dynstat_wvel_max             =   1.3942178682133E-03
(PID.TID 0000.0001) %MON dynstat_wvel_min             =  -1.4939274467073E-03
(PID.TID 0000.0001) %MON dynstat_wvel_mean            =   1.9519063475068E-08
(PID.TID 0000.0001) %MON dynstat_wvel_sd              =   3.2452511097905E-04
(PID.TID 0000.0001) %MON dynstat_wvel_del2            =   9.0735732589130E-06
(PID.TID 0000.0001) %MON dynstat_theta_max            =   9.9961463252896E-03
(PID.TID 0000.0001) %MON dynstat_theta_min            =  -4.2349663491501E-03
(PID.TID 0000.0001) %MON dynstat_theta_mean           =   5.0532189409537E-03
(PID.TID 0000.0001) %MON dynstat_theta_sd             =   2.8594537114070E-03
(PID.TID 0000.0001) %MON dynstat_theta_del2           =   6.0356254075147E-05
(PID.TID 0000.0001) %MON dynstat_salt_max             =   3.5000000000000E+01
(PID.TID 0000.0001) %MON dynstat_salt_min             =   3.5000000000000E+01
(PID.TID 0000.0001) %MON dynstat_salt_mean            =   3.5000000000000E+01
(PID.TID 0000.0001) %MON dynstat_salt_sd              =   1.2789769243682E-13
(PID.TID 0000.0001) %MON dynstat_salt_del2            =   0.0000000000000E+00
(PID.TID 0000.0001) %MON trAdv_CFL_u_max              =   3.4016445392921E-03
(PID.TID 0000.0001) %MON trAdv_CFL_v_max              =   0.0000000000000E+00
(PID.TID 0000.0001) %MON trAdv_CFL_w_max              =   8.9635646802437E-03
(PID.TID 0000.0001) %MON advcfl_uvel_max              =   2.4482674088578E-03
(PID.TID 0000.0001) %MON advcfl_vvel_max              =   0.0000000000000E+00
(PID.TID 0000.0001) %MON advcfl_wvel_max              =   8.9635646802437E-03
(PID.TID 0000.0001) %MON advcfl_W_hf_max              =   8.9635646802437E-03
(PID.TID 0000.0001) %MON pe_b_mean                    =   1.8313759305451E-12
(PID.TID 0000.0001) %MON ke_max                       =   1.1530832008089E-06
(PID.TID 0000.0001) %MON ke_mean                      =   1.0855577477320E-07
(PID.TID 0000.0001) %MON ke_vol                       =   2.0102771472217E+08
(PID.TID 0000.0001) %MON vort_r_min                   =   0.0000000000000E+00
(PID.TID 0000.0001) %MON vort_r_max                   =   0.0000000000000E+00
(PID.TID 0000.0001) %MON vort_a_mean                  =   0.0000000000000E+00
(PID.TID 0000.0001) %MON vort_a_sd                    =   0.0000000000000E+00
(PID.TID 0000.0001) %MON vort_p_mean                  =   0.0000000000000E+00
(PID.TID 0000.0001) %MON vort_p_sd                    =   0.0000000000000E+00
(PID.TID 0000.0001) %MON surfExpan_theta_mean         =   8.3875992775328E-13
(PID.TID 0000.0001) %MON surfExpan_salt_mean          =   2.6405717024158E-19
(PID.TID 0000.0001) // =======================================================
(PID.TID 0000.0001) // End MONITOR dynamic field statistics
(PID.TID 0000.0001) // =======================================================
 cg2d: Sum(rhs),rhsMax =  -9.62732432124858E-05  4.32937261594372E-04
(PID.TID 0000.0001)      cg2d_init_res =   3.73708338124221E-03
(PID.TID 0000.0001)      cg2d_iters(min,last) =      -1     188
(PID.TID 0000.0001)      cg2d_last_res =   6.50621921492476E-14
 cg3d: Sum(rhs),rhsMax =   1.89095700903197E-13  9.28408424117483E-06
(PID.TID 0000.0001)      cg3d_init_res =   3.60768381191930E-02
(PID.TID 0000.0001)      cg3d_iters (last) =                 20
(PID.TID 0000.0001)      cg3d_last_res =   9.07675852831321E-05
(PID.TID 0000.0001) // =======================================================
(PID.TID 0000.0001) // Begin MONITOR dynamic field statistics
(PID.TID 0000.0001) // =======================================================
(PID.TID 0000.0001) %MON time_tsnumber                =                    17
(PID.TID 0000.0001) %MON time_secondsf                =   3.4000000000000E+02
(PID.TID 0000.0001) %MON dynstat_eta_max              =   2.4311612116779E-05
(PID.TID 0000.0001) %MON dynstat_eta_min              =  -1.9827512903133E-05
(PID.TID 0000.0001) %MON dynstat_eta_mean             =   3.4158680448958E-08
(PID.TID 0000.0001) %MON dynstat_eta_sd               =   7.6776830819618E-06
(PID.TID 0000.0001) %MON dynstat_eta_del2             =   9.0203956258926E-07
(PID.TID 0000.0001) %MON dynstat_uvel_max             =   1.6479936515189E-03
(PID.TID 0000.0001) %MON dynstat_uvel_min             =  -1.7297327794364E-03
(PID.TID 0000.0001) %MON dynstat_uvel_mean            =   4.8032332322633E-09
(PID.TID 0000.0001) %MON dynstat_uvel_sd              =   3.5523060738880E-04
(PID.TID 0000.0001) %MON dynstat_uvel_del2            =   9.3707891214204E-06
(PID.TID 0000.0001) %MON dynstat_vvel_max             =   0.0000000000000E+00
(PID.TID 0000.0001) %MON dynstat_vvel_min             =   0.0000000000000E+00
(PID.TID 0000.0001) %MON dynstat_vvel_mean            =   0.0000000000000E+00
(PID.TID 0000.0001) %MON dynstat_vvel_sd              =   0.0000000000000E+00
(PID.TID 0000.0001) %MON dynstat_vvel_del2            =   0.0000000000000E+00
(PID.TID 0000.0001) %MON dynstat_wvel_max             =   1.4789358948244E-03
(PID.TID 0000.0001) %MON dynstat_wvel_min             =  -1.5851013740696E-03
(PID.TID 0000.0001) %MON dynstat_wvel_mean            =   2.2389606024414E-08
(PID.TID 0000.0001) %MON dynstat_wvel_sd              =   3.4444397984115E-04
(PID.TID 0000.0001) %MON dynstat_wvel_del2            =   9.6250449136889E-06
(PID.TID 0000.0001) %MON dynstat_theta_max            =   9.9959140100574E-03
(PID.TID 0000.0001) %MON dynstat_theta_min            =  -4.5307066260177E-03
(PID.TID 0000.0001) %MON dynstat_theta_mean           =   5.0525412743224E-03
(PID.TID 0000.0001) %MON dynstat_theta_sd             =   2.8567151398086E-03
(PID.TID 0000.0001) %MON dynstat_theta_del2           =   6.0251885428126E-05
(PID.TID 0000.0001) %MON dynstat_salt_max             =   3.5000000000000E+01
(PID.TID 0000.0001) %MON dynstat_salt_min             =   3.5000000000000E+01
(PID.TID 0000.0001) %MON dynstat_salt_mean            =   3.5000000000000E+01
(PID.TID 0000.0001) %MON dynstat_salt_sd              =   1.2789769243682E-13
(PID.TID 0000.0001) %MON dynstat_salt_del2            =   0.0000000000000E+00
(PID.TID 0000.0001) %MON trAdv_CFL_u_max              =   3.5966603633097E-03
(PID.TID 0000.0001) %MON trAdv_CFL_v_max              =   0.0000000000000E+00
(PID.TID 0000.0001) %MON trAdv_CFL_w_max              =   9.5106082444173E-03
(PID.TID 0000.0001) %MON advcfl_uvel_max              =   2.5944289130513E-03
(PID.TID 0000.0001) %MON advcfl_vvel_max              =   0.0000000000000E+00
(PID.TID 0000.0001) %MON advcfl_wvel_max              =   9.5106082444173E-03
(PID.TID 0000.0001) %MON advcfl_W_hf_max              =   9.5106082444173E-03
(PID.TID 0000.0001) %MON pe_b_mean                    =   1.8323814517693E-12
(PID.TID 0000.0001) %MON ke_max                       =   1.2980326109741E-06
(PID.TID 0000.0001) %MON ke_mean                      =   1.2226439484213E-07
(PID.TID 0000.0001) %MON ke_vol                       =   2.0102771472217E+08
(PID.TID 0000.0001) %MON vort_r_min                   =   0.0000000000000E+00
(PID.TID 0000.0001) %MON vort_r_max                   =   0.0000000000000E+00
(PID.TID 0000.0001) %MON vort_a_mean                  =   0.0000000000000E+00
(PID.TID 0000.0001) %MON vort_a_sd                    =   0.0000000000000E+00
(PID.TID 0000.0001) %MON vort_p_mean                  =   0.0000000000000E+00
(PID.TID 0000.0001) %MON vort_p_sd                    =   0.0000000000000E+00
(PID.TID 0000.0001) %MON surfExpan_theta_mean         =   3.1602372188618E-12
(PID.TID 0000.0001) %MON surfExpan_salt_mean          =  -3.3273349415355E-20
(PID.TID 0000.0001) // =======================================================
(PID.TID 0000.0001) // End MONITOR dynamic field statistics
(PID.TID 0000.0001) // =======================================================
 cg2d: Sum(rhs),rhsMax =  -1.12125006636113E-04  4.32734842849651E-04
(PID.TID 0000.0001)      cg2d_init_res =   3.96674649499224E-03
(PID.TID 0000.0001)      cg2d_iters(min,last) =      -1     188
(PID.TID 0000.0001)      cg2d_last_res =   7.02579652887483E-14
 cg3d: Sum(rhs),rhsMax =  -6.20671049278432E-14  9.26690705745331E-06
(PID.TID 0000.0001)      cg3d_init_res =   3.81815483880965E-02
(PID.TID 0000.0001)      cg3d_iters (last) =                 20
(PID.TID 0000.0001)      cg3d_last_res =   8.01022539759607E-05
(PID.TID 0000.0001) // =======================================================
(PID.TID 0000.0001) // Begin MONITOR dynamic field statistics
(PID.TID 0000.0001) // =======================================================
(PID.TID 0000.0001) %MON time_tsnumber                =                    18
(PID.TID 0000.0001) %MON time_secondsf                =   3.6000000000000E+02
(PID.TID 0000.0001) %MON dynstat_eta_max              =   2.4349712371207E-05
(PID.TID 0000.0001) %MON dynstat_eta_min              =  -1.9793504307058E-05
(PID.TID 0000.0001) %MON dynstat_eta_mean             =   3.9764439397070E-08
(PID.TID 0000.0001) %MON dynstat_eta_sd               =   7.6865732827081E-06
(PID.TID 0000.0001) %MON dynstat_eta_del2             =   9.0163019619508E-07
(PID.TID 0000.0001) %MON dynstat_uvel_max             =   1.7420423123864E-03
(PID.TID 0000.0001) %MON dynstat_uvel_min             =  -1.8266483922347E-03
(PID.TID 0000.0001) %MON dynstat_uvel_mean            =   2.5990003488334E-08
(PID.TID 0000.0001) %MON dynstat_uvel_sd              =   3.7564910065663E-04
(PID.TID 0000.0001) %MON dynstat_uvel_del2            =   9.9016508468295E-06
(PID.TID 0000.0001) %MON dynstat_vvel_max             =   0.0000000000000E+00
(PID.TID 0000.0001) %MON dynstat_vvel_min             =   0.0000000000000E+00
(PID.TID 0000.0001) %MON dynstat_vvel_mean            =   0.0000000000000E+00
(PID.TID 0000.0001) %MON dynstat_vvel_sd              =   0.0000000000000E+00
(PID.TID 0000.0001) %MON dynstat_vvel_del2            =   0.0000000000000E+00
(PID.TID 0000.0001) %MON dynstat_wvel_max             =   1.5633328465323E-03
(PID.TID 0000.0001) %MON dynstat_wvel_min             =  -1.6759981047064E-03
(PID.TID 0000.0001) %MON dynstat_wvel_mean            =   2.5384114884757E-08
(PID.TID 0000.0001) %MON dynstat_wvel_sd              =   3.6431820693477E-04
(PID.TID 0000.0001) %MON dynstat_wvel_del2            =   1.0174605795465E-05
(PID.TID 0000.0001) %MON dynstat_theta_max            =   9.9956692126641E-03
(PID.TID 0000.0001) %MON dynstat_theta_min            =  -4.8261755097227E-03
(PID.TID 0000.0001) %MON dynstat_theta_mean           =   5.0518636083021E-03
(PID.TID 0000.0001) %MON dynstat_theta_sd             =   2.8538463722200E-03
(PID.TID 0000.0001) %MON dynstat_theta_del2           =   6.0142191088938E-05
(PID.TID 0000.0001) %MON dynstat_salt_max             =   3.5000000000000E+01
(PID.TID 0000.0001) %MON dynstat_salt_min             =   3.5000000000000E+01
(PID.TID 0000.0001) %MON dynstat_salt_mean            =   3.5000000000000E+01
(PID.TID 0000.0001) %MON dynstat_salt_sd              =   1.2789769243682E-13
(PID.TID 0000.0001) %MON dynstat_salt_del2            =   0.0000000000000E+00
(PID.TID 0000.0001) %MON trAdv_CFL_u_max              =   3.7896729821107E-03
(PID.TID 0000.0001) %MON trAdv_CFL_v_max              =   0.0000000000000E+00
(PID.TID 0000.0001) %MON trAdv_CFL_w_max              =   1.0055988628239E-02
(PID.TID 0000.0001) %MON advcfl_uvel_max              =   2.7397927929287E-03
(PID.TID 0000.0001) %MON advcfl_vvel_max              =   0.0000000000000E+00
(PID.TID 0000.0001) %MON advcfl_wvel_max              =   1.0055988628239E-02
(PID.TID 0000.0001) %MON advcfl_W_hf_max              =   1.0055988628239E-02
(PID.TID 0000.0001) %MON pe_b_mean                    =   1.8366402358553E-12
(PID.TID 0000.0001) %MON ke_max                       =   1.4510644196108E-06
(PID.TID 0000.0001) %MON ke_mean                      =   1.3675105779867E-07
(PID.TID 0000.0001) %MON ke_vol                       =   2.0102771472217E+08
(PID.TID 0000.0001) %MON vort_r_min                   =   0.0000000000000E+00
(PID.TID 0000.0001) %MON vort_r_max                   =   0.0000000000000E+00
(PID.TID 0000.0001) %MON vort_a_mean                  =   0.0000000000000E+00
(PID.TID 0000.0001) %MON vort_a_sd                    =   0.0000000000000E+00
(PID.TID 0000.0001) %MON vort_p_mean                  =   0.0000000000000E+00
(PID.TID 0000.0001) %MON vort_p_sd                    =   0.0000000000000E+00
(PID.TID 0000.0001) %MON surfExpan_theta_mean         =   5.3472906423410E-12
(PID.TID 0000.0001) %MON surfExpan_salt_mean          =   1.1370618416593E-19
(PID.TID 0000.0001) // =======================================================
(PID.TID 0000.0001) // End MONITOR dynamic field statistics
(PID.TID 0000.0001) // =======================================================
 cg2d: Sum(rhs),rhsMax =  -1.31041483659930E-04  4.32520083779436E-04
(PID.TID 0000.0001)      cg2d_init_res =   4.19412511236208E-03
(PID.TID 0000.0001)      cg2d_iters(min,last) =      -1     188
(PID.TID 0000.0001)      cg2d_last_res =   7.36015194304613E-14
 cg3d: Sum(rhs),rhsMax =  -2.35666304179705E-13  9.24882088719347E-06
(PID.TID 0000.0001)      cg3d_init_res =   4.02775347147711E-02
(PID.TID 0000.0001)      cg3d_iters (last) =                 20
(PID.TID 0000.0001)      cg3d_last_res =   1.43112317949705E-04
(PID.TID 0000.0001) // =======================================================
(PID.TID 0000.0001) // Begin MONITOR dynamic field statistics
(PID.TID 0000.0001) // =======================================================
(PID.TID 0000.0001) %MON time_tsnumber                =                    19
(PID.TID 0000.0001) %MON time_secondsf                =   3.8000000000000E+02
(PID.TID 0000.0001) %MON dynstat_eta_max              =   2.4394347516538E-05
(PID.TID 0000.0001) %MON dynstat_eta_min              =  -1.9730026649868E-05
(PID.TID 0000.0001) %MON dynstat_eta_mean             =   4.6449987055877E-08
(PID.TID 0000.0001) %MON dynstat_eta_sd               =   7.7018077418784E-06
(PID.TID 0000.0001) %MON dynstat_eta_del2             =   9.0119926456933E-07
(PID.TID 0000.0001) %MON dynstat_uvel_max             =   1.8357529368376E-03
(PID.TID 0000.0001) %MON dynstat_uvel_min             =  -1.9230349529505E-03
(PID.TID 0000.0001) %MON dynstat_uvel_mean            =   4.4290713721078E-08
(PID.TID 0000.0001) %MON dynstat_uvel_sd              =   3.9601243418455E-04
(PID.TID 0000.0001) %MON dynstat_uvel_del2            =   1.0430170739027E-05
(PID.TID 0000.0001) %MON dynstat_vvel_max             =   0.0000000000000E+00
(PID.TID 0000.0001) %MON dynstat_vvel_min             =   0.0000000000000E+00
(PID.TID 0000.0001) %MON dynstat_vvel_mean            =   0.0000000000000E+00
(PID.TID 0000.0001) %MON dynstat_vvel_sd              =   0.0000000000000E+00
(PID.TID 0000.0001) %MON dynstat_vvel_del2            =   0.0000000000000E+00
(PID.TID 0000.0001) %MON dynstat_wvel_max             =   1.6474018618695E-03
(PID.TID 0000.0001) %MON dynstat_wvel_min             =  -1.7666145948246E-03
(PID.TID 0000.0001) %MON dynstat_wvel_mean            =   2.8492745854664E-08
(PID.TID 0000.0001) %MON dynstat_wvel_sd              =   3.8414742758027E-04
(PID.TID 0000.0001) %MON dynstat_wvel_del2            =   1.0722241266764E-05
(PID.TID 0000.0001) %MON dynstat_theta_max            =   9.9954121364381E-03
(PID.TID 0000.0001) %MON dynstat_theta_min            =  -5.1213730446968E-03
(PID.TID 0000.0001) %MON dynstat_theta_mean           =   5.0511859429905E-03
(PID.TID 0000.0001) %MON dynstat_theta_sd             =   2.8508511438673E-03
(PID.TID 0000.0001) %MON dynstat_theta_del2           =   6.0027265581817E-05
(PID.TID 0000.0001) %MON dynstat_salt_max             =   3.5000000000000E+01
(PID.TID 0000.0001) %MON dynstat_salt_min             =   3.5000000000000E+01
(PID.TID 0000.0001) %MON dynstat_salt_mean            =   3.5000000000000E+01
(PID.TID 0000.0001) %MON dynstat_salt_sd              =   1.2789769243682E-13
(PID.TID 0000.0001) %MON dynstat_salt_del2            =   0.0000000000000E+00
(PID.TID 0000.0001) %MON trAdv_CFL_u_max              =   3.9806917973590E-03
(PID.TID 0000.0001) %MON trAdv_CFL_v_max              =   0.0000000000000E+00
(PID.TID 0000.0001) %MON trAdv_CFL_w_max              =   1.0599687568947E-02
(PID.TID 0000.0001) %MON advcfl_uvel_max              =   2.8843631467565E-03
(PID.TID 0000.0001) %MON advcfl_vvel_max              =   0.0000000000000E+00
(PID.TID 0000.0001) %MON advcfl_wvel_max              =   1.0599687568947E-02
(PID.TID 0000.0001) %MON advcfl_W_hf_max              =   1.0599687568947E-02
(PID.TID 0000.0001) %MON pe_b_mean                    =   1.8439454570122E-12
(PID.TID 0000.0001) %MON ke_max                       =   1.6120902681770E-06
(PID.TID 0000.0001) %MON ke_mean                      =   1.5200947281995E-07
(PID.TID 0000.0001) %MON ke_vol                       =   2.0102771472217E+08
(PID.TID 0000.0001) %MON vort_r_min                   =   0.0000000000000E+00
(PID.TID 0000.0001) %MON vort_r_max                   =   0.0000000000000E+00
(PID.TID 0000.0001) %MON vort_a_mean                  =   0.0000000000000E+00
(PID.TID 0000.0001) %MON vort_a_sd                    =   0.0000000000000E+00
(PID.TID 0000.0001) %MON vort_p_mean                  =   0.0000000000000E+00
(PID.TID 0000.0001) %MON vort_p_sd                    =   0.0000000000000E+00
(PID.TID 0000.0001) %MON surfExpan_theta_mean         =   7.1324986705199E-12
(PID.TID 0000.0001) %MON surfExpan_salt_mean          =   2.1156817559176E-19
(PID.TID 0000.0001) // =======================================================
(PID.TID 0000.0001) // End MONITOR dynamic field statistics
(PID.TID 0000.0001) // =======================================================
 cg2d: Sum(rhs),rhsMax =  -1.51810032991029E-04  4.32292866764538E-04
(PID.TID 0000.0001)      cg2d_init_res =   4.42095340355848E-03
(PID.TID 0000.0001)      cg2d_iters(min,last) =      -1     188
(PID.TID 0000.0001)      cg2d_last_res =   7.92048104566951E-14
 cg3d: Sum(rhs),rhsMax =   3.35718865901447E-14  9.22985303565084E-06
(PID.TID 0000.0001)      cg3d_init_res =   4.23732173667623E-02
(PID.TID 0000.0001)      cg3d_iters (last) =                 20
(PID.TID 0000.0001)      cg3d_last_res =   1.69097249408978E-04
(PID.TID 0000.0001) // =======================================================
(PID.TID 0000.0001) // Begin MONITOR dynamic field statistics
(PID.TID 0000.0001) // =======================================================
(PID.TID 0000.0001) %MON time_tsnumber                =                    20
(PID.TID 0000.0001) %MON time_secondsf                =   4.0000000000000E+02
(PID.TID 0000.0001) %MON dynstat_eta_max              =   2.4440865210919E-05
(PID.TID 0000.0001) %MON dynstat_eta_min              =  -1.9644457067076E-05
(PID.TID 0000.0001) %MON dynstat_eta_mean             =   5.3783500056488E-08
(PID.TID 0000.0001) %MON dynstat_eta_sd               =   7.7224721146196E-06
(PID.TID 0000.0001) %MON dynstat_eta_del2             =   9.0074573018496E-07
(PID.TID 0000.0001) %MON dynstat_uvel_max             =   1.9291226236776E-03
(PID.TID 0000.0001) %MON dynstat_uvel_min             =  -2.0188934447318E-03
(PID.TID 0000.0001) %MON dynstat_uvel_mean            =   5.7628137793130E-08
(PID.TID 0000.0001) %MON dynstat_uvel_sd              =   4.1632026882358E-04
(PID.TID 0000.0001) %MON dynstat_uvel_del2            =   1.0956336065764E-05
(PID.TID 0000.0001) %MON dynstat_vvel_max             =   0.0000000000000E+00
(PID.TID 0000.0001) %MON dynstat_vvel_min             =   0.0000000000000E+00
(PID.TID 0000.0001) %MON dynstat_vvel_mean            =   0.0000000000000E+00
(PID.TID 0000.0001) %MON dynstat_vvel_sd              =   0.0000000000000E+00
(PID.TID 0000.0001) %MON dynstat_vvel_del2            =   0.0000000000000E+00
(PID.TID 0000.0001) %MON dynstat_wvel_max             =   1.7311376189522E-03
(PID.TID 0000.0001) %MON dynstat_wvel_min             =  -1.8569472005993E-03
(PID.TID 0000.0001) %MON dynstat_wvel_mean            =   3.1707548964059E-08
(PID.TID 0000.0001) %MON dynstat_wvel_sd              =   4.0393134052784E-04
(PID.TID 0000.0001) %MON dynstat_wvel_del2            =   1.1267939243442E-05
(PID.TID 0000.0001) %MON dynstat_theta_max            =   9.9951429885124E-03
(PID.TID 0000.0001) %MON dynstat_theta_min            =  -5.4162990677269E-03
(PID.TID 0000.0001) %MON dynstat_theta_mean           =   5.0505082784894E-03
(PID.TID 0000.0001) %MON dynstat_theta_sd             =   2.8477351936331E-03
(PID.TID 0000.0001) %MON dynstat_theta_del2           =   5.9907234615148E-05
(PID.TID 0000.0001) %MON dynstat_salt_max             =   3.5000000000000E+01
(PID.TID 0000.0001) %MON dynstat_salt_min             =   3.5000000000000E+01
(PID.TID 0000.0001) %MON dynstat_salt_mean            =   3.5000000000000E+01
(PID.TID 0000.0001) %MON dynstat_salt_sd              =   1.2789769243682E-13
(PID.TID 0000.0001) %MON dynstat_salt_del2            =   0.0000000000000E+00
(PID.TID 0000.0001) %MON trAdv_CFL_u_max              =   4.1697285669639E-03
(PID.TID 0000.0001) %MON trAdv_CFL_v_max              =   0.0000000000000E+00
(PID.TID 0000.0001) %MON trAdv_CFL_w_max              =   1.1141683203596E-02
(PID.TID 0000.0001) %MON advcfl_uvel_max              =   3.0281414491599E-03
(PID.TID 0000.0001) %MON advcfl_vvel_max              =   0.0000000000000E+00
(PID.TID 0000.0001) %MON advcfl_wvel_max              =   1.1141683203596E-02
(PID.TID 0000.0001) %MON advcfl_W_hf_max              =   1.1141683203596E-02
(PID.TID 0000.0001) %MON pe_b_mean                    =   1.8538760337040E-12
(PID.TID 0000.0001) %MON ke_max                       =   1.7810198391574E-06
(PID.TID 0000.0001) %MON ke_mean                      =   1.6803333413965E-07
(PID.TID 0000.0001) %MON ke_vol                       =   2.0102771472217E+08
(PID.TID 0000.0001) %MON vort_r_min                   =   0.0000000000000E+00
(PID.TID 0000.0001) %MON vort_r_max                   =   0.0000000000000E+00
(PID.TID 0000.0001) %MON vort_a_mean                  =   0.0000000000000E+00
(PID.TID 0000.0001) %MON vort_a_sd                    =   0.0000000000000E+00
(PID.TID 0000.0001) %MON vort_p_mean                  =   0.0000000000000E+00
(PID.TID 0000.0001) %MON vort_p_sd                    =   0.0000000000000E+00
(PID.TID 0000.0001) %MON surfExpan_theta_mean         =   8.5113064831699E-12
(PID.TID 0000.0001) %MON surfExpan_salt_mean          =   9.4182805383913E-20
(PID.TID 0000.0001) // =======================================================
(PID.TID 0000.0001) // End MONITOR dynamic field statistics
(PID.TID 0000.0001) // =======================================================
(PID.TID 0000.0001) // =======================================================
(PID.TID 0000.0001) // Begin OBCS MONITOR field statistics
(PID.TID 0000.0001) // =======================================================
(PID.TID 0000.0001) %MON obc_time_tsnumber            =                    20
(PID.TID 0000.0001) %MON obc_time_secondsf            =   4.0000000000000E+02
(PID.TID 0000.0001) %MON obc_E_uVel_max               =   1.4652876235966E-04
(PID.TID 0000.0001) %MON obc_E_uVel_min               =  -1.6537729042711E-04
(PID.TID 0000.0001) %MON obc_E_uVel_mean              =   3.1875544472779E-21
(PID.TID 0000.0001) %MON obc_E_uVel_sd                =   3.2036234981783E-05
(PID.TID 0000.0001) %MON obc_E_uVel_Int               =   1.2750217548430E-16
(PID.TID 0000.0001) // =======================================================
(PID.TID 0000.0001) // End OBCS MONITOR field statistics
(PID.TID 0000.0001) // =======================================================
(PID.TID 0000.0001) %CHECKPOINT        20 ckptA
(PID.TID 0000.0001)   Seconds in section "ALL                    [THE_MODEL_MAIN]":
(PID.TID 0000.0001)           User time:   16.548230764456093
(PID.TID 0000.0001)         System time:  0.10797499865293503
(PID.TID 0000.0001)     Wall clock time:   16.666604042053223
(PID.TID 0000.0001)          No. starts:           1
(PID.TID 0000.0001)           No. stops:           1
(PID.TID 0000.0001)   Seconds in section "INITIALISE_FIXED       [THE_MODEL_MAIN]":
(PID.TID 0000.0001)           User time:  0.13560799742117524
(PID.TID 0000.0001)         System time:   3.2685998827219009E-002
(PID.TID 0000.0001)     Wall clock time:  0.16843795776367188
(PID.TID 0000.0001)          No. starts:           1
(PID.TID 0000.0001)           No. stops:           1
(PID.TID 0000.0001)   Seconds in section "THE_MAIN_LOOP          [THE_MODEL_MAIN]":
(PID.TID 0000.0001)           User time:   16.412575140595436
(PID.TID 0000.0001)         System time:   7.5285997241735458E-002
(PID.TID 0000.0001)     Wall clock time:   16.498129129409790
(PID.TID 0000.0001)          No. starts:           1
(PID.TID 0000.0001)           No. stops:           1
(PID.TID 0000.0001)   Seconds in section "INITIALISE_VARIA    [THE_MAIN_LOOP]":
(PID.TID 0000.0001)           User time:  0.10900400578975677
(PID.TID 0000.0001)         System time:   3.9290998131036758E-002
(PID.TID 0000.0001)     Wall clock time:  0.14829897880554199
(PID.TID 0000.0001)          No. starts:           1
(PID.TID 0000.0001)           No. stops:           1
(PID.TID 0000.0001)   Seconds in section "MAIN LOOP           [THE_MAIN_LOOP]":
(PID.TID 0000.0001)           User time:   16.303545504808426
(PID.TID 0000.0001)         System time:   3.5989999771118164E-002
(PID.TID 0000.0001)     Wall clock time:   16.349802970886230
(PID.TID 0000.0001)          No. starts:           1
(PID.TID 0000.0001)           No. stops:           1
(PID.TID 0000.0001)   Seconds in section "MAIN_DO_LOOP        [THE_MAIN_LOOP]":
(PID.TID 0000.0001)           User time:   16.303387463092804
(PID.TID 0000.0001)         System time:   3.5987995564937592E-002
(PID.TID 0000.0001)     Wall clock time:   16.349636316299438
(PID.TID 0000.0001)          No. starts:          20
(PID.TID 0000.0001)           No. stops:          20
(PID.TID 0000.0001)   Seconds in section "FORWARD_STEP        [MAIN_DO_LOOP]":
(PID.TID 0000.0001)           User time:   16.303076371550560
(PID.TID 0000.0001)         System time:   3.5966999828815460E-002
(PID.TID 0000.0001)     Wall clock time:   16.349308013916016
(PID.TID 0000.0001)          No. starts:          20
(PID.TID 0000.0001)           No. stops:          20
(PID.TID 0000.0001)   Seconds in section "LOAD_FIELDS_DRIVER  [FORWARD_STEP]":
(PID.TID 0000.0001)           User time:   4.4952332973480225E-004
(PID.TID 0000.0001)         System time:   3.2998621463775635E-005
(PID.TID 0000.0001)     Wall clock time:   4.8160552978515625E-004
(PID.TID 0000.0001)          No. starts:          20
(PID.TID 0000.0001)           No. stops:          20
(PID.TID 0000.0001)   Seconds in section "EXTERNAL_FLDS_LOAD [LOAD_FLDS_DRIVER]":
(PID.TID 0000.0001)           User time:   1.6018748283386230E-004
(PID.TID 0000.0001)         System time:   1.1004507541656494E-005
(PID.TID 0000.0001)     Wall clock time:   1.7166137695312500E-004
(PID.TID 0000.0001)          No. starts:          20
(PID.TID 0000.0001)           No. stops:          20
(PID.TID 0000.0001)   Seconds in section "DO_ATMOSPHERIC_PHYS [FORWARD_STEP]":
(PID.TID 0000.0001)           User time:   1.5148520469665527E-004
(PID.TID 0000.0001)         System time:   1.2010335922241211E-005
(PID.TID 0000.0001)     Wall clock time:   1.5997886657714844E-004
(PID.TID 0000.0001)          No. starts:          20
(PID.TID 0000.0001)           No. stops:          20
(PID.TID 0000.0001)   Seconds in section "DO_OCEANIC_PHYS     [FORWARD_STEP]":
(PID.TID 0000.0001)           User time:   9.1441005468368530E-002
(PID.TID 0000.0001)         System time:   4.5710131525993347E-003
(PID.TID 0000.0001)     Wall clock time:   9.6049785614013672E-002
(PID.TID 0000.0001)          No. starts:          20
(PID.TID 0000.0001)           No. stops:          20
(PID.TID 0000.0001)   Seconds in section "DYNAMICS            [FORWARD_STEP]":
(PID.TID 0000.0001)           User time:   5.5037717223167419
(PID.TID 0000.0001)         System time:   7.9669952392578125E-003
(PID.TID 0000.0001)     Wall clock time:   5.5176239013671875
(PID.TID 0000.0001)          No. starts:          20
(PID.TID 0000.0001)           No. stops:          20
(PID.TID 0000.0001)   Seconds in section "CALC_GW          [DYNAMICS]":
(PID.TID 0000.0001)           User time:   1.3306243717670441
(PID.TID 0000.0001)         System time:   4.0150061249732971E-003
(PID.TID 0000.0001)     Wall clock time:   1.3349213600158691
(PID.TID 0000.0001)          No. starts:          80
(PID.TID 0000.0001)           No. stops:          80
(PID.TID 0000.0001)   Seconds in section "SOLVE_FOR_PRESSURE  [FORWARD_STEP]":
(PID.TID 0000.0001)           User time:   5.4056172370910645
(PID.TID 0000.0001)         System time:   0.0000000000000000
(PID.TID 0000.0001)     Wall clock time:   5.4084708690643311
(PID.TID 0000.0001)          No. starts:          20
(PID.TID 0000.0001)           No. stops:          20
(PID.TID 0000.0001)   Seconds in section "CG3D   [SOLVE_FOR_PRESSURE]":
(PID.TID 0000.0001)           User time:   4.7270575761795044
(PID.TID 0000.0001)         System time:   0.0000000000000000
(PID.TID 0000.0001)     Wall clock time:   4.7297437191009521
(PID.TID 0000.0001)          No. starts:          20
(PID.TID 0000.0001)           No. stops:          20
(PID.TID 0000.0001)   Seconds in section "MOM_CORRECTION_STEP [FORWARD_STEP]":
(PID.TID 0000.0001)           User time:  0.28727620840072632
(PID.TID 0000.0001)         System time:   0.0000000000000000
(PID.TID 0000.0001)     Wall clock time:  0.28747248649597168
(PID.TID 0000.0001)          No. starts:          20
(PID.TID 0000.0001)           No. stops:          20
(PID.TID 0000.0001)   Seconds in section "INTEGR_CONTINUITY   [FORWARD_STEP]":
(PID.TID 0000.0001)           User time:   8.9313507080078125E-002
(PID.TID 0000.0001)         System time:   0.0000000000000000
(PID.TID 0000.0001)     Wall clock time:   8.9341878890991211E-002
(PID.TID 0000.0001)          No. starts:          20
(PID.TID 0000.0001)           No. stops:          20
(PID.TID 0000.0001)   Seconds in section "BLOCKING_EXCHANGES  [FORWARD_STEP]":
(PID.TID 0000.0001)           User time:  0.47567224502563477
(PID.TID 0000.0001)         System time:   9.0003013610839844E-006
(PID.TID 0000.0001)     Wall clock time:  0.47587513923645020
(PID.TID 0000.0001)          No. starts:          40
(PID.TID 0000.0001)           No. stops:          40
(PID.TID 0000.0001)   Seconds in section "THERMODYNAMICS      [FORWARD_STEP]":
(PID.TID 0000.0001)           User time:   3.9324904680252075
(PID.TID 0000.0001)         System time:   7.5449943542480469E-003
(PID.TID 0000.0001)     Wall clock time:   3.9412870407104492
(PID.TID 0000.0001)          No. starts:          20
(PID.TID 0000.0001)           No. stops:          20
(PID.TID 0000.0001)   Seconds in section "TRC_CORRECTION_STEP [FORWARD_STEP]":
(PID.TID 0000.0001)           User time:   1.6653537750244141E-004
(PID.TID 0000.0001)         System time:   9.9837779998779297E-007
(PID.TID 0000.0001)     Wall clock time:   1.6927719116210938E-004
(PID.TID 0000.0001)          No. starts:          20
(PID.TID 0000.0001)           No. stops:          20
(PID.TID 0000.0001)   Seconds in section "MONITOR             [FORWARD_STEP]":
(PID.TID 0000.0001)           User time:  0.50089299678802490
(PID.TID 0000.0001)         System time:   3.8069933652877808E-003
(PID.TID 0000.0001)     Wall clock time:  0.50480413436889648
(PID.TID 0000.0001)          No. starts:          20
(PID.TID 0000.0001)           No. stops:          20
(PID.TID 0000.0001)   Seconds in section "DO_THE_MODEL_IO     [FORWARD_STEP]":
(PID.TID 0000.0001)           User time:   5.6327581405639648E-003
(PID.TID 0000.0001)         System time:   3.9890110492706299E-003
(PID.TID 0000.0001)     Wall clock time:   9.6290111541748047E-003
(PID.TID 0000.0001)          No. starts:          20
(PID.TID 0000.0001)           No. stops:          20
(PID.TID 0000.0001)   Seconds in section "DO_WRITE_PICKUP     [FORWARD_STEP]":
(PID.TID 0000.0001)           User time:   7.4489116668701172E-003
(PID.TID 0000.0001)         System time:   7.9939961433410645E-003
(PID.TID 0000.0001)     Wall clock time:   1.5447139739990234E-002
(PID.TID 0000.0001)          No. starts:          20
(PID.TID 0000.0001)           No. stops:          20
(PID.TID 0000.0001) // ======================================================
(PID.TID 0000.0001) // Tile <-> Tile communication statistics
(PID.TID 0000.0001) // ======================================================
(PID.TID 0000.0001) // o Tile number: 000001
(PID.TID 0000.0001) //         No. X exchanges =              0
(PID.TID 0000.0001) //            Max. X spins =              0
(PID.TID 0000.0001) //            Min. X spins =     1000000000
(PID.TID 0000.0001) //          Total. X spins =              0
(PID.TID 0000.0001) //            Avg. X spins =       0.00E+00
(PID.TID 0000.0001) //         No. Y exchanges =              0
(PID.TID 0000.0001) //            Max. Y spins =              0
(PID.TID 0000.0001) //            Min. Y spins =     1000000000
(PID.TID 0000.0001) //          Total. Y spins =              0
(PID.TID 0000.0001) //            Avg. Y spins =       0.00E+00
(PID.TID 0000.0001) // o Tile number: 000002
(PID.TID 0000.0001) //         No. X exchanges =              0
(PID.TID 0000.0001) //            Max. X spins =              0
(PID.TID 0000.0001) //            Min. X spins =     1000000000
(PID.TID 0000.0001) //          Total. X spins =              0
(PID.TID 0000.0001) //            Avg. X spins =       0.00E+00
(PID.TID 0000.0001) //         No. Y exchanges =              0
(PID.TID 0000.0001) //            Max. Y spins =              0
(PID.TID 0000.0001) //            Min. Y spins =     1000000000
(PID.TID 0000.0001) //          Total. Y spins =              0
(PID.TID 0000.0001) //            Avg. Y spins =       0.00E+00
(PID.TID 0000.0001) // o Tile number: 000003
(PID.TID 0000.0001) //         No. X exchanges =              0
(PID.TID 0000.0001) //            Max. X spins =              0
(PID.TID 0000.0001) //            Min. X spins =     1000000000
(PID.TID 0000.0001) //          Total. X spins =              0
(PID.TID 0000.0001) //            Avg. X spins =       0.00E+00
(PID.TID 0000.0001) //         No. Y exchanges =              0
(PID.TID 0000.0001) //            Max. Y spins =              0
(PID.TID 0000.0001) //            Min. Y spins =     1000000000
(PID.TID 0000.0001) //          Total. Y spins =              0
(PID.TID 0000.0001) //            Avg. Y spins =       0.00E+00
(PID.TID 0000.0001) // o Tile number: 000004
(PID.TID 0000.0001) //         No. X exchanges =              0
(PID.TID 0000.0001) //            Max. X spins =              0
(PID.TID 0000.0001) //            Min. X spins =     1000000000
(PID.TID 0000.0001) //          Total. X spins =              0
(PID.TID 0000.0001) //            Avg. X spins =       0.00E+00
(PID.TID 0000.0001) //         No. Y exchanges =              0
(PID.TID 0000.0001) //            Max. Y spins =              0
(PID.TID 0000.0001) //            Min. Y spins =     1000000000
(PID.TID 0000.0001) //          Total. Y spins =              0
(PID.TID 0000.0001) //            Avg. Y spins =       0.00E+00
(PID.TID 0000.0001) // o Thread number: 000001
(PID.TID 0000.0001) //            No. barriers =          32076
(PID.TID 0000.0001) //      Max. barrier spins =              1
(PID.TID 0000.0001) //      Min. barrier spins =              1
(PID.TID 0000.0001) //     Total barrier spins =          32076
(PID.TID 0000.0001) //      Avg. barrier spins =       1.00E+00
PROGRAM MAIN: Execution ended Normally
