(PID.TID 0000.0001) 
(PID.TID 0000.0001) // ======================================================
(PID.TID 0000.0001) //                      MITgcm UV
(PID.TID 0000.0001) //                      =========
(PID.TID 0000.0001) // ======================================================
(PID.TID 0000.0001) // execution environment starting up...
(PID.TID 0000.0001) 
(PID.TID 0000.0001) // MITgcmUV version:  checkpoint67h
(PID.TID 0000.0001) // Build user:        jmc
(PID.TID 0000.0001) // Build host:        baudelaire
(PID.TID 0000.0001) // Build date:        Fri Mar 22 01:06:02 EDT 2019
(PID.TID 0000.0001) 
(PID.TID 0000.0001) // =======================================================
(PID.TID 0000.0001) // Execution Environment parameter file "eedata"
(PID.TID 0000.0001) // =======================================================
(PID.TID 0000.0001) ># Example "eedata" file
(PID.TID 0000.0001) ># Lines beginning "#" are comments
(PID.TID 0000.0001) ># nTx - No. threads per process in X
(PID.TID 0000.0001) ># nTy - No. threads per process in Y
(PID.TID 0000.0001) > &EEPARMS
(PID.TID 0000.0001) > /
(PID.TID 0000.0001) ># Note: Some systems use & as the
(PID.TID 0000.0001) ># namelist terminator. Other systems
(PID.TID 0000.0001) ># use a / character (as shown here).
(PID.TID 0000.0001) 
(PID.TID 0000.0001) // =======================================================
(PID.TID 0000.0001) // Computational Grid Specification ( see files "SIZE.h" )
(PID.TID 0000.0001) //                                  ( and "eedata"       )
(PID.TID 0000.0001) // =======================================================
(PID.TID 0000.0001)      nPx =    1 ; /* No. processes in X */
(PID.TID 0000.0001)      nPy =    1 ; /* No. processes in Y */
(PID.TID 0000.0001)      nSx =    4 ; /* No. tiles in X per process */
(PID.TID 0000.0001)      nSy =    1 ; /* No. tiles in Y per process */
(PID.TID 0000.0001)      sNx =   80 ; /* Tile size in X */
(PID.TID 0000.0001)      sNy =    1 ; /* Tile size in Y */
(PID.TID 0000.0001)      OLx =    3 ; /* Tile overlap distance in X */
(PID.TID 0000.0001)      OLy =    3 ; /* Tile overlap distance in Y */
(PID.TID 0000.0001)      nTx =    1 ; /* No. threads in X per process */
(PID.TID 0000.0001)      nTy =    1 ; /* No. threads in Y per process */
(PID.TID 0000.0001)       Nr =   60 ; /* No. levels in the vertical   */
(PID.TID 0000.0001)       Nx =  320 ; /* Total domain size in X ( = nPx*nSx*sNx ) */
(PID.TID 0000.0001)       Ny =    1 ; /* Total domain size in Y ( = nPy*nSy*sNy ) */
(PID.TID 0000.0001)   nTiles =    4 ; /* Total no. tiles per process ( = nSx*nSy ) */
(PID.TID 0000.0001)   nProcs =    1 ; /* Total no. processes ( = nPx*nPy ) */
(PID.TID 0000.0001) nThreads =    1 ; /* Total no. threads per process ( = nTx*nTy ) */
(PID.TID 0000.0001) usingMPI =    F ; /* Flag used to control whether MPI is in use */
(PID.TID 0000.0001)                   /*  note: To execute a program with MPI calls */
(PID.TID 0000.0001)                   /*  it must be launched appropriately e.g     */
(PID.TID 0000.0001)                   /*  "mpirun -np 64 ......"                    */
(PID.TID 0000.0001) useCoupler=    F ;/* Flag used to control communications with   */
(PID.TID 0000.0001)                   /*  other model components, through a coupler */
(PID.TID 0000.0001) useNest2W_parent =    F ;/* Control 2-W Nesting comm */
(PID.TID 0000.0001) useNest2W_child  =    F ;/* Control 2-W Nesting comm */
(PID.TID 0000.0001) debugMode =    F ; /* print debug msg. (sequence of S/R calls)  */
(PID.TID 0000.0001) printMapIncludesZeros=    F ; /* print zeros in Std.Output maps */
(PID.TID 0000.0001) maxLengthPrt1D=   65 /* maxLength of 1D array printed to StdOut */
(PID.TID 0000.0001) 
(PID.TID 0000.0001) // ======================================================
(PID.TID 0000.0001) // Mapping of tiles to threads
(PID.TID 0000.0001) // ======================================================
(PID.TID 0000.0001) // -o- Thread   1, tiles (   1:   4,   1:   1)
(PID.TID 0000.0001) 
(PID.TID 0000.0001) // ======================================================
(PID.TID 0000.0001) // Tile <-> Tile connectvity table
(PID.TID 0000.0001) // ======================================================
(PID.TID 0000.0001) // Tile number: 000001 (process no. = 000000)
(PID.TID 0000.0001) //        WEST: Tile = 000004, Process = 000000, Comm = put
(PID.TID 0000.0001) //                bi = 000004, bj = 000001
(PID.TID 0000.0001) //        EAST: Tile = 000002, Process = 000000, Comm = put
(PID.TID 0000.0001) //                bi = 000002, bj = 000001
(PID.TID 0000.0001) //       SOUTH: Tile = 000001, Process = 000000, Comm = put
(PID.TID 0000.0001) //                bi = 000001, bj = 000001
(PID.TID 0000.0001) //       NORTH: Tile = 000001, Process = 000000, Comm = put
(PID.TID 0000.0001) //                bi = 000001, bj = 000001
(PID.TID 0000.0001) // Tile number: 000002 (process no. = 000000)
(PID.TID 0000.0001) //        WEST: Tile = 000001, Process = 000000, Comm = put
(PID.TID 0000.0001) //                bi = 000001, bj = 000001
(PID.TID 0000.0001) //        EAST: Tile = 000003, Process = 000000, Comm = put
(PID.TID 0000.0001) //                bi = 000003, bj = 000001
(PID.TID 0000.0001) //       SOUTH: Tile = 000002, Process = 000000, Comm = put
(PID.TID 0000.0001) //                bi = 000002, bj = 000001
(PID.TID 0000.0001) //       NORTH: Tile = 000002, Process = 000000, Comm = put
(PID.TID 0000.0001) //                bi = 000002, bj = 000001
(PID.TID 0000.0001) // Tile number: 000003 (process no. = 000000)
(PID.TID 0000.0001) //        WEST: Tile = 000002, Process = 000000, Comm = put
(PID.TID 0000.0001) //                bi = 000002, bj = 000001
(PID.TID 0000.0001) //        EAST: Tile = 000004, Process = 000000, Comm = put
(PID.TID 0000.0001) //                bi = 000004, bj = 000001
(PID.TID 0000.0001) //       SOUTH: Tile = 000003, Process = 000000, Comm = put
(PID.TID 0000.0001) //                bi = 000003, bj = 000001
(PID.TID 0000.0001) //       NORTH: Tile = 000003, Process = 000000, Comm = put
(PID.TID 0000.0001) //                bi = 000003, bj = 000001
(PID.TID 0000.0001) // Tile number: 000004 (process no. = 000000)
(PID.TID 0000.0001) //        WEST: Tile = 000003, Process = 000000, Comm = put
(PID.TID 0000.0001) //                bi = 000003, bj = 000001
(PID.TID 0000.0001) //        EAST: Tile = 000001, Process = 000000, Comm = put
(PID.TID 0000.0001) //                bi = 000001, bj = 000001
(PID.TID 0000.0001) //       SOUTH: Tile = 000004, Process = 000000, Comm = put
(PID.TID 0000.0001) //                bi = 000004, bj = 000001
(PID.TID 0000.0001) //       NORTH: Tile = 000004, Process = 000000, Comm = put
(PID.TID 0000.0001) //                bi = 000004, bj = 000001
(PID.TID 0000.0001) 
(PID.TID 0000.0001)  INI_PARMS: opening model parameter file "data"
(PID.TID 0000.0001)  OPEN_COPY_DATA_FILE: opening file data
(PID.TID 0000.0001) // =======================================================
(PID.TID 0000.0001) // Parameter file "data"
(PID.TID 0000.0001) // =======================================================
(PID.TID 0000.0001) ># ====================
(PID.TID 0000.0001) ># | Model parameters |
(PID.TID 0000.0001) ># ====================
(PID.TID 0000.0001) >#
(PID.TID 0000.0001) ># Continuous equation parameters
(PID.TID 0000.0001) > &PARM01
(PID.TID 0000.0001) > tRef=60*1.,
(PID.TID 0000.0001) > sRef=60*35.,
(PID.TID 0000.0001) > viscA4=0.0E4,
(PID.TID 0000.0001) > viscAh=1.E-2,
(PID.TID 0000.0001) > viscAz=1.E-3,
(PID.TID 0000.0001) > bottomDragLinear=0.E-4,
(PID.TID 0000.0001) > no_slip_sides=.TRUE.,
(PID.TID 0000.0001) > no_slip_bottom=.TRUE.,
(PID.TID 0000.0001) > diffK4T=0.E4,
(PID.TID 0000.0001) > diffKhT=0.E-2,
(PID.TID 0000.0001) > diffKzT=0.E-3,
(PID.TID 0000.0001) > diffK4S=0.E4,
(PID.TID 0000.0001) > diffKhS=1.E-2,
(PID.TID 0000.0001) > diffKzS=1.E-5,
(PID.TID 0000.0001) > tempAdvScheme=33,
(PID.TID 0000.0001) > f0=0.e-4,
(PID.TID 0000.0001) > beta=0.E-11,
(PID.TID 0000.0001) > eosType='LINEAR',
(PID.TID 0000.0001) > tAlpha=2.E-4,
(PID.TID 0000.0001) > sBeta =0.E-4,
(PID.TID 0000.0001) > rigidLid=.FALSE.,
(PID.TID 0000.0001) > implicitFreeSurface=.TRUE.,
(PID.TID 0000.0001) > hFacMin=0.05,
(PID.TID 0000.0001) > nonHydrostatic=.TRUE.,
(PID.TID 0000.0001) > readBinaryPrec=64,
(PID.TID 0000.0001) >#- not safe to use globalFiles in multi-processors runs
(PID.TID 0000.0001) >#globalFiles=.TRUE.,
(PID.TID 0000.0001) > plotLevel=0,
(PID.TID 0000.0001) > /
(PID.TID 0000.0001) >
(PID.TID 0000.0001) ># Elliptic solver parameters
(PID.TID 0000.0001) > &PARM02
(PID.TID 0000.0001) > cg2dMaxIters=300,
(PID.TID 0000.0001) > cg2dTargetResidual=1.E-13,
(PID.TID 0000.0001) > cg3dMaxIters=20,
(PID.TID 0000.0001) > cg3dTargetResidual=1.E-8,
(PID.TID 0000.0001) > /
(PID.TID 0000.0001) >
(PID.TID 0000.0001) ># Time stepping parameters
(PID.TID 0000.0001) > &PARM03
(PID.TID 0000.0001) > nIter0=0,
(PID.TID 0000.0001) > nTimeSteps=20,
(PID.TID 0000.0001) >#nTimeSteps=8640,
(PID.TID 0000.0001) > deltaT=20.0,
(PID.TID 0000.0001) > abEps=0.01,
(PID.TID 0000.0001) > pChkptFreq=0.0,
(PID.TID 0000.0001) > chkptFreq=0.0,
(PID.TID 0000.0001) > dumpFreq=6000.0,
(PID.TID 0000.0001) >#taveFreq=864000.0,
(PID.TID 0000.0001) > monitorSelect=2,
(PID.TID 0000.0001) > monitorFreq=1.,
(PID.TID 0000.0001) > /
(PID.TID 0000.0001) >
(PID.TID 0000.0001) ># Gridding parameters
(PID.TID 0000.0001) > &PARM04
(PID.TID 0000.0001) > usingCartesianGrid=.TRUE.,
(PID.TID 0000.0001) > delXfile='dx.bin',
(PID.TID 0000.0001) > dYspacing=200.,
(PID.TID 0000.0001) > delZ=60*3.33333333333333333333333,
(PID.TID 0000.0001) > /
(PID.TID 0000.0001) >
(PID.TID 0000.0001) ># Input datasets
(PID.TID 0000.0001) > &PARM05
(PID.TID 0000.0001) > bathyFile      ='topog.slope',
(PID.TID 0000.0001) > hydrogThetaFile='T.init',
(PID.TID 0000.0001) > surfQnetFile   ='Qnet.forcing',
(PID.TID 0000.0001) >#hydrogThetaFile='T.pickup',
(PID.TID 0000.0001) >#uVelInitFile   ='U.pickup',
(PID.TID 0000.0001) >#pSurfInitFile  ='Eta.pickup',
(PID.TID 0000.0001) > /
(PID.TID 0000.0001) 
(PID.TID 0000.0001)  INI_PARMS ; starts to read PARM01
(PID.TID 0000.0001)  INI_PARMS ; read PARM01 : OK
(PID.TID 0000.0001)  INI_PARMS ; starts to read PARM02
(PID.TID 0000.0001)  INI_PARMS ; read PARM02 : OK
(PID.TID 0000.0001)  INI_PARMS ; starts to read PARM03
(PID.TID 0000.0001)  INI_PARMS ; read PARM03 : OK
(PID.TID 0000.0001)  INI_PARMS ; starts to read PARM04
(PID.TID 0000.0001)  INI_PARMS ; read PARM04 : OK
(PID.TID 0000.0001)  INI_PARMS ; starts to read PARM05
(PID.TID 0000.0001)  INI_PARMS ; read PARM05 : OK
(PID.TID 0000.0001)  INI_PARMS: finished reading file "data"
(PID.TID 0000.0001)  PACKAGES_BOOT: opening data.pkg
(PID.TID 0000.0001)  OPEN_COPY_DATA_FILE: opening file data.pkg
(PID.TID 0000.0001) // =======================================================
(PID.TID 0000.0001) // Parameter file "data.pkg"
(PID.TID 0000.0001) // =======================================================
(PID.TID 0000.0001) ># Packages
(PID.TID 0000.0001) > &PACKAGES
(PID.TID 0000.0001) > useOBCS=.TRUE.,
(PID.TID 0000.0001) > /
(PID.TID 0000.0001) 
(PID.TID 0000.0001)  PACKAGES_BOOT: finished reading data.pkg
(PID.TID 0000.0001)  PACKAGES_BOOT: On/Off package Summary
 --------  pkgs with a standard "usePKG" On/Off switch in "data.pkg":  --------
 pkg/obcs                 compiled   and   used ( useOBCS                  = T )
 -------- pkgs without standard "usePKG" On/Off switch in "data.pkg":  --------
 pkg/generic_advdiff      compiled   and   used ( useGAD                   = T )
 pkg/mom_common           compiled   and   used ( momStepping              = T )
 pkg/mom_vecinv           compiled but not used ( +vectorInvariantMomentum = F )
 pkg/mom_fluxform         compiled   and   used ( & not vectorInvariantMom = T )
 pkg/monitor              compiled   and   used ( monitorFreq > 0.         = T )
 pkg/timeave              compiled but not used ( taveFreq > 0.            = F )
 pkg/debug                compiled but not used ( debugMode                = F )
 pkg/rw                   compiled   and   used
 pkg/mdsio                compiled   and   used
(PID.TID 0000.0001)  PACKAGES_BOOT: End of package Summary
(PID.TID 0000.0001) 
(PID.TID 0000.0001)  OBCS_READPARMS: opening data.obcs
(PID.TID 0000.0001)  OPEN_COPY_DATA_FILE: opening file data.obcs
(PID.TID 0000.0001) // =======================================================
(PID.TID 0000.0001) // Parameter file "data.obcs"
(PID.TID 0000.0001) // =======================================================
(PID.TID 0000.0001) ># Open-boundaries
(PID.TID 0000.0001) > &OBCS_PARM01
(PID.TID 0000.0001) > OB_Ieast=1*-1,
(PID.TID 0000.0001) > useOrlanskiEast=.TRUE.,
(PID.TID 0000.0001) > useOBCSbalance=.TRUE.,
(PID.TID 0000.0001) > OBCS_monitorFreq=400.,
(PID.TID 0000.0001) > /
(PID.TID 0000.0001) >
(PID.TID 0000.0001) ># Orlanski parameters
(PID.TID 0000.0001) > &OBCS_PARM02
(PID.TID 0000.0001) > Cmax=0.45,
(PID.TID 0000.0001) > cVelTimeScale=1000.,
(PID.TID 0000.0001) > /
(PID.TID 0000.0001) 
(PID.TID 0000.0001)  OBCS_READPARMS: finished reading data.obcs
(PID.TID 0000.0001)  OB_indexUnset = /* unset OB index value (i.e. no OB) */
(PID.TID 0000.0001)                       0
(PID.TID 0000.0001)     ;
(PID.TID 0000.0001)  Northern OB global indices : OB_Jnorth =
(PID.TID 0000.0001)   320 @        0                            /* I =  1:320 */
(PID.TID 0000.0001)  Southern OB global indices : OB_Jsouth =
(PID.TID 0000.0001)   320 @        0                            /* I =  1:320 */
(PID.TID 0000.0001)  Eastern  OB global indices : OB_Ieast =
(PID.TID 0000.0001)                     320                     /* J =  1 */
(PID.TID 0000.0001)  Western  OB global indices : OB_Iwest =
(PID.TID 0000.0001)                       0                     /* J =  1 */
(PID.TID 0000.0001) 
(PID.TID 0000.0001) SET_PARMS: done
(PID.TID 0000.0001)  MDS_READVEC_LOC: open file: dx.bin
(PID.TID 0000.0001) S/R LOAD_GRID_SPACING: delX loaded from file: dx.bin
(PID.TID 0000.0001) Enter INI_VERTICAL_GRID: setInterFDr=    T ; setCenterDr=    F
(PID.TID 0000.0001) %MON XC_max                       =   6.4030118978311E+03
(PID.TID 0000.0001) %MON XC_min                       =   6.6667527892151E+00
(PID.TID 0000.0001) %MON XC_mean                      =   2.4575819181463E+03
(PID.TID 0000.0001) %MON XC_sd                        =   1.7058938715763E+03
(PID.TID 0000.0001) %MON XG_max                       =   6.3832517139640E+03
(PID.TID 0000.0001) %MON XG_min                       =   0.0000000000000E+00
(PID.TID 0000.0001) %MON XG_mean                      =   2.4475463367687E+03
(PID.TID 0000.0001) %MON XG_sd                        =   1.7014602049606E+03
(PID.TID 0000.0001) %MON DXC_max                      =   3.9508304374678E+01
(PID.TID 0000.0001) %MON DXC_min                      =   1.3333509993998E+01
(PID.TID 0000.0001) %MON DXC_mean                     =   2.0071162755307E+01
(PID.TID 0000.0001) %MON DXC_sd                       =   9.4906528979627E+00
(PID.TID 0000.0001) %MON DXF_max                      =   3.9520367734344E+01
(PID.TID 0000.0001) %MON DXF_min                      =   1.3333505578430E+01
(PID.TID 0000.0001) %MON DXF_mean                     =   2.0071162755307E+01
(PID.TID 0000.0001) %MON DXF_sd                       =   9.5190787885357E+00
(PID.TID 0000.0001) %MON DXG_max                      =   3.9520367734344E+01
(PID.TID 0000.0001) %MON DXG_min                      =   1.3333505578430E+01
(PID.TID 0000.0001) %MON DXG_mean                     =   2.0071162755307E+01
(PID.TID 0000.0001) %MON DXG_sd                       =   9.5190787885357E+00
(PID.TID 0000.0001) %MON DXV_max                      =   3.9508304374678E+01
(PID.TID 0000.0001) %MON DXV_min                      =   1.3333509993998E+01
(PID.TID 0000.0001) %MON DXV_mean                     =   2.0071162755307E+01
(PID.TID 0000.0001) %MON DXV_sd                       =   9.4906528979627E+00
(PID.TID 0000.0001) %MON YC_max                       =   1.0000000000000E+02
(PID.TID 0000.0001) %MON YC_min                       =   1.0000000000000E+02
(PID.TID 0000.0001) %MON YC_mean                      =   1.0000000000000E+02
(PID.TID 0000.0001) %MON YC_sd                        =   0.0000000000000E+00
(PID.TID 0000.0001) %MON YG_max                       =   0.0000000000000E+00
(PID.TID 0000.0001) %MON YG_min                       =   0.0000000000000E+00
(PID.TID 0000.0001) %MON YG_mean                      =   0.0000000000000E+00
(PID.TID 0000.0001) %MON YG_sd                        =   0.0000000000000E+00
(PID.TID 0000.0001) %MON DYC_max                      =   2.0000000000000E+02
(PID.TID 0000.0001) %MON DYC_min                      =   2.0000000000000E+02
(PID.TID 0000.0001) %MON DYC_mean                     =   2.0000000000000E+02
(PID.TID 0000.0001) %MON DYC_sd                       =   0.0000000000000E+00
(PID.TID 0000.0001) %MON DYF_max                      =   2.0000000000000E+02
(PID.TID 0000.0001) %MON DYF_min                      =   2.0000000000000E+02
(PID.TID 0000.0001) %MON DYF_mean                     =   2.0000000000000E+02
(PID.TID 0000.0001) %MON DYF_sd                       =   0.0000000000000E+00
(PID.TID 0000.0001) %MON DYG_max                      =   2.0000000000000E+02
(PID.TID 0000.0001) %MON DYG_min                      =   2.0000000000000E+02
(PID.TID 0000.0001) %MON DYG_mean                     =   2.0000000000000E+02
(PID.TID 0000.0001) %MON DYG_sd                       =   0.0000000000000E+00
(PID.TID 0000.0001) %MON DYU_max                      =   2.0000000000000E+02
(PID.TID 0000.0001) %MON DYU_min                      =   2.0000000000000E+02
(PID.TID 0000.0001) %MON DYU_mean                     =   2.0000000000000E+02
(PID.TID 0000.0001) %MON DYU_sd                       =   0.0000000000000E+00
(PID.TID 0000.0001) %MON RA_max                       =   7.9040735468688E+03
(PID.TID 0000.0001) %MON RA_min                       =   2.6667011156861E+03
(PID.TID 0000.0001) %MON RA_mean                      =   4.0142325510614E+03
(PID.TID 0000.0001) %MON RA_sd                        =   1.9038157577071E+03
(PID.TID 0000.0001) %MON RAW_max                      =   7.9016608749357E+03
(PID.TID 0000.0001) %MON RAW_min                      =   2.6667019987996E+03
(PID.TID 0000.0001) %MON RAW_mean                     =   4.0142325510614E+03
(PID.TID 0000.0001) %MON RAW_sd                       =   1.8981305795925E+03
(PID.TID 0000.0001) %MON RAS_max                      =   7.9040735468688E+03
(PID.TID 0000.0001) %MON RAS_min                      =   2.6667011156861E+03
(PID.TID 0000.0001) %MON RAS_mean                     =   4.0142325510614E+03
(PID.TID 0000.0001) %MON RAS_sd                       =   1.9038157577071E+03
(PID.TID 0000.0001) %MON RAZ_max                      =   7.9016608749357E+03
(PID.TID 0000.0001) %MON RAZ_min                      =   2.6667019987996E+03
(PID.TID 0000.0001) %MON RAZ_mean                     =   4.0142325510614E+03
(PID.TID 0000.0001) %MON RAZ_sd                       =   1.8981305795925E+03
(PID.TID 0000.0001) %MON AngleCS_max                  =   1.0000000000000E+00
(PID.TID 0000.0001) %MON AngleCS_min                  =   1.0000000000000E+00
(PID.TID 0000.0001) %MON AngleCS_mean                 =   1.0000000000000E+00
(PID.TID 0000.0001) %MON AngleCS_sd                   =   0.0000000000000E+00
(PID.TID 0000.0001) %MON AngleSN_max                  =   0.0000000000000E+00
(PID.TID 0000.0001) %MON AngleSN_min                  =   0.0000000000000E+00
(PID.TID 0000.0001) %MON AngleSN_mean                 =   0.0000000000000E+00
(PID.TID 0000.0001) %MON AngleSN_sd                   =   0.0000000000000E+00
(PID.TID 0000.0001)  MDS_READ_FIELD: opening global file: topog.slope
(PID.TID 0000.0001) GAD_INIT_FIXED: GAD_OlMinSize=  2  0  1
(PID.TID 0000.0001) 
(PID.TID 0000.0001) // ===================================
(PID.TID 0000.0001) // GAD parameters :
(PID.TID 0000.0001) // ===================================
(PID.TID 0000.0001) tempAdvScheme =   /* Temp. Horiz.Advection scheme selector */
(PID.TID 0000.0001)                      33
(PID.TID 0000.0001)     ;
(PID.TID 0000.0001) tempVertAdvScheme =   /* Temp. Vert. Advection scheme selector */
(PID.TID 0000.0001)                      33
(PID.TID 0000.0001)     ;
(PID.TID 0000.0001) tempMultiDimAdvec =   /* use Muti-Dim Advec method for Temp */
(PID.TID 0000.0001)                   T
(PID.TID 0000.0001)     ;
(PID.TID 0000.0001) tempSOM_Advection = /* use 2nd Order Moment Advection for Temp */
(PID.TID 0000.0001)                   F
(PID.TID 0000.0001)     ;
(PID.TID 0000.0001) AdamsBashforthGt = /* apply Adams-Bashforth extrapolation on Gt */
(PID.TID 0000.0001)                   F
(PID.TID 0000.0001)     ;
(PID.TID 0000.0001) AdamsBashforth_T = /* apply Adams-Bashforth extrapolation on Temp */
(PID.TID 0000.0001)                   F
(PID.TID 0000.0001)     ;
(PID.TID 0000.0001) saltAdvScheme =   /* Salt. Horiz.advection scheme selector */
(PID.TID 0000.0001)                       2
(PID.TID 0000.0001)     ;
(PID.TID 0000.0001) saltVertAdvScheme =   /* Salt. Vert. Advection scheme selector */
(PID.TID 0000.0001)                       2
(PID.TID 0000.0001)     ;
(PID.TID 0000.0001) saltMultiDimAdvec =   /* use Muti-Dim Advec method for Salt */
(PID.TID 0000.0001)                   F
(PID.TID 0000.0001)     ;
(PID.TID 0000.0001) saltSOM_Advection = /* use 2nd Order Moment Advection for Salt */
(PID.TID 0000.0001)                   F
(PID.TID 0000.0001)     ;
(PID.TID 0000.0001) AdamsBashforthGs = /* apply Adams-Bashforth extrapolation on Gs */
(PID.TID 0000.0001)                   T
(PID.TID 0000.0001)     ;
(PID.TID 0000.0001) AdamsBashforth_S = /* apply Adams-Bashforth extrapolation on Salt */
(PID.TID 0000.0001)                   F
(PID.TID 0000.0001)     ;
(PID.TID 0000.0001) // ===================================
(PID.TID 0000.0001) %MON fCori_max                    =   0.0000000000000E+00
(PID.TID 0000.0001) %MON fCori_min                    =   0.0000000000000E+00
(PID.TID 0000.0001) %MON fCori_mean                   =   0.0000000000000E+00
(PID.TID 0000.0001) %MON fCori_sd                     =   0.0000000000000E+00
(PID.TID 0000.0001) %MON fCoriG_max                   =   0.0000000000000E+00
(PID.TID 0000.0001) %MON fCoriG_min                   =   0.0000000000000E+00
(PID.TID 0000.0001) %MON fCoriG_mean                  =   0.0000000000000E+00
(PID.TID 0000.0001) %MON fCoriG_sd                    =   0.0000000000000E+00
(PID.TID 0000.0001) %MON fCoriCos_max                 =   0.0000000000000E+00
(PID.TID 0000.0001) %MON fCoriCos_min                 =   0.0000000000000E+00
(PID.TID 0000.0001) %MON fCoriCos_mean                =   0.0000000000000E+00
(PID.TID 0000.0001) %MON fCoriCos_sd                  =   0.0000000000000E+00
(PID.TID 0000.0001) INI_CG2D: CG2D normalisation factor =  3.8311188275726068E-04
(PID.TID 0000.0001) 
(PID.TID 0000.0001) INI_CG3D: CG3D normalisation factor =  4.2198108575273687E-04
(PID.TID 0000.0001) 
(PID.TID 0000.0001) // =======================================================
(PID.TID 0000.0001) // Model configuration
(PID.TID 0000.0001) // =======================================================
(PID.TID 0000.0001) //
(PID.TID 0000.0001) // "Physical" paramters ( PARM01 in namelist )
(PID.TID 0000.0001) //
(PID.TID 0000.0001) buoyancyRelation = /* Type of relation to get Buoyancy */
(PID.TID 0000.0001)               'OCEANIC'
(PID.TID 0000.0001)     ;
(PID.TID 0000.0001) fluidIsAir   =  /* fluid major constituent is Air */
(PID.TID 0000.0001)                   F
(PID.TID 0000.0001)     ;
(PID.TID 0000.0001) fluidIsWater =  /* fluid major constituent is Water */
(PID.TID 0000.0001)                   T
(PID.TID 0000.0001)     ;
(PID.TID 0000.0001) usingPCoords =  /* use p (or p*) vertical coordinate */
(PID.TID 0000.0001)                   F
(PID.TID 0000.0001)     ;
(PID.TID 0000.0001) usingZCoords =  /* use z (or z*) vertical coordinate */
(PID.TID 0000.0001)                   T
(PID.TID 0000.0001)     ;
(PID.TID 0000.0001) tRef =   /* Reference temperature profile ( oC or K ) */
(PID.TID 0000.0001)    60 @  1.000000000000000E+00              /* K =  1: 60 */
(PID.TID 0000.0001)     ;
(PID.TID 0000.0001) sRef =   /* Reference salinity profile ( psu ) */
(PID.TID 0000.0001)    60 @  3.500000000000000E+01              /* K =  1: 60 */
(PID.TID 0000.0001)     ;
(PID.TID 0000.0001) useStrainTensionVisc= /* Use StrainTension Form of Viscous Operator */
(PID.TID 0000.0001)                   F
(PID.TID 0000.0001)     ;
(PID.TID 0000.0001) useVariableVisc = /* Use variable horizontal viscosity */
(PID.TID 0000.0001)                   F
(PID.TID 0000.0001)     ;
(PID.TID 0000.0001) useHarmonicVisc = /* Use harmonic horizontal viscosity */
(PID.TID 0000.0001)                   T
(PID.TID 0000.0001)     ;
(PID.TID 0000.0001) useBiharmonicVisc= /* Use biharmonic horiz.  viscosity */
(PID.TID 0000.0001)                   F
(PID.TID 0000.0001)     ;
(PID.TID 0000.0001) useSmag3D = /* Use isotropic 3-D Smagorinsky viscosity */
(PID.TID 0000.0001)                   F
(PID.TID 0000.0001)     ;
(PID.TID 0000.0001) viscAh  =   /* Lateral harmonic viscosity ( m^2/s ) */
(PID.TID 0000.0001)                 1.000000000000000E-02
(PID.TID 0000.0001)     ;
(PID.TID 0000.0001) viscAhW =   /* Lateral harmonic viscosity in W eq. ( m^2/s ) */
(PID.TID 0000.0001)                 1.000000000000000E-02
(PID.TID 0000.0001)     ;
(PID.TID 0000.0001) viscA4  =   /* Lateral biharmonic viscosity ( m^4/s ) */
(PID.TID 0000.0001)                 0.000000000000000E+00
(PID.TID 0000.0001)     ;
(PID.TID 0000.0001) viscA4W =   /* Lateral biharmonic viscosity in W eq. ( m^2/s ) */
(PID.TID 0000.0001)                 0.000000000000000E+00
(PID.TID 0000.0001)     ;
(PID.TID 0000.0001) no_slip_sides =  /* Viscous BCs: No-slip sides */
(PID.TID 0000.0001)                   T
(PID.TID 0000.0001)     ;
(PID.TID 0000.0001) sideDragFactor = /* side-drag scaling factor (non-dim) */
(PID.TID 0000.0001)                 2.000000000000000E+00
(PID.TID 0000.0001)     ;
(PID.TID 0000.0001) viscArNr = /* vertical profile of vertical viscosity ( m^2/s )*/
(PID.TID 0000.0001)    60 @  1.000000000000000E-03              /* K =  1: 60 */
(PID.TID 0000.0001)     ;
(PID.TID 0000.0001) no_slip_bottom =  /* Viscous BCs: No-slip bottom */
(PID.TID 0000.0001)                   T
(PID.TID 0000.0001)     ;
(PID.TID 0000.0001) bottomVisc_pCell = /* Partial-cell in bottom Visc. BC */
(PID.TID 0000.0001)                   F
(PID.TID 0000.0001)     ;
(PID.TID 0000.0001) bottomDragLinear = /* linear bottom-drag coefficient ( m/s ) */
(PID.TID 0000.0001)                 0.000000000000000E+00
(PID.TID 0000.0001)     ;
(PID.TID 0000.0001) bottomDragQuadratic = /* quadratic bottom-drag coefficient (-) */
(PID.TID 0000.0001)                 0.000000000000000E+00
(PID.TID 0000.0001)     ;
(PID.TID 0000.0001) selectBotDragQuadr = /* select quadratic bottom drag options */
(PID.TID 0000.0001)                      -1
(PID.TID 0000.0001)     ;
(PID.TID 0000.0001) diffKhT =   /* Laplacian diffusion of heat laterally ( m^2/s ) */
(PID.TID 0000.0001)                 0.000000000000000E+00
(PID.TID 0000.0001)     ;
(PID.TID 0000.0001) diffK4T =   /* Biharmonic diffusion of heat laterally ( m^4/s ) */
(PID.TID 0000.0001)                 0.000000000000000E+00
(PID.TID 0000.0001)     ;
(PID.TID 0000.0001) diffKhS =   /* Laplacian diffusion of salt laterally ( m^2/s ) */
(PID.TID 0000.0001)                 1.000000000000000E-02
(PID.TID 0000.0001)     ;
(PID.TID 0000.0001) diffK4S =   /* Biharmonic diffusion of salt laterally ( m^4/s ) */
(PID.TID 0000.0001)                 0.000000000000000E+00
(PID.TID 0000.0001)     ;
(PID.TID 0000.0001) diffKrNrT = /* vertical profile of vertical diffusion of Temp ( m^2/s )*/
(PID.TID 0000.0001)    60 @  0.000000000000000E+00              /* K =  1: 60 */
(PID.TID 0000.0001)     ;
(PID.TID 0000.0001) diffKrNrS = /* vertical profile of vertical diffusion of Salt ( m^2/s )*/
(PID.TID 0000.0001)    60 @  1.000000000000000E-05              /* K =  1: 60 */
(PID.TID 0000.0001)     ;
(PID.TID 0000.0001) diffKrBL79surf = /* Surface diffusion for Bryan and Lewis 79 ( m^2/s ) */
(PID.TID 0000.0001)                 0.000000000000000E+00
(PID.TID 0000.0001)     ;
(PID.TID 0000.0001) diffKrBL79deep = /* Deep diffusion for Bryan and Lewis 1979 ( m^2/s ) */
(PID.TID 0000.0001)                 0.000000000000000E+00
(PID.TID 0000.0001)     ;
(PID.TID 0000.0001) diffKrBL79scl = /* Depth scale for Bryan and Lewis 1979 ( m ) */
(PID.TID 0000.0001)                 2.000000000000000E+02
(PID.TID 0000.0001)     ;
(PID.TID 0000.0001) diffKrBL79Ho = /* Turning depth for Bryan and Lewis 1979 ( m ) */
(PID.TID 0000.0001)                -2.000000000000000E+03
(PID.TID 0000.0001)     ;
(PID.TID 0000.0001) ivdc_kappa = /* Implicit Vertical Diffusivity for Convection ( m^2/s) */
(PID.TID 0000.0001)                 0.000000000000000E+00
(PID.TID 0000.0001)     ;
(PID.TID 0000.0001) hMixCriteria=  /* Criteria for mixed-layer diagnostic */
(PID.TID 0000.0001)                -8.000000000000000E-01
(PID.TID 0000.0001)     ;
(PID.TID 0000.0001) dRhoSmall =  /* Parameter for mixed-layer diagnostic */
(PID.TID 0000.0001)                 1.000000000000000E-06
(PID.TID 0000.0001)     ;
(PID.TID 0000.0001) hMixSmooth=  /* Smoothing parameter for mixed-layer diagnostic */
(PID.TID 0000.0001)                 0.000000000000000E+00
(PID.TID 0000.0001)     ;
(PID.TID 0000.0001) eosType =  /* Type of Equation of State */
(PID.TID 0000.0001)               'LINEAR'
(PID.TID 0000.0001)     ;
(PID.TID 0000.0001) tAlpha = /* Linear EOS thermal expansion coefficient ( 1/oC ) */
(PID.TID 0000.0001)                 2.000000000000000E-04
(PID.TID 0000.0001)     ;
(PID.TID 0000.0001) sBeta  = /* Linear EOS haline contraction coefficient ( 1/psu ) */
(PID.TID 0000.0001)                 0.000000000000000E+00
(PID.TID 0000.0001)     ;
(PID.TID 0000.0001) rhoNil    = /* Reference density for Linear EOS ( kg/m^3 ) */
(PID.TID 0000.0001)                 9.998000000000000E+02
(PID.TID 0000.0001)     ;
(PID.TID 0000.0001) selectP_inEOS_Zc = /* select pressure to use in EOS (0,1,2,3) */
(PID.TID 0000.0001)                       0
(PID.TID 0000.0001)     0= -g*rhoConst*z ; 1= pRef (from tRef,sRef); 2= Hyd P ; 3= Hyd+NH P
(PID.TID 0000.0001)     ;
(PID.TID 0000.0001) HeatCapacity_Cp =  /* Specific heat capacity ( J/kg/K ) */
(PID.TID 0000.0001)                 3.994000000000000E+03
(PID.TID 0000.0001)     ;
(PID.TID 0000.0001) celsius2K = /* 0 degree Celsius converted to Kelvin ( K ) */
(PID.TID 0000.0001)                 2.731500000000000E+02
(PID.TID 0000.0001)     ;
(PID.TID 0000.0001) rhoConst  = /* Reference density (Boussinesq)  ( kg/m^3 ) */
(PID.TID 0000.0001)                 9.998000000000000E+02
(PID.TID 0000.0001)     ;
(PID.TID 0000.0001) rhoFacC = /* normalized Reference density @ cell-Center (-) */
(PID.TID 0000.0001)    60 @  1.000000000000000E+00              /* K =  1: 60 */
(PID.TID 0000.0001)     ;
(PID.TID 0000.0001) rhoFacF = /* normalized Reference density @ W-Interface (-) */
(PID.TID 0000.0001)    61 @  1.000000000000000E+00              /* K =  1: 61 */
(PID.TID 0000.0001)     ;
(PID.TID 0000.0001) rhoConstFresh = /* Fresh-water reference density ( kg/m^3 ) */
(PID.TID 0000.0001)                 9.998000000000000E+02
(PID.TID 0000.0001)     ;
(PID.TID 0000.0001) gravity =   /* Gravitational acceleration ( m/s^2 ) */
(PID.TID 0000.0001)                 9.810000000000000E+00
(PID.TID 0000.0001)     ;
(PID.TID 0000.0001) gBaro =   /* Barotropic gravity ( m/s^2 ) */
(PID.TID 0000.0001)                 9.810000000000000E+00
(PID.TID 0000.0001)     ;
(PID.TID 0000.0001) gravFacC = /* gravity factor (vs surf.) @ cell-Center (-) */
(PID.TID 0000.0001)    60 @  1.000000000000000E+00              /* K =  1: 60 */
(PID.TID 0000.0001)     ;
(PID.TID 0000.0001) gravFacF = /* gravity factor (vs surf.) @ W-Interface (-) */
(PID.TID 0000.0001)    61 @  1.000000000000000E+00              /* K =  1: 61 */
(PID.TID 0000.0001)     ;
(PID.TID 0000.0001) rotationPeriod =   /* Rotation Period ( s ) */
(PID.TID 0000.0001)                 8.616400000000000E+04
(PID.TID 0000.0001)     ;
(PID.TID 0000.0001) omega =   /* Angular velocity ( rad/s ) */
(PID.TID 0000.0001)                 7.292123516990375E-05
(PID.TID 0000.0001)     ;
(PID.TID 0000.0001) f0 =   /* Reference coriolis parameter ( 1/s ) */
(PID.TID 0000.0001)                 0.000000000000000E+00
(PID.TID 0000.0001)     ;
(PID.TID 0000.0001) beta =   /* Beta ( 1/(m.s) ) */
(PID.TID 0000.0001)                 0.000000000000000E+00
(PID.TID 0000.0001)     ;
(PID.TID 0000.0001) fPrime =   /* Second coriolis parameter ( 1/s ) */
(PID.TID 0000.0001)                 0.000000000000000E+00
(PID.TID 0000.0001)     ;
(PID.TID 0000.0001) rigidLid =   /* Rigid lid on/off flag */
(PID.TID 0000.0001)                   F
(PID.TID 0000.0001)     ;
(PID.TID 0000.0001) implicitFreeSurface =   /* Implicit free surface on/off flag */
(PID.TID 0000.0001)                   T
(PID.TID 0000.0001)     ;
(PID.TID 0000.0001) freeSurfFac =   /* Implicit free surface factor */
(PID.TID 0000.0001)                 1.000000000000000E+00
(PID.TID 0000.0001)     ;
(PID.TID 0000.0001) implicSurfPress =  /* Surface Pressure implicit factor (0-1)*/
(PID.TID 0000.0001)                 1.000000000000000E+00
(PID.TID 0000.0001)     ;
(PID.TID 0000.0001) implicDiv2DFlow =  /* Barot. Flow Div. implicit factor (0-1)*/
(PID.TID 0000.0001)                 1.000000000000000E+00
(PID.TID 0000.0001)     ;
(PID.TID 0000.0001) uniformLin_PhiSurf = /* use uniform Bo_surf on/off flag*/
(PID.TID 0000.0001)                   T
(PID.TID 0000.0001)     ;
(PID.TID 0000.0001) uniformFreeSurfLev = /* free-surface level-index is uniform */
(PID.TID 0000.0001)                   T
(PID.TID 0000.0001)     ;
(PID.TID 0000.0001) hFacMin =   /* minimum partial cell factor (hFac) */
(PID.TID 0000.0001)                 5.000000000000000E-02
(PID.TID 0000.0001)     ;
(PID.TID 0000.0001) hFacMinDr = /* minimum partial cell thickness ( m) */
(PID.TID 0000.0001)                 0.000000000000000E+00
(PID.TID 0000.0001)     ;
(PID.TID 0000.0001) exactConserv =  /* Exact Volume Conservation on/off flag*/
(PID.TID 0000.0001)                   F
(PID.TID 0000.0001)     ;
(PID.TID 0000.0001) linFSConserveTr = /* Tracer correction for Lin Free Surface on/off flag*/
(PID.TID 0000.0001)                   F
(PID.TID 0000.0001)     ;
(PID.TID 0000.0001) nonlinFreeSurf = /* Non-linear Free Surf. options (-1,0,1,2,3)*/
(PID.TID 0000.0001)                       0
(PID.TID 0000.0001)      -1,0= Off ; 1,2,3= On, 2=+rescale gU,gV, 3=+update cg2d solv.
(PID.TID 0000.0001)     ;
(PID.TID 0000.0001) hFacInf =   /* lower threshold for hFac (nonlinFreeSurf only)*/
(PID.TID 0000.0001)                 2.000000000000000E-01
(PID.TID 0000.0001)     ;
(PID.TID 0000.0001) hFacSup =   /* upper threshold for hFac (nonlinFreeSurf only)*/
(PID.TID 0000.0001)                 2.000000000000000E+00
(PID.TID 0000.0001)     ;
(PID.TID 0000.0001) select_rStar = /* r* Vertical coord. options (=0 r coord.; >0 uses r*)*/
(PID.TID 0000.0001)                       0
(PID.TID 0000.0001)     ;
(PID.TID 0000.0001) useRealFreshWaterFlux = /* Real Fresh Water Flux on/off flag*/
(PID.TID 0000.0001)                   F
(PID.TID 0000.0001)     ;
(PID.TID 0000.0001) temp_EvPrRn = /* Temp. of Evap/Prec/R (UNSET=use local T)(oC)*/
(PID.TID 0000.0001)                 1.234567000000000E+05
(PID.TID 0000.0001)     ;
(PID.TID 0000.0001) salt_EvPrRn = /* Salin. of Evap/Prec/R (UNSET=use local S)(psu)*/
(PID.TID 0000.0001)                 0.000000000000000E+00
(PID.TID 0000.0001)     ;
(PID.TID 0000.0001) selectAddFluid = /* option for mass source/sink of fluid (=0: off) */
(PID.TID 0000.0001)                       0
(PID.TID 0000.0001)     ;
(PID.TID 0000.0001) temp_addMass = /* Temp. of addMass array (UNSET=use local T)(oC)*/
(PID.TID 0000.0001)                 1.234567000000000E+05
(PID.TID 0000.0001)     ;
(PID.TID 0000.0001) salt_addMass = /* Salin. of addMass array (UNSET=use local S)(psu)*/
(PID.TID 0000.0001)                 0.000000000000000E+00
(PID.TID 0000.0001)     ;
(PID.TID 0000.0001) convertFW2Salt = /* convert F.W. Flux to Salt Flux (-1=use local S)(psu)*/
(PID.TID 0000.0001)                 3.500000000000000E+01
(PID.TID 0000.0001)     ;
(PID.TID 0000.0001) use3Dsolver = /* use 3-D pressure solver on/off flag */
(PID.TID 0000.0001)                   T
(PID.TID 0000.0001)     ;
(PID.TID 0000.0001) nonHydrostatic =  /* Non-Hydrostatic on/off flag */
(PID.TID 0000.0001)                   T
(PID.TID 0000.0001)     ;
(PID.TID 0000.0001) nh_Am2 = /* Non-Hydrostatic terms scaling factor */
(PID.TID 0000.0001)                 1.000000000000000E+00
(PID.TID 0000.0001)     ;
(PID.TID 0000.0001) implicitNHPress = /* Non-Hyd Pressure implicit factor (0-1)*/
(PID.TID 0000.0001)                 1.000000000000000E+00
(PID.TID 0000.0001)     ;
(PID.TID 0000.0001) selectNHfreeSurf = /* Non-Hyd (free-)Surface option */
(PID.TID 0000.0001)                       0
(PID.TID 0000.0001)     ;
(PID.TID 0000.0001) quasiHydrostatic = /* Quasi-Hydrostatic on/off flag */
(PID.TID 0000.0001)                   F
(PID.TID 0000.0001)     ;
(PID.TID 0000.0001) calc_wVelocity = /* vertical velocity calculation on/off flag */
(PID.TID 0000.0001)                   T
(PID.TID 0000.0001)     ;
(PID.TID 0000.0001) momStepping =  /* Momentum equation on/off flag */
(PID.TID 0000.0001)                   T
(PID.TID 0000.0001)     ;
(PID.TID 0000.0001) vectorInvariantMomentum= /* Vector-Invariant Momentum on/off */
(PID.TID 0000.0001)                   F
(PID.TID 0000.0001)     ;
(PID.TID 0000.0001) momAdvection =  /* Momentum advection on/off flag */
(PID.TID 0000.0001)                   T
(PID.TID 0000.0001)     ;
(PID.TID 0000.0001) momViscosity =  /* Momentum viscosity on/off flag */
(PID.TID 0000.0001)                   T
(PID.TID 0000.0001)     ;
(PID.TID 0000.0001) momImplVertAdv= /* Momentum implicit vert. advection on/off*/
(PID.TID 0000.0001)                   F
(PID.TID 0000.0001)     ;
(PID.TID 0000.0001) implicitViscosity = /* Implicit viscosity on/off flag */
(PID.TID 0000.0001)                   F
(PID.TID 0000.0001)     ;
(PID.TID 0000.0001) selectImplicitDrag= /* Implicit bot Drag options (0,1,2)*/
(PID.TID 0000.0001)                       0
(PID.TID 0000.0001)     0= Expl. ; 1= Impl. on provis. Vel ; 2= Fully Impl (with surf.P)
(PID.TID 0000.0001)     ;
(PID.TID 0000.0001) metricTerms =  /* metric-Terms on/off flag */
(PID.TID 0000.0001)                   F
(PID.TID 0000.0001)     ;
(PID.TID 0000.0001) useNHMTerms = /* Non-Hydrostatic Metric-Terms on/off */
(PID.TID 0000.0001)                   F
(PID.TID 0000.0001)     ;
(PID.TID 0000.0001) selectCoriMap = /* Coriolis Map options (0,1,2,3)*/
(PID.TID 0000.0001)                       1
(PID.TID 0000.0001)     0= f-Plane ; 1= Beta-Plane ; 2= Spherical ; 3= read from file
(PID.TID 0000.0001)     ;
(PID.TID 0000.0001) use3dCoriolis = /* 3-D Coriolis on/off flag */
(PID.TID 0000.0001)                   F
(PID.TID 0000.0001)     ;
(PID.TID 0000.0001) useCoriolis =  /* Coriolis on/off flag */
(PID.TID 0000.0001)                   T
(PID.TID 0000.0001)     ;
(PID.TID 0000.0001) useCDscheme =  /* CD scheme on/off flag */
(PID.TID 0000.0001)                   F
(PID.TID 0000.0001)     ;
(PID.TID 0000.0001) useEnergyConservingCoriolis= /* Flx-Form Coriolis scheme flag */
(PID.TID 0000.0001)                   F
(PID.TID 0000.0001)     ;
(PID.TID 0000.0001) useJamartWetPoints= /* Coriolis WetPoints method flag */
(PID.TID 0000.0001)                   F
(PID.TID 0000.0001)     ;
(PID.TID 0000.0001) useJamartMomAdv= /* V.I Non-linear terms Jamart flag */
(PID.TID 0000.0001)                   F
(PID.TID 0000.0001)     ;
(PID.TID 0000.0001) useAbsVorticity= /* V.I Works with f+zeta in Coriolis */
(PID.TID 0000.0001)                   F
(PID.TID 0000.0001)     ;
(PID.TID 0000.0001) selectVortScheme= /* V.I Scheme selector for Vorticity-Term */
(PID.TID 0000.0001)               123456789
(PID.TID 0000.0001)    = 0 : enstrophy (Shallow-Water Eq.) conserving scheme by Sadourny, JAS 75
(PID.TID 0000.0001)    = 1 : same as 0 with modified hFac
(PID.TID 0000.0001)    = 2 : energy conserving scheme (used by Sadourny in JAS 75 paper)
(PID.TID 0000.0001)    = 3 : energy (general) and enstrophy (2D, nonDiv.) conserving scheme
(PID.TID 0000.0001)          from Sadourny (Burridge & Haseler, ECMWF Rep.4, 1977)
(PID.TID 0000.0001)     ;
(PID.TID 0000.0001) upwindVorticity= /* V.I Upwind bias vorticity flag */
(PID.TID 0000.0001)                   F
(PID.TID 0000.0001)     ;
(PID.TID 0000.0001) highOrderVorticity= /* V.I High order vort. advect. flag */
(PID.TID 0000.0001)                   F
(PID.TID 0000.0001)     ;
(PID.TID 0000.0001) upwindShear= /* V.I Upwind vertical Shear advection flag */
(PID.TID 0000.0001)                   F
(PID.TID 0000.0001)     ;
(PID.TID 0000.0001) selectKEscheme= /* V.I Kinetic Energy scheme selector */
(PID.TID 0000.0001)                       0
(PID.TID 0000.0001)     ;
(PID.TID 0000.0001) momForcing =  /* Momentum forcing on/off flag */
(PID.TID 0000.0001)                   T
(PID.TID 0000.0001)     ;
(PID.TID 0000.0001) momTidalForcing = /* Momentum Tidal forcing on/off flag */
(PID.TID 0000.0001)                   T
(PID.TID 0000.0001)     ;
(PID.TID 0000.0001) momPressureForcing =  /* Momentum pressure term on/off flag */
(PID.TID 0000.0001)                   T
(PID.TID 0000.0001)     ;
(PID.TID 0000.0001) implicitIntGravWave= /* Implicit Internal Gravity Wave flag */
(PID.TID 0000.0001)                   F
(PID.TID 0000.0001)     ;
(PID.TID 0000.0001) staggerTimeStep =    /* Stagger time stepping on/off flag */
(PID.TID 0000.0001)                   F
(PID.TID 0000.0001)     ;
(PID.TID 0000.0001) doResetHFactors = /* reset thickness factors @ each time-step */
(PID.TID 0000.0001)                   F
(PID.TID 0000.0001)     ;
(PID.TID 0000.0001) multiDimAdvection =  /* enable/disable Multi-Dim Advection */
(PID.TID 0000.0001)                   T
(PID.TID 0000.0001)     ;
(PID.TID 0000.0001) useMultiDimAdvec =   /* Multi-Dim Advection is/is-not used */
(PID.TID 0000.0001)                   T
(PID.TID 0000.0001)     ;
(PID.TID 0000.0001) implicitDiffusion = /* Implicit Diffusion on/off flag */
(PID.TID 0000.0001)                   F
(PID.TID 0000.0001)     ;
(PID.TID 0000.0001) tempStepping =  /* Temperature equation on/off flag */
(PID.TID 0000.0001)                   T
(PID.TID 0000.0001)     ;
(PID.TID 0000.0001) tempAdvection = /* Temperature advection on/off flag */
(PID.TID 0000.0001)                   T
(PID.TID 0000.0001)     ;
(PID.TID 0000.0001) tempImplVertAdv = /* Temp. implicit vert. advection on/off */
(PID.TID 0000.0001)                   F
(PID.TID 0000.0001)     ;
(PID.TID 0000.0001) tempForcing  =  /* Temperature forcing on/off flag */
(PID.TID 0000.0001)                   T
(PID.TID 0000.0001)     ;
(PID.TID 0000.0001) doThetaClimRelax = /* apply SST relaxation on/off flag */
(PID.TID 0000.0001)                   F
(PID.TID 0000.0001)     ;
(PID.TID 0000.0001) tempIsActiveTr = /* Temp. is a dynamically Active Tracer */
(PID.TID 0000.0001)                   T
(PID.TID 0000.0001)     ;
(PID.TID 0000.0001) saltStepping =  /* Salinity equation on/off flag */
(PID.TID 0000.0001)                   T
(PID.TID 0000.0001)     ;
(PID.TID 0000.0001) saltAdvection = /* Salinity advection on/off flag */
(PID.TID 0000.0001)                   T
(PID.TID 0000.0001)     ;
(PID.TID 0000.0001) saltImplVertAdv = /* Sali. implicit vert. advection on/off */
(PID.TID 0000.0001)                   F
(PID.TID 0000.0001)     ;
(PID.TID 0000.0001) saltForcing  =  /* Salinity forcing on/off flag */
(PID.TID 0000.0001)                   T
(PID.TID 0000.0001)     ;
(PID.TID 0000.0001) doSaltClimRelax = /* apply SSS relaxation on/off flag */
(PID.TID 0000.0001)                   F
(PID.TID 0000.0001)     ;
(PID.TID 0000.0001) saltIsActiveTr = /* Salt  is a dynamically Active Tracer */
(PID.TID 0000.0001)                   F
(PID.TID 0000.0001)     ;
(PID.TID 0000.0001)  readBinaryPrec = /* Precision used for reading binary files */
(PID.TID 0000.0001)                      64
(PID.TID 0000.0001)     ;
(PID.TID 0000.0001) writeBinaryPrec = /* Precision used for writing binary files */
(PID.TID 0000.0001)                      32
(PID.TID 0000.0001)     ;
(PID.TID 0000.0001)  rwSuffixType =   /* select format of mds file suffix */
(PID.TID 0000.0001)                       0
(PID.TID 0000.0001)    = 0 : myIter (I10.10) ;   = 1 : 100*myTime (100th sec) ;
(PID.TID 0000.0001)    = 2 : myTime (seconds);   = 3 : myTime/360 (10th of hr);
(PID.TID 0000.0001)    = 4 : myTime/3600 (hours)
(PID.TID 0000.0001)     ;
(PID.TID 0000.0001)  globalFiles = /* write "global" (=not per tile) files */
(PID.TID 0000.0001)                   F
(PID.TID 0000.0001)     ;
(PID.TID 0000.0001)  useSingleCpuIO = /* only master MPI process does I/O */
(PID.TID 0000.0001)                   F
(PID.TID 0000.0001)     ;
(PID.TID 0000.0001)  useSingleCpuInput = /* only master process reads input */
(PID.TID 0000.0001)                   F
(PID.TID 0000.0001)     ;
(PID.TID 0000.0001) /* debLev[*]  : level of debug & auxiliary message printing */
(PID.TID 0000.0001) debLevZero =  0 ; /* level of disabled aux. msg printing */
(PID.TID 0000.0001)    debLevA =  1 ; /* level of minimum  aux. msg printing */
(PID.TID 0000.0001)    debLevB =  2 ; /* level of low aux. print (report read-file opening)*/
(PID.TID 0000.0001)    debLevC =  3 ; /* level of moderate debug prt (most pkgs debug msg) */
(PID.TID 0000.0001)    debLevD =  4 ; /* level of enhanced debug prt (add DEBUG_STATS prt) */
(PID.TID 0000.0001)    debLevE =  5 ; /* level of extensive debug printing */
(PID.TID 0000.0001) debugLevel =  /* select debug printing level */
(PID.TID 0000.0001)                       2
(PID.TID 0000.0001)     ;
(PID.TID 0000.0001)  plotLevel =  /* select PLOT_FIELD printing level */
(PID.TID 0000.0001)                       0
(PID.TID 0000.0001)     ;
(PID.TID 0000.0001) //
(PID.TID 0000.0001) // Elliptic solver(s) paramters ( PARM02 in namelist )
(PID.TID 0000.0001) //
(PID.TID 0000.0001) cg2dMaxIters =   /* Upper limit on 2d con. grad iterations  */
(PID.TID 0000.0001)                     300
(PID.TID 0000.0001)     ;
(PID.TID 0000.0001) cg2dChkResFreq =   /* 2d con. grad convergence test frequency */
(PID.TID 0000.0001)                       1
(PID.TID 0000.0001)     ;
(PID.TID 0000.0001) cg2dUseMinResSol= /* use cg2d last-iter(=0) / min-resid.(=1) solution */
(PID.TID 0000.0001)                       0
(PID.TID 0000.0001)     ;
(PID.TID 0000.0001) cg2dTargetResidual =   /* 2d con. grad target residual  */
(PID.TID 0000.0001)                 1.000000000000000E-13
(PID.TID 0000.0001)     ;
(PID.TID 0000.0001) cg2dTargetResWunit =   /* CG2d target residual [W units] */
(PID.TID 0000.0001)                -1.000000000000000E+00
(PID.TID 0000.0001)     ;
(PID.TID 0000.0001) cg2dPreCondFreq =   /* Freq. for updating cg2d preconditioner */
(PID.TID 0000.0001)                       1
(PID.TID 0000.0001)     ;
(PID.TID 0000.0001) useSRCGSolver =  /* use single reduction CG solver(s) */
(PID.TID 0000.0001)                   F
(PID.TID 0000.0001)     ;
(PID.TID 0000.0001) printResidualFreq = /* Freq. for printing CG residual */
(PID.TID 0000.0001)                       0
(PID.TID 0000.0001)     ;
(PID.TID 0000.0001) //
(PID.TID 0000.0001) // Time stepping paramters ( PARM03 in namelist )
(PID.TID 0000.0001) //
(PID.TID 0000.0001) deltaTMom =   /* Momentum equation timestep ( s ) */
(PID.TID 0000.0001)                 2.000000000000000E+01
(PID.TID 0000.0001)     ;
(PID.TID 0000.0001) deltaTFreeSurf = /* FreeSurface equation timestep ( s ) */
(PID.TID 0000.0001)                 2.000000000000000E+01
(PID.TID 0000.0001)     ;
(PID.TID 0000.0001) dTtracerLev =  /* Tracer equation timestep ( s ) */
(PID.TID 0000.0001)    60 @  2.000000000000000E+01              /* K =  1: 60 */
(PID.TID 0000.0001)     ;
(PID.TID 0000.0001) deltaTClock  =   /* Model clock timestep ( s ) */
(PID.TID 0000.0001)                 2.000000000000000E+01
(PID.TID 0000.0001)     ;
(PID.TID 0000.0001) cAdjFreq =   /* Convective adjustment interval ( s ) */
(PID.TID 0000.0001)                 0.000000000000000E+00
(PID.TID 0000.0001)     ;
(PID.TID 0000.0001) momForcingOutAB = /* =1: take Momentum Forcing out of Adams-Bash. stepping */
(PID.TID 0000.0001)                       0
(PID.TID 0000.0001)     ;
(PID.TID 0000.0001) tracForcingOutAB = /* =1: take T,S,pTr Forcing out of Adams-Bash. stepping */
(PID.TID 0000.0001)                       0
(PID.TID 0000.0001)     ;
(PID.TID 0000.0001) momDissip_In_AB = /* put Dissipation Tendency in Adams-Bash. stepping */
(PID.TID 0000.0001)                   T
(PID.TID 0000.0001)     ;
(PID.TID 0000.0001) doAB_onGtGs = /* apply AB on Tendencies (rather than on T,S)*/
(PID.TID 0000.0001)                   T
(PID.TID 0000.0001)     ;
(PID.TID 0000.0001) abEps =   /* Adams-Bashforth-2 stabilizing weight */
(PID.TID 0000.0001)                 1.000000000000000E-02
(PID.TID 0000.0001)     ;
(PID.TID 0000.0001) applyExchUV_early = /* Apply EXCH to U,V earlier in time-step */
(PID.TID 0000.0001)                   F
(PID.TID 0000.0001)     ;
(PID.TID 0000.0001) pickupStrictlyMatch= /* stop if pickup do not strictly match */
(PID.TID 0000.0001)                   T
(PID.TID 0000.0001)     ;
(PID.TID 0000.0001) nIter0   =   /* Run starting timestep number */
(PID.TID 0000.0001)                       0
(PID.TID 0000.0001)     ;
(PID.TID 0000.0001) nTimeSteps = /* Number of timesteps */
(PID.TID 0000.0001)                      20
(PID.TID 0000.0001)     ;
(PID.TID 0000.0001) nEndIter =   /* Run ending timestep number */
(PID.TID 0000.0001)                      20
(PID.TID 0000.0001)     ;
(PID.TID 0000.0001) baseTime =   /* Model base time ( s ) */
(PID.TID 0000.0001)                 0.000000000000000E+00
(PID.TID 0000.0001)     ;
(PID.TID 0000.0001) startTime =  /* Run start time ( s ) */
(PID.TID 0000.0001)                 0.000000000000000E+00
(PID.TID 0000.0001)     ;
(PID.TID 0000.0001) endTime  =   /* Integration ending time ( s ) */
(PID.TID 0000.0001)                 4.000000000000000E+02
(PID.TID 0000.0001)     ;
(PID.TID 0000.0001) pChkPtFreq = /* Permanent restart/pickup file interval ( s ) */
(PID.TID 0000.0001)                 0.000000000000000E+00
(PID.TID 0000.0001)     ;
(PID.TID 0000.0001) chkPtFreq  = /* Rolling restart/pickup file interval ( s ) */
(PID.TID 0000.0001)                 0.000000000000000E+00
(PID.TID 0000.0001)     ;
(PID.TID 0000.0001) pickup_write_mdsio =   /* Model IO flag. */
(PID.TID 0000.0001)                   T
(PID.TID 0000.0001)     ;
(PID.TID 0000.0001) pickup_read_mdsio =   /* Model IO flag. */
(PID.TID 0000.0001)                   T
(PID.TID 0000.0001)     ;
(PID.TID 0000.0001) writePickupAtEnd =   /* Model IO flag. */
(PID.TID 0000.0001)                   T
(PID.TID 0000.0001)     ;
(PID.TID 0000.0001) dumpFreq =   /* Model state write out interval ( s ). */
(PID.TID 0000.0001)                 6.000000000000000E+03
(PID.TID 0000.0001)     ;
(PID.TID 0000.0001) dumpInitAndLast= /* write out Initial & Last iter. model state */
(PID.TID 0000.0001)                   T
(PID.TID 0000.0001)     ;
(PID.TID 0000.0001) snapshot_mdsio =   /* Model IO flag. */
(PID.TID 0000.0001)                   T
(PID.TID 0000.0001)     ;
(PID.TID 0000.0001) monitorFreq =   /* Monitor output interval ( s ). */
(PID.TID 0000.0001)                 1.000000000000000E+00
(PID.TID 0000.0001)     ;
(PID.TID 0000.0001) monitorSelect = /* select group of variables to monitor */
(PID.TID 0000.0001)                       2
(PID.TID 0000.0001)     ;
(PID.TID 0000.0001) monitor_stdio =   /* Model IO flag. */
(PID.TID 0000.0001)                   T
(PID.TID 0000.0001)     ;
(PID.TID 0000.0001) externForcingPeriod =   /* forcing period (s) */
(PID.TID 0000.0001)                 0.000000000000000E+00
(PID.TID 0000.0001)     ;
(PID.TID 0000.0001) externForcingCycle =   /* period of the cyle (s). */
(PID.TID 0000.0001)                 0.000000000000000E+00
(PID.TID 0000.0001)     ;
(PID.TID 0000.0001) tauThetaClimRelax =   /* relaxation time scale (s) */
(PID.TID 0000.0001)                 0.000000000000000E+00
(PID.TID 0000.0001)     ;
(PID.TID 0000.0001) tauSaltClimRelax =   /* relaxation time scale (s) */
(PID.TID 0000.0001)                 0.000000000000000E+00
(PID.TID 0000.0001)     ;
(PID.TID 0000.0001) latBandClimRelax =   /* max. Lat. where relaxation */
(PID.TID 0000.0001)                 6.000000000000000E+02
(PID.TID 0000.0001)     ;
(PID.TID 0000.0001) //
(PID.TID 0000.0001) // Gridding paramters ( PARM04 in namelist )
(PID.TID 0000.0001) //
(PID.TID 0000.0001) usingCartesianGrid = /* Cartesian coordinates flag ( True/False ) */
(PID.TID 0000.0001)                   T
(PID.TID 0000.0001)     ;
(PID.TID 0000.0001) usingCylindricalGrid = /* Cylindrical coordinates flag ( True/False ) */
(PID.TID 0000.0001)                   F
(PID.TID 0000.0001)     ;
(PID.TID 0000.0001) usingSphericalPolarGrid = /* Spherical coordinates flag ( True/False ) */
(PID.TID 0000.0001)                   F
(PID.TID 0000.0001)     ;
(PID.TID 0000.0001) usingCurvilinearGrid = /* Curvilinear coordinates flag ( True/False ) */
(PID.TID 0000.0001)                   F
(PID.TID 0000.0001)     ;
(PID.TID 0000.0001) useMin4hFacEdges = /* set hFacW,S as minimum of adjacent hFacC factor */
(PID.TID 0000.0001)                   F
(PID.TID 0000.0001)     ;
(PID.TID 0000.0001) interViscAr_pCell = /* account for partial-cell in interior vert. viscosity */
(PID.TID 0000.0001)                   F
(PID.TID 0000.0001)     ;
(PID.TID 0000.0001) interDiffKr_pCell = /* account for partial-cell in interior vert. diffusion */
(PID.TID 0000.0001)                   F
(PID.TID 0000.0001)     ;
(PID.TID 0000.0001) pCellMix_select = /* option to enhance mixing near surface & bottom */
(PID.TID 0000.0001)                       0
(PID.TID 0000.0001)     ;
(PID.TID 0000.0001) selectSigmaCoord = /* Hybrid-Sigma Vert. Coordinate option */
(PID.TID 0000.0001)                       0
(PID.TID 0000.0001)     ;
(PID.TID 0000.0001) rSigmaBnd = /* r/sigma transition ( units of r ==  m ) */
(PID.TID 0000.0001)                 1.234567000000000E+05
(PID.TID 0000.0001)     ;
(PID.TID 0000.0001) rkSign =   /* index orientation relative to vertical coordinate */
(PID.TID 0000.0001)                -1.000000000000000E+00
(PID.TID 0000.0001)     ;
(PID.TID 0000.0001) gravitySign = /* gravity orientation relative to vertical coordinate */
(PID.TID 0000.0001)                -1.000000000000000E+00
(PID.TID 0000.0001)     ;
(PID.TID 0000.0001) seaLev_Z =  /* reference height of sea-level [m] */
(PID.TID 0000.0001)                 0.000000000000000E+00
(PID.TID 0000.0001)     ;
(PID.TID 0000.0001) top_Pres =  /* reference pressure at the top [Pa] */
(PID.TID 0000.0001)                 0.000000000000000E+00
(PID.TID 0000.0001)     ;
(PID.TID 0000.0001) mass2rUnit = /* convert mass per unit area [kg/m2] to r-units [m] */
(PID.TID 0000.0001)                 1.000200040008002E-03
(PID.TID 0000.0001)     ;
(PID.TID 0000.0001) rUnit2mass = /* convert r-units [m] to mass per unit area [kg/m2] */
(PID.TID 0000.0001)                 9.998000000000000E+02
(PID.TID 0000.0001)     ;
(PID.TID 0000.0001) drC =   /* C spacing ( units of r ) */
(PID.TID 0000.0001)                 1.666666666666667E+00,      /* K =  1 */
(PID.TID 0000.0001)    59 @  3.333333333333333E+00,             /* K =  2: 60 */
(PID.TID 0000.0001)                 1.666666666666667E+00       /* K = 61 */
(PID.TID 0000.0001)     ;
(PID.TID 0000.0001) drF =   /* W spacing ( units of r ) */
(PID.TID 0000.0001)    60 @  3.333333333333333E+00              /* K =  1: 60 */
(PID.TID 0000.0001)     ;
(PID.TID 0000.0001) delX = /* U spacing ( m - cartesian, degrees - spherical ) */
(PID.TID 0000.0001)                 1.333350557843028E+01,      /* I =  1 */
(PID.TID 0000.0001)                 1.333351440956528E+01,      /* I =  2 */
(PID.TID 0000.0001)                 1.333352369347595E+01,      /* I =  3 */
(PID.TID 0000.0001)      . . .
(PID.TID 0000.0001)                 1.334142525413410E+01,      /* I = 78 */
(PID.TID 0000.0001)                 1.334184000343805E+01,      /* I = 79 */
(PID.TID 0000.0001)                 1.334227600347911E+01,      /* I = 80 */
(PID.TID 0000.0001)                 1.334273434234323E+01,      /* I = 81 */
(PID.TID 0000.0001)                 1.334321616375004E+01,      /* I = 82 */
(PID.TID 0000.0001)                 1.334372266988904E+01,      /* I = 83 */
(PID.TID 0000.0001)      . . .
(PID.TID 0000.0001)                 1.376806664990509E+01,      /* I =158 */
(PID.TID 0000.0001)                 1.378997422175274E+01,      /* I =159 */
(PID.TID 0000.0001)                 1.381296559898911E+01,      /* I =160 */
(PID.TID 0000.0001)                 1.383709231832104E+01,      /* I =161 */
(PID.TID 0000.0001)                 1.386240815290873E+01,      /* I =162 */
(PID.TID 0000.0001)                 1.388896918716481E+01,      /* I =163 */
(PID.TID 0000.0001)      . . .
(PID.TID 0000.0001)                 2.600055500056160E+01,      /* I =238 */
(PID.TID 0000.0001)                 2.633340276042106E+01,      /* I =239 */
(PID.TID 0000.0001)                 2.666666666666666E+01,      /* I =240 */
(PID.TID 0000.0001)                 2.699993057291228E+01,      /* I =241 */
(PID.TID 0000.0001)                 2.733277833277173E+01,      /* I =242 */
(PID.TID 0000.0001)                 2.766479587583332E+01,      /* I =243 */
(PID.TID 0000.0001)      . . .
(PID.TID 0000.0001)                 3.947092518042460E+01,      /* I =318 */
(PID.TID 0000.0001)                 3.949624101501229E+01,      /* I =319 */
(PID.TID 0000.0001)                 3.952036773434423E+01       /* I =320 */
(PID.TID 0000.0001)     ;
(PID.TID 0000.0001) delY = /* V spacing ( m - cartesian, degrees - spherical ) */
(PID.TID 0000.0001)                 2.000000000000000E+02       /* J =  1 */
(PID.TID 0000.0001)     ;
(PID.TID 0000.0001) xgOrigin = /* X-axis origin of West  edge (cartesian: m, lat-lon: deg) */
(PID.TID 0000.0001)                 0.000000000000000E+00
(PID.TID 0000.0001)     ;
(PID.TID 0000.0001) ygOrigin = /* Y-axis origin of South edge (cartesian: m, lat-lon: deg) */
(PID.TID 0000.0001)                 0.000000000000000E+00
(PID.TID 0000.0001)     ;
(PID.TID 0000.0001) rSphere =  /* Radius ( ignored - cartesian, m - spherical ) */
(PID.TID 0000.0001)                 6.370000000000000E+06
(PID.TID 0000.0001)     ;
(PID.TID 0000.0001) deepAtmosphere = /* Deep/Shallow Atmosphere flag (True/False) */
(PID.TID 0000.0001)                   F
(PID.TID 0000.0001)     ;
(PID.TID 0000.0001) xC =  /* xC(:,1,:,1) : P-point X coord ( deg. or m if cartesian) */
(PID.TID 0000.0001)                 6.666752789215142E+00,      /* I =  1 */
(PID.TID 0000.0001)                 2.000026278321292E+01,      /* I =  2 */
(PID.TID 0000.0001)                 3.333378183473354E+01,      /* I =  3 */
(PID.TID 0000.0001)      . . .
(PID.TID 0000.0001)                 1.033491870505545E+03,      /* I = 78 */
(PID.TID 0000.0001)                 1.046833503134331E+03,      /* I = 79 */
(PID.TID 0000.0001)                 1.060175561137789E+03,      /* I = 80 */
(PID.TID 0000.0001)                 1.073518066310700E+03,      /* I = 81 */
(PID.TID 0000.0001)                 1.086861041563747E+03,      /* I = 82 */
(PID.TID 0000.0001)                 1.100204510980566E+03,      /* I = 83 */
(PID.TID 0000.0001)      . . .
(PID.TID 0000.0001)                 2.108764740818271E+03,      /* I =158 */
(PID.TID 0000.0001)                 2.122543761254100E+03,      /* I =159 */
(PID.TID 0000.0001)                 2.136345231164471E+03,      /* I =160 */
(PID.TID 0000.0001)                 2.150170260123126E+03,      /* I =161 */
(PID.TID 0000.0001)                 2.164020010358741E+03,      /* I =162 */
(PID.TID 0000.0001)                 2.177895699028778E+03,      /* I =163 */
(PID.TID 0000.0001)      . . .
(PID.TID 0000.0001)                 3.510369234886317E+03,      /* I =238 */
(PID.TID 0000.0001)                 3.536536213766808E+03,      /* I =239 */
(PID.TID 0000.0001)                 3.563036248480352E+03,      /* I =240 */
(PID.TID 0000.0001)                 3.589869547100142E+03,      /* I =241 */
(PID.TID 0000.0001)                 3.617035901552984E+03,      /* I =242 */
(PID.TID 0000.0001)                 3.644534688657286E+03,      /* I =243 */
(PID.TID 0000.0001)      . . .
(PID.TID 0000.0001)                 6.324020010358740E+03,      /* I =318 */
(PID.TID 0000.0001)                 6.363503593456458E+03,      /* I =319 */
(PID.TID 0000.0001)                 6.403011897831137E+03       /* I =320 */
(PID.TID 0000.0001)     ;
(PID.TID 0000.0001) yC =  /* yC(1,:,1,:) : P-point Y coord ( deg. or m if cartesian) */
(PID.TID 0000.0001)                 1.000000000000000E+02       /* J =  1 */
(PID.TID 0000.0001)     ;
(PID.TID 0000.0001) rcoord = /* P-point R coordinate (  units of r ) */
(PID.TID 0000.0001)                -1.666666666666667E+00,      /* K =  1 */
(PID.TID 0000.0001)                -5.000000000000000E+00,      /* K =  2 */
(PID.TID 0000.0001)                -8.333333333333334E+00,      /* K =  3 */
(PID.TID 0000.0001)                -1.166666666666667E+01,      /* K =  4 */
(PID.TID 0000.0001)                -1.500000000000000E+01,      /* K =  5 */
(PID.TID 0000.0001)                -1.833333333333334E+01,      /* K =  6 */
(PID.TID 0000.0001)                -2.166666666666667E+01,      /* K =  7 */
(PID.TID 0000.0001)                -2.500000000000000E+01,      /* K =  8 */
(PID.TID 0000.0001)                -2.833333333333333E+01,      /* K =  9 */
(PID.TID 0000.0001)                -3.166666666666666E+01,      /* K = 10 */
(PID.TID 0000.0001)                -3.500000000000000E+01,      /* K = 11 */
(PID.TID 0000.0001)                -3.833333333333334E+01,      /* K = 12 */
(PID.TID 0000.0001)                -4.166666666666667E+01,      /* K = 13 */
(PID.TID 0000.0001)                -4.500000000000001E+01,      /* K = 14 */
(PID.TID 0000.0001)                -4.833333333333334E+01,      /* K = 15 */
(PID.TID 0000.0001)                -5.166666666666668E+01,      /* K = 16 */
(PID.TID 0000.0001)                -5.500000000000001E+01,      /* K = 17 */
(PID.TID 0000.0001)                -5.833333333333335E+01,      /* K = 18 */
(PID.TID 0000.0001)                -6.166666666666669E+01,      /* K = 19 */
(PID.TID 0000.0001)                -6.500000000000001E+01,      /* K = 20 */
(PID.TID 0000.0001)                -6.833333333333334E+01,      /* K = 21 */
(PID.TID 0000.0001)                -7.166666666666667E+01,      /* K = 22 */
(PID.TID 0000.0001)                -7.500000000000000E+01,      /* K = 23 */
(PID.TID 0000.0001)                -7.833333333333333E+01,      /* K = 24 */
(PID.TID 0000.0001)                -8.166666666666666E+01,      /* K = 25 */
(PID.TID 0000.0001)                -8.499999999999999E+01,      /* K = 26 */
(PID.TID 0000.0001)                -8.833333333333331E+01,      /* K = 27 */
(PID.TID 0000.0001)                -9.166666666666664E+01,      /* K = 28 */
(PID.TID 0000.0001)                -9.499999999999997E+01,      /* K = 29 */
(PID.TID 0000.0001)                -9.833333333333330E+01,      /* K = 30 */
(PID.TID 0000.0001)                -1.016666666666666E+02,      /* K = 31 */
(PID.TID 0000.0001)                -1.050000000000000E+02,      /* K = 32 */
(PID.TID 0000.0001)                -1.083333333333333E+02,      /* K = 33 */
(PID.TID 0000.0001)                -1.116666666666666E+02,      /* K = 34 */
(PID.TID 0000.0001)                -1.149999999999999E+02,      /* K = 35 */
(PID.TID 0000.0001)                -1.183333333333333E+02,      /* K = 36 */
(PID.TID 0000.0001)                -1.216666666666666E+02,      /* K = 37 */
(PID.TID 0000.0001)                -1.249999999999999E+02,      /* K = 38 */
(PID.TID 0000.0001)                -1.283333333333333E+02,      /* K = 39 */
(PID.TID 0000.0001)                -1.316666666666666E+02,      /* K = 40 */
(PID.TID 0000.0001)                -1.349999999999999E+02,      /* K = 41 */
(PID.TID 0000.0001)                -1.383333333333333E+02,      /* K = 42 */
(PID.TID 0000.0001)                -1.416666666666666E+02,      /* K = 43 */
(PID.TID 0000.0001)                -1.450000000000000E+02,      /* K = 44 */
(PID.TID 0000.0001)                -1.483333333333333E+02,      /* K = 45 */
(PID.TID 0000.0001)                -1.516666666666667E+02,      /* K = 46 */
(PID.TID 0000.0001)                -1.550000000000000E+02,      /* K = 47 */
(PID.TID 0000.0001)                -1.583333333333333E+02,      /* K = 48 */
(PID.TID 0000.0001)                -1.616666666666667E+02,      /* K = 49 */
(PID.TID 0000.0001)                -1.650000000000000E+02,      /* K = 50 */
(PID.TID 0000.0001)                -1.683333333333334E+02,      /* K = 51 */
(PID.TID 0000.0001)                -1.716666666666667E+02,      /* K = 52 */
(PID.TID 0000.0001)                -1.750000000000001E+02,      /* K = 53 */
(PID.TID 0000.0001)                -1.783333333333334E+02,      /* K = 54 */
(PID.TID 0000.0001)                -1.816666666666667E+02,      /* K = 55 */
(PID.TID 0000.0001)                -1.850000000000001E+02,      /* K = 56 */
(PID.TID 0000.0001)                -1.883333333333334E+02,      /* K = 57 */
(PID.TID 0000.0001)                -1.916666666666668E+02,      /* K = 58 */
(PID.TID 0000.0001)                -1.950000000000001E+02,      /* K = 59 */
(PID.TID 0000.0001)                -1.983333333333335E+02       /* K = 60 */
(PID.TID 0000.0001)     ;
(PID.TID 0000.0001) rF =   /* W-Interf. R coordinate (  units of r ) */
(PID.TID 0000.0001)                 0.000000000000000E+00,      /* K =  1 */
(PID.TID 0000.0001)                -3.333333333333333E+00,      /* K =  2 */
(PID.TID 0000.0001)                -6.666666666666667E+00,      /* K =  3 */
(PID.TID 0000.0001)                -1.000000000000000E+01,      /* K =  4 */
(PID.TID 0000.0001)                -1.333333333333333E+01,      /* K =  5 */
(PID.TID 0000.0001)                -1.666666666666667E+01,      /* K =  6 */
(PID.TID 0000.0001)                -2.000000000000000E+01,      /* K =  7 */
(PID.TID 0000.0001)                -2.333333333333333E+01,      /* K =  8 */
(PID.TID 0000.0001)                -2.666666666666666E+01,      /* K =  9 */
(PID.TID 0000.0001)                -3.000000000000000E+01,      /* K = 10 */
(PID.TID 0000.0001)                -3.333333333333333E+01,      /* K = 11 */
(PID.TID 0000.0001)                -3.666666666666666E+01,      /* K = 12 */
(PID.TID 0000.0001)                -4.000000000000000E+01,      /* K = 13 */
(PID.TID 0000.0001)                -4.333333333333334E+01,      /* K = 14 */
(PID.TID 0000.0001)                -4.666666666666667E+01,      /* K = 15 */
(PID.TID 0000.0001)                -5.000000000000001E+01,      /* K = 16 */
(PID.TID 0000.0001)                -5.333333333333334E+01,      /* K = 17 */
(PID.TID 0000.0001)                -5.666666666666668E+01,      /* K = 18 */
(PID.TID 0000.0001)                -6.000000000000001E+01,      /* K = 19 */
(PID.TID 0000.0001)                -6.333333333333335E+01,      /* K = 20 */
(PID.TID 0000.0001)                -6.666666666666669E+01,      /* K = 21 */
(PID.TID 0000.0001)                -7.000000000000001E+01,      /* K = 22 */
(PID.TID 0000.0001)                -7.333333333333334E+01,      /* K = 23 */
(PID.TID 0000.0001)                -7.666666666666667E+01,      /* K = 24 */
(PID.TID 0000.0001)                -8.000000000000000E+01,      /* K = 25 */
(PID.TID 0000.0001)                -8.333333333333333E+01,      /* K = 26 */
(PID.TID 0000.0001)                -8.666666666666666E+01,      /* K = 27 */
(PID.TID 0000.0001)                -8.999999999999999E+01,      /* K = 28 */
(PID.TID 0000.0001)                -9.333333333333331E+01,      /* K = 29 */
(PID.TID 0000.0001)                -9.666666666666664E+01,      /* K = 30 */
(PID.TID 0000.0001)                -9.999999999999997E+01,      /* K = 31 */
(PID.TID 0000.0001)                -1.033333333333333E+02,      /* K = 32 */
(PID.TID 0000.0001)                -1.066666666666666E+02,      /* K = 33 */
(PID.TID 0000.0001)                -1.100000000000000E+02,      /* K = 34 */
(PID.TID 0000.0001)                -1.133333333333333E+02,      /* K = 35 */
(PID.TID 0000.0001)                -1.166666666666666E+02,      /* K = 36 */
(PID.TID 0000.0001)                -1.199999999999999E+02,      /* K = 37 */
(PID.TID 0000.0001)                -1.233333333333333E+02,      /* K = 38 */
(PID.TID 0000.0001)                -1.266666666666666E+02,      /* K = 39 */
(PID.TID 0000.0001)                -1.299999999999999E+02,      /* K = 40 */
(PID.TID 0000.0001)                -1.333333333333333E+02,      /* K = 41 */
(PID.TID 0000.0001)                -1.366666666666666E+02,      /* K = 42 */
(PID.TID 0000.0001)                -1.400000000000000E+02,      /* K = 43 */
(PID.TID 0000.0001)                -1.433333333333333E+02,      /* K = 44 */
(PID.TID 0000.0001)                -1.466666666666667E+02,      /* K = 45 */
(PID.TID 0000.0001)                -1.500000000000000E+02,      /* K = 46 */
(PID.TID 0000.0001)                -1.533333333333333E+02,      /* K = 47 */
(PID.TID 0000.0001)                -1.566666666666667E+02,      /* K = 48 */
(PID.TID 0000.0001)                -1.600000000000000E+02,      /* K = 49 */
(PID.TID 0000.0001)                -1.633333333333334E+02,      /* K = 50 */
(PID.TID 0000.0001)                -1.666666666666667E+02,      /* K = 51 */
(PID.TID 0000.0001)                -1.700000000000001E+02,      /* K = 52 */
(PID.TID 0000.0001)                -1.733333333333334E+02,      /* K = 53 */
(PID.TID 0000.0001)                -1.766666666666667E+02,      /* K = 54 */
(PID.TID 0000.0001)                -1.800000000000001E+02,      /* K = 55 */
(PID.TID 0000.0001)                -1.833333333333334E+02,      /* K = 56 */
(PID.TID 0000.0001)                -1.866666666666668E+02,      /* K = 57 */
(PID.TID 0000.0001)                -1.900000000000001E+02,      /* K = 58 */
(PID.TID 0000.0001)                -1.933333333333335E+02,      /* K = 59 */
(PID.TID 0000.0001)                -1.966666666666668E+02,      /* K = 60 */
(PID.TID 0000.0001)                -2.000000000000001E+02       /* K = 61 */
(PID.TID 0000.0001)     ;
(PID.TID 0000.0001) deepFacC = /* deep-model grid factor @ cell-Center (-) */
(PID.TID 0000.0001)    60 @  1.000000000000000E+00              /* K =  1: 60 */
(PID.TID 0000.0001)     ;
(PID.TID 0000.0001) deepFacF = /* deep-model grid factor @ W-Interface (-) */
(PID.TID 0000.0001)    61 @  1.000000000000000E+00              /* K =  1: 61 */
(PID.TID 0000.0001)     ;
(PID.TID 0000.0001) rVel2wUnit = /* convert units: rVel -> wSpeed (=1 if z-coord)*/
(PID.TID 0000.0001)    61 @  1.000000000000000E+00              /* K =  1: 61 */
(PID.TID 0000.0001)     ;
(PID.TID 0000.0001) wUnit2rVel = /* convert units: wSpeed -> rVel (=1 if z-coord)*/
(PID.TID 0000.0001)    61 @  1.000000000000000E+00              /* K =  1: 61 */
(PID.TID 0000.0001)     ;
(PID.TID 0000.0001) dBdrRef = /* Vertical grad. of reference buoyancy [(m/s/r)^2] */
(PID.TID 0000.0001)    60 @  0.000000000000000E+00              /* K =  1: 60 */
(PID.TID 0000.0001)     ;
(PID.TID 0000.0001) rotateGrid = /* use rotated grid ( True/False ) */
(PID.TID 0000.0001)                   F
(PID.TID 0000.0001)     ;
(PID.TID 0000.0001) phiEuler = /* Euler angle, rotation about original z-coordinate [rad] */
(PID.TID 0000.0001)                 0.000000000000000E+00
(PID.TID 0000.0001)     ;
(PID.TID 0000.0001) thetaEuler = /* Euler angle, rotation about new x-coordinate [rad] */
(PID.TID 0000.0001)                 0.000000000000000E+00
(PID.TID 0000.0001)     ;
(PID.TID 0000.0001) psiEuler = /* Euler angle, rotation about new z-coordinate [rad] */
(PID.TID 0000.0001)                 0.000000000000000E+00
(PID.TID 0000.0001)     ;
(PID.TID 0000.0001) dxF =  /* dxF(:,1,:,1) ( units: m ) */
(PID.TID 0000.0001)                 1.333350557843028E+01,      /* I =  1 */
(PID.TID 0000.0001)                 1.333351440956528E+01,      /* I =  2 */
(PID.TID 0000.0001)                 1.333352369347595E+01,      /* I =  3 */
(PID.TID 0000.0001)      . . .
(PID.TID 0000.0001)                 1.334142525413410E+01,      /* I = 78 */
(PID.TID 0000.0001)                 1.334184000343805E+01,      /* I = 79 */
(PID.TID 0000.0001)                 1.334227600347911E+01,      /* I = 80 */
(PID.TID 0000.0001)                 1.334273434234323E+01,      /* I = 81 */
(PID.TID 0000.0001)                 1.334321616375004E+01,      /* I = 82 */
(PID.TID 0000.0001)                 1.334372266988904E+01,      /* I = 83 */
(PID.TID 0000.0001)      . . .
(PID.TID 0000.0001)                 1.376806664990509E+01,      /* I =158 */
(PID.TID 0000.0001)                 1.378997422175274E+01,      /* I =159 */
(PID.TID 0000.0001)                 1.381296559898911E+01,      /* I =160 */
(PID.TID 0000.0001)                 1.383709231832104E+01,      /* I =161 */
(PID.TID 0000.0001)                 1.386240815290873E+01,      /* I =162 */
(PID.TID 0000.0001)                 1.388896918716481E+01,      /* I =163 */
(PID.TID 0000.0001)      . . .
(PID.TID 0000.0001)                 2.600055500056160E+01,      /* I =238 */
(PID.TID 0000.0001)                 2.633340276042106E+01,      /* I =239 */
(PID.TID 0000.0001)                 2.666666666666666E+01,      /* I =240 */
(PID.TID 0000.0001)                 2.699993057291228E+01,      /* I =241 */
(PID.TID 0000.0001)                 2.733277833277173E+01,      /* I =242 */
(PID.TID 0000.0001)                 2.766479587583332E+01,      /* I =243 */
(PID.TID 0000.0001)      . . .
(PID.TID 0000.0001)                 3.947092518042460E+01,      /* I =318 */
(PID.TID 0000.0001)                 3.949624101501229E+01,      /* I =319 */
(PID.TID 0000.0001)                 3.952036773434423E+01       /* I =320 */
(PID.TID 0000.0001)     ;
(PID.TID 0000.0001) dxF =  /* dxF(1,:,1,:) ( units: m ) */
(PID.TID 0000.0001)                 1.333350557843028E+01       /* J =  1 */
(PID.TID 0000.0001)     ;
(PID.TID 0000.0001) dyF =  /* dyF(:,1,:,1) ( units: m ) */
(PID.TID 0000.0001)   320 @  2.000000000000000E+02              /* I =  1:320 */
(PID.TID 0000.0001)     ;
(PID.TID 0000.0001) dyF =  /* dyF(1,:,1,:) ( units: m ) */
(PID.TID 0000.0001)                 2.000000000000000E+02       /* J =  1 */
(PID.TID 0000.0001)     ;
(PID.TID 0000.0001) dxG =  /* dxG(:,1,:,1) ( units: m ) */
(PID.TID 0000.0001)                 1.333350557843028E+01,      /* I =  1 */
(PID.TID 0000.0001)                 1.333351440956528E+01,      /* I =  2 */
(PID.TID 0000.0001)                 1.333352369347595E+01,      /* I =  3 */
(PID.TID 0000.0001)      . . .
(PID.TID 0000.0001)                 1.334142525413410E+01,      /* I = 78 */
(PID.TID 0000.0001)                 1.334184000343805E+01,      /* I = 79 */
(PID.TID 0000.0001)                 1.334227600347911E+01,      /* I = 80 */
(PID.TID 0000.0001)                 1.334273434234323E+01,      /* I = 81 */
(PID.TID 0000.0001)                 1.334321616375004E+01,      /* I = 82 */
(PID.TID 0000.0001)                 1.334372266988904E+01,      /* I = 83 */
(PID.TID 0000.0001)      . . .
(PID.TID 0000.0001)                 1.376806664990509E+01,      /* I =158 */
(PID.TID 0000.0001)                 1.378997422175274E+01,      /* I =159 */
(PID.TID 0000.0001)                 1.381296559898911E+01,      /* I =160 */
(PID.TID 0000.0001)                 1.383709231832104E+01,      /* I =161 */
(PID.TID 0000.0001)                 1.386240815290873E+01,      /* I =162 */
(PID.TID 0000.0001)                 1.388896918716481E+01,      /* I =163 */
(PID.TID 0000.0001)      . . .
(PID.TID 0000.0001)                 2.600055500056160E+01,      /* I =238 */
(PID.TID 0000.0001)                 2.633340276042106E+01,      /* I =239 */
(PID.TID 0000.0001)                 2.666666666666666E+01,      /* I =240 */
(PID.TID 0000.0001)                 2.699993057291228E+01,      /* I =241 */
(PID.TID 0000.0001)                 2.733277833277173E+01,      /* I =242 */
(PID.TID 0000.0001)                 2.766479587583332E+01,      /* I =243 */
(PID.TID 0000.0001)      . . .
(PID.TID 0000.0001)                 3.947092518042460E+01,      /* I =318 */
(PID.TID 0000.0001)                 3.949624101501229E+01,      /* I =319 */
(PID.TID 0000.0001)                 3.952036773434423E+01       /* I =320 */
(PID.TID 0000.0001)     ;
(PID.TID 0000.0001) dxG =  /* dxG(1,:,1,:) ( units: m ) */
(PID.TID 0000.0001)                 1.333350557843028E+01       /* J =  1 */
(PID.TID 0000.0001)     ;
(PID.TID 0000.0001) dyG =  /* dyG(:,1,:,1) ( units: m ) */
(PID.TID 0000.0001)   320 @  2.000000000000000E+02              /* I =  1:320 */
(PID.TID 0000.0001)     ;
(PID.TID 0000.0001) dyG =  /* dyG(1,:,1,:) ( units: m ) */
(PID.TID 0000.0001)                 2.000000000000000E+02       /* J =  1 */
(PID.TID 0000.0001)     ;
(PID.TID 0000.0001) dxC =  /* dxC(:,1,:,1) ( units: m ) */
(PID.TID 0000.0001)                 2.642693665638726E+01,      /* I =  1 */
(PID.TID 0000.0001)                 1.333350999399778E+01,      /* I =  2 */
(PID.TID 0000.0001)                 1.333351905152062E+01,      /* I =  3 */
(PID.TID 0000.0001)      . . .
(PID.TID 0000.0001)                 1.334122798727485E+01,      /* I = 78 */
(PID.TID 0000.0001)                 1.334163262878608E+01,      /* I = 79 */
(PID.TID 0000.0001)                 1.334205800345858E+01,      /* I = 80 */
(PID.TID 0000.0001)                 1.334250517291117E+01,      /* I = 81 */
(PID.TID 0000.0001)                 1.334297525304664E+01,      /* I = 82 */
(PID.TID 0000.0001)                 1.334346941681954E+01,      /* I = 83 */
(PID.TID 0000.0001)      . . .
(PID.TID 0000.0001)                 1.375763007933133E+01,      /* I =158 */
(PID.TID 0000.0001)                 1.377902043582892E+01,      /* I =159 */
(PID.TID 0000.0001)                 1.380146991037093E+01,      /* I =160 */
(PID.TID 0000.0001)                 1.382502895865507E+01,      /* I =161 */
(PID.TID 0000.0001)                 1.384975023561489E+01,      /* I =162 */
(PID.TID 0000.0001)                 1.387568867003677E+01,      /* I =163 */
(PID.TID 0000.0001)      . . .
(PID.TID 0000.0001)                 2.583454622903081E+01,      /* I =238 */
(PID.TID 0000.0001)                 2.616697888049133E+01,      /* I =239 */
(PID.TID 0000.0001)                 2.650003471354386E+01,      /* I =240 */
(PID.TID 0000.0001)                 2.683329861978947E+01,      /* I =241 */
(PID.TID 0000.0001)                 2.716635445284200E+01,      /* I =242 */
(PID.TID 0000.0001)                 2.749878710430253E+01,      /* I =243 */
(PID.TID 0000.0001)      . . .
(PID.TID 0000.0001)                 3.945764466329656E+01,      /* I =318 */
(PID.TID 0000.0001)                 3.948358309771845E+01,      /* I =319 */
(PID.TID 0000.0001)                 3.950830437467826E+01       /* I =320 */
(PID.TID 0000.0001)     ;
(PID.TID 0000.0001) dxC =  /* dxC(1,:,1,:) ( units: m ) */
(PID.TID 0000.0001)                 2.642693665638726E+01       /* J =  1 */
(PID.TID 0000.0001)     ;
(PID.TID 0000.0001) dyC =  /* dyC(:,1,:,1) ( units: m ) */
(PID.TID 0000.0001)   320 @  2.000000000000000E+02              /* I =  1:320 */
(PID.TID 0000.0001)     ;
(PID.TID 0000.0001) dyC =  /* dyC(1,:,1,:) ( units: m ) */
(PID.TID 0000.0001)                 2.000000000000000E+02       /* J =  1 */
(PID.TID 0000.0001)     ;
(PID.TID 0000.0001) dxV =  /* dxV(:,1,:,1) ( units: m ) */
(PID.TID 0000.0001)                 2.642693665638726E+01,      /* I =  1 */
(PID.TID 0000.0001)                 1.333350999399778E+01,      /* I =  2 */
(PID.TID 0000.0001)                 1.333351905152062E+01,      /* I =  3 */
(PID.TID 0000.0001)      . . .
(PID.TID 0000.0001)                 1.334122798727485E+01,      /* I = 78 */
(PID.TID 0000.0001)                 1.334163262878608E+01,      /* I = 79 */
(PID.TID 0000.0001)                 1.334205800345858E+01,      /* I = 80 */
(PID.TID 0000.0001)                 1.334250517291117E+01,      /* I = 81 */
(PID.TID 0000.0001)                 1.334297525304664E+01,      /* I = 82 */
(PID.TID 0000.0001)                 1.334346941681954E+01,      /* I = 83 */
(PID.TID 0000.0001)      . . .
(PID.TID 0000.0001)                 1.375763007933133E+01,      /* I =158 */
(PID.TID 0000.0001)                 1.377902043582892E+01,      /* I =159 */
(PID.TID 0000.0001)                 1.380146991037093E+01,      /* I =160 */
(PID.TID 0000.0001)                 1.382502895865507E+01,      /* I =161 */
(PID.TID 0000.0001)                 1.384975023561489E+01,      /* I =162 */
(PID.TID 0000.0001)                 1.387568867003677E+01,      /* I =163 */
(PID.TID 0000.0001)      . . .
(PID.TID 0000.0001)                 2.583454622903081E+01,      /* I =238 */
(PID.TID 0000.0001)                 2.616697888049133E+01,      /* I =239 */
(PID.TID 0000.0001)                 2.650003471354386E+01,      /* I =240 */
(PID.TID 0000.0001)                 2.683329861978947E+01,      /* I =241 */
(PID.TID 0000.0001)                 2.716635445284200E+01,      /* I =242 */
(PID.TID 0000.0001)                 2.749878710430253E+01,      /* I =243 */
(PID.TID 0000.0001)      . . .
(PID.TID 0000.0001)                 3.945764466329656E+01,      /* I =318 */
(PID.TID 0000.0001)                 3.948358309771845E+01,      /* I =319 */
(PID.TID 0000.0001)                 3.950830437467826E+01       /* I =320 */
(PID.TID 0000.0001)     ;
(PID.TID 0000.0001) dxV =  /* dxV(1,:,1,:) ( units: m ) */
(PID.TID 0000.0001)                 2.642693665638726E+01       /* J =  1 */
(PID.TID 0000.0001)     ;
(PID.TID 0000.0001) dyU =  /* dyU(:,1,:,1) ( units: m ) */
(PID.TID 0000.0001)   320 @  2.000000000000000E+02              /* I =  1:320 */
(PID.TID 0000.0001)     ;
(PID.TID 0000.0001) dyU =  /* dyU(1,:,1,:) ( units: m ) */
(PID.TID 0000.0001)                 2.000000000000000E+02       /* J =  1 */
(PID.TID 0000.0001)     ;
(PID.TID 0000.0001) rA  =  /* rA (:,1,:,1) ( units: m^2 ) */
(PID.TID 0000.0001)                 2.666701115686057E+03,      /* I =  1 */
(PID.TID 0000.0001)                 2.666702881913057E+03,      /* I =  2 */
(PID.TID 0000.0001)                 2.666704738695189E+03,      /* I =  3 */
(PID.TID 0000.0001)      . . .
(PID.TID 0000.0001)                 2.668285050826821E+03,      /* I = 78 */
(PID.TID 0000.0001)                 2.668368000687609E+03,      /* I = 79 */
(PID.TID 0000.0001)                 2.668455200695822E+03,      /* I = 80 */
(PID.TID 0000.0001)                 2.668546868468647E+03,      /* I = 81 */
(PID.TID 0000.0001)                 2.668643232750007E+03,      /* I = 82 */
(PID.TID 0000.0001)                 2.668744533977807E+03,      /* I = 83 */
(PID.TID 0000.0001)      . . .
(PID.TID 0000.0001)                 2.753613329981019E+03,      /* I =158 */
(PID.TID 0000.0001)                 2.757994844350548E+03,      /* I =159 */
(PID.TID 0000.0001)                 2.762593119797822E+03,      /* I =160 */
(PID.TID 0000.0001)                 2.767418463664208E+03,      /* I =161 */
(PID.TID 0000.0001)                 2.772481630581747E+03,      /* I =162 */
(PID.TID 0000.0001)                 2.777793837432962E+03,      /* I =163 */
(PID.TID 0000.0001)      . . .
(PID.TID 0000.0001)                 5.200111000112320E+03,      /* I =238 */
(PID.TID 0000.0001)                 5.266680552084212E+03,      /* I =239 */
(PID.TID 0000.0001)                 5.333333333333333E+03,      /* I =240 */
(PID.TID 0000.0001)                 5.399986114582455E+03,      /* I =241 */
(PID.TID 0000.0001)                 5.466555666554346E+03,      /* I =242 */
(PID.TID 0000.0001)                 5.532959175166664E+03,      /* I =243 */
(PID.TID 0000.0001)      . . .
(PID.TID 0000.0001)                 7.894185036084920E+03,      /* I =318 */
(PID.TID 0000.0001)                 7.899248203002459E+03,      /* I =319 */
(PID.TID 0000.0001)                 7.904073546868845E+03       /* I =320 */
(PID.TID 0000.0001)     ;
(PID.TID 0000.0001) rA  =  /* rA (1,:,1,:) ( units: m^2 ) */
(PID.TID 0000.0001)                 2.666701115686057E+03       /* J =  1 */
(PID.TID 0000.0001)     ;
(PID.TID 0000.0001) rAw =  /* rAw(:,1,:,1) ( units: m^2 ) */
(PID.TID 0000.0001)                 5.285387331277451E+03,      /* I =  1 */
(PID.TID 0000.0001)                 2.666701998799557E+03,      /* I =  2 */
(PID.TID 0000.0001)                 2.666703810304123E+03,      /* I =  3 */
(PID.TID 0000.0001)      . . .
(PID.TID 0000.0001)                 2.668245597454970E+03,      /* I = 78 */
(PID.TID 0000.0001)                 2.668326525757215E+03,      /* I = 79 */
(PID.TID 0000.0001)                 2.668411600691716E+03,      /* I = 80 */
(PID.TID 0000.0001)                 2.668501034582234E+03,      /* I = 81 */
(PID.TID 0000.0001)                 2.668595050609327E+03,      /* I = 82 */
(PID.TID 0000.0001)                 2.668693883363907E+03,      /* I = 83 */
(PID.TID 0000.0001)      . . .
(PID.TID 0000.0001)                 2.751526015866266E+03,      /* I =158 */
(PID.TID 0000.0001)                 2.755804087165784E+03,      /* I =159 */
(PID.TID 0000.0001)                 2.760293982074185E+03,      /* I =160 */
(PID.TID 0000.0001)                 2.765005791731015E+03,      /* I =161 */
(PID.TID 0000.0001)                 2.769950047122978E+03,      /* I =162 */
(PID.TID 0000.0001)                 2.775137734007355E+03,      /* I =163 */
(PID.TID 0000.0001)      . . .
(PID.TID 0000.0001)                 5.166909245806161E+03,      /* I =238 */
(PID.TID 0000.0001)                 5.233395776098266E+03,      /* I =239 */
(PID.TID 0000.0001)                 5.300006942708772E+03,      /* I =240 */
(PID.TID 0000.0001)                 5.366659723957894E+03,      /* I =241 */
(PID.TID 0000.0001)                 5.433270890568401E+03,      /* I =242 */
(PID.TID 0000.0001)                 5.499757420860506E+03,      /* I =243 */
(PID.TID 0000.0001)      . . .
(PID.TID 0000.0001)                 7.891528932659313E+03,      /* I =318 */
(PID.TID 0000.0001)                 7.896716619543690E+03,      /* I =319 */
(PID.TID 0000.0001)                 7.901660874935652E+03       /* I =320 */
(PID.TID 0000.0001)     ;
(PID.TID 0000.0001) rAw =  /* rAw(1,:,1,:) ( units: m^2 ) */
(PID.TID 0000.0001)                 5.285387331277451E+03       /* J =  1 */
(PID.TID 0000.0001)     ;
(PID.TID 0000.0001) rAs =  /* rAs(:,1,:,1) ( units: m^2 ) */
(PID.TID 0000.0001)                 2.666701115686057E+03,      /* I =  1 */
(PID.TID 0000.0001)                 2.666702881913057E+03,      /* I =  2 */
(PID.TID 0000.0001)                 2.666704738695189E+03,      /* I =  3 */
(PID.TID 0000.0001)      . . .
(PID.TID 0000.0001)                 2.668285050826821E+03,      /* I = 78 */
(PID.TID 0000.0001)                 2.668368000687609E+03,      /* I = 79 */
(PID.TID 0000.0001)                 2.668455200695822E+03,      /* I = 80 */
(PID.TID 0000.0001)                 2.668546868468647E+03,      /* I = 81 */
(PID.TID 0000.0001)                 2.668643232750007E+03,      /* I = 82 */
(PID.TID 0000.0001)                 2.668744533977807E+03,      /* I = 83 */
(PID.TID 0000.0001)      . . .
(PID.TID 0000.0001)                 2.753613329981019E+03,      /* I =158 */
(PID.TID 0000.0001)                 2.757994844350548E+03,      /* I =159 */
(PID.TID 0000.0001)                 2.762593119797822E+03,      /* I =160 */
(PID.TID 0000.0001)                 2.767418463664208E+03,      /* I =161 */
(PID.TID 0000.0001)                 2.772481630581747E+03,      /* I =162 */
(PID.TID 0000.0001)                 2.777793837432962E+03,      /* I =163 */
(PID.TID 0000.0001)      . . .
(PID.TID 0000.0001)                 5.200111000112320E+03,      /* I =238 */
(PID.TID 0000.0001)                 5.266680552084212E+03,      /* I =239 */
(PID.TID 0000.0001)                 5.333333333333333E+03,      /* I =240 */
(PID.TID 0000.0001)                 5.399986114582455E+03,      /* I =241 */
(PID.TID 0000.0001)                 5.466555666554346E+03,      /* I =242 */
(PID.TID 0000.0001)                 5.532959175166664E+03,      /* I =243 */
(PID.TID 0000.0001)      . . .
(PID.TID 0000.0001)                 7.894185036084920E+03,      /* I =318 */
(PID.TID 0000.0001)                 7.899248203002459E+03,      /* I =319 */
(PID.TID 0000.0001)                 7.904073546868845E+03       /* I =320 */
(PID.TID 0000.0001)     ;
(PID.TID 0000.0001) rAs =  /* rAs(1,:,1,:) ( units: m^2 ) */
(PID.TID 0000.0001)                 2.666701115686057E+03       /* J =  1 */
(PID.TID 0000.0001)     ;
(PID.TID 0000.0001) globalArea = /* Integrated horizontal Area (m^2) */
(PID.TID 0000.0001)                 1.273983641677108E+06
(PID.TID 0000.0001)     ;
(PID.TID 0000.0001) // =======================================================
(PID.TID 0000.0001) // End of Model config. summary
(PID.TID 0000.0001) // =======================================================
(PID.TID 0000.0001) 
(PID.TID 0000.0001) == Packages configuration : Check & print summary ==
(PID.TID 0000.0001) 
(PID.TID 0000.0001) OBCS_CHECK: #define ALLOW_OBCS
(PID.TID 0000.0001) OBCS_CHECK: start summary:
(PID.TID 0000.0001) useOBCSprescribe = /* prescribe OB values */
(PID.TID 0000.0001)                   F
(PID.TID 0000.0001)     ;
(PID.TID 0000.0001) useOBCSbalance = /* balance the flow through OB */
(PID.TID 0000.0001)                   T
(PID.TID 0000.0001)     ;
(PID.TID 0000.0001) OBCS_balanceFacN = /* Northern OB Factor for balancing OB flow [-] */
(PID.TID 0000.0001)                 1.000000000000000E+00
(PID.TID 0000.0001)     ;
(PID.TID 0000.0001) OBCS_balanceFacS = /* Southern OB Factor for balancing OB flow [-] */
(PID.TID 0000.0001)                 1.000000000000000E+00
(PID.TID 0000.0001)     ;
(PID.TID 0000.0001) OBCS_balanceFacE = /* Eastern  OB Factor for balancing OB flow [-] */
(PID.TID 0000.0001)                 1.000000000000000E+00
(PID.TID 0000.0001)     ;
(PID.TID 0000.0001) OBCS_balanceFacW = /* Western  OB Factor for balancing OB flow [-] */
(PID.TID 0000.0001)                 1.000000000000000E+00
(PID.TID 0000.0001)     ;
(PID.TID 0000.0001) OBCS_uvApplyFac = /* Factor to apply to U,V 2nd column/row */
(PID.TID 0000.0001)                 1.000000000000000E+00
(PID.TID 0000.0001)     ;
(PID.TID 0000.0001) OBCS_u1_adv_T = /* Temp uses upwind adv-scheme @ OB */
(PID.TID 0000.0001)                       0
(PID.TID 0000.0001)     ;
(PID.TID 0000.0001) OBCS_u1_adv_S = /* Salt uses upwind adv-scheme @ OB */
(PID.TID 0000.0001)                       0
(PID.TID 0000.0001)     ;
(PID.TID 0000.0001) OBCS_monitorFreq = /* monitor output frequency [s] */
(PID.TID 0000.0001)                 4.000000000000000E+02
(PID.TID 0000.0001)     ;
(PID.TID 0000.0001) OBCS_monSelect = /* select group of variables to monitor */
(PID.TID 0000.0001)                       0
(PID.TID 0000.0001)     ;
(PID.TID 0000.0001) useOBCStides = /* apply tidal forcing through OB */
(PID.TID 0000.0001)                   F
(PID.TID 0000.0001)     ;
(PID.TID 0000.0001) tidalPeriod = /* (s) */
(PID.TID 0000.0001)    10 @  0.000000000000000E+00              /* I =  1: 10 */
(PID.TID 0000.0001)     ;
(PID.TID 0000.0001) OB_indexNone = /* null value for OB index (i.e. no OB) */
(PID.TID 0000.0001)                     -99
(PID.TID 0000.0001)     ;
(PID.TID 0000.0001) ======== Tile bi=   1 , bj=   1 ========
(PID.TID 0000.0001)  OB_Jn = /* Northern OB local indices */
(PID.TID 0000.0001)    86 @      -99                            /* I = -2: 83 */
(PID.TID 0000.0001)  OB_Js = /* Southern OB local indices */
(PID.TID 0000.0001)    86 @      -99                            /* I = -2: 83 */
(PID.TID 0000.0001)  OB_Ie = /* Eastern OB local indices */
(PID.TID 0000.0001)     7 @      -99                            /* J = -2:  4 */
(PID.TID 0000.0001)  OB_Iw = /* Western OB local indices */
(PID.TID 0000.0001)     7 @      -99                            /* J = -2:  4 */
(PID.TID 0000.0001) ======== Tile bi=   2 , bj=   1 ========
(PID.TID 0000.0001)  OB_Jn = /* Northern OB local indices */
(PID.TID 0000.0001)    86 @      -99                            /* I = -2: 83 */
(PID.TID 0000.0001)  OB_Js = /* Southern OB local indices */
(PID.TID 0000.0001)    86 @      -99                            /* I = -2: 83 */
(PID.TID 0000.0001)  OB_Ie = /* Eastern OB local indices */
(PID.TID 0000.0001)     7 @      -99                            /* J = -2:  4 */
(PID.TID 0000.0001)  OB_Iw = /* Western OB local indices */
(PID.TID 0000.0001)     7 @      -99                            /* J = -2:  4 */
(PID.TID 0000.0001) ======== Tile bi=   3 , bj=   1 ========
(PID.TID 0000.0001)  OB_Jn = /* Northern OB local indices */
(PID.TID 0000.0001)    86 @      -99                            /* I = -2: 83 */
(PID.TID 0000.0001)  OB_Js = /* Southern OB local indices */
(PID.TID 0000.0001)    86 @      -99                            /* I = -2: 83 */
(PID.TID 0000.0001)  OB_Ie = /* Eastern OB local indices */
(PID.TID 0000.0001)     7 @      -99                            /* J = -2:  4 */
(PID.TID 0000.0001)  OB_Iw = /* Western OB local indices */
(PID.TID 0000.0001)     7 @      -99                            /* J = -2:  4 */
(PID.TID 0000.0001) ======== Tile bi=   4 , bj=   1 ========
(PID.TID 0000.0001)  OB_Jn = /* Northern OB local indices */
(PID.TID 0000.0001)    86 @      -99                            /* I = -2: 83 */
(PID.TID 0000.0001)  OB_Js = /* Southern OB local indices */
(PID.TID 0000.0001)    86 @      -99                            /* I = -2: 83 */
(PID.TID 0000.0001)  OB_Ie = /* Eastern OB local indices */
(PID.TID 0000.0001)     7 @       80                            /* J = -2:  4 */
(PID.TID 0000.0001)  OB_Iw = /* Western OB local indices */
(PID.TID 0000.0001)     7 @      -99                            /* J = -2:  4 */
(PID.TID 0000.0001) OBCS_CHECK: end summary.
(PID.TID 0000.0001) OBCS_CHECK: #define ALLOW_ORLANSKI
(PID.TID 0000.0001) OBCS_CHECK: set-up OK
(PID.TID 0000.0001) OBCS_CHECK: check Inside Mask and OB locations: OK
(PID.TID 0000.0001) GAD_CHECK: #define ALLOW_GENERIC_ADVDIFF
(PID.TID 0000.0001) // =======================================================
(PID.TID 0000.0001) // Check Model config. (CONFIG_CHECK):
(PID.TID 0000.0001) // CONFIG_CHECK : Normal End
(PID.TID 0000.0001) // =======================================================
(PID.TID 0000.0001) 
(PID.TID 0000.0001)  MDS_READ_FIELD: opening global file: T.init
(PID.TID 0000.0001) Start initial hydrostatic pressure computation
(PID.TID 0000.0001) Pressure is predetermined for buoyancyRelation OCEANIC
(PID.TID 0000.0001) 
(PID.TID 0000.0001)  MDS_READ_FIELD: opening global file: Qnet.forcing
(PID.TID 0000.0001) // =======================================================
(PID.TID 0000.0001) // Model current state
(PID.TID 0000.0001) // =======================================================
(PID.TID 0000.0001) 
(PID.TID 0000.0001) // =======================================================
(PID.TID 0000.0001) // Begin MONITOR dynamic field statistics
(PID.TID 0000.0001) // =======================================================
(PID.TID 0000.0001) %MON time_tsnumber                =                     0
(PID.TID 0000.0001) %MON time_secondsf                =   0.0000000000000E+00
(PID.TID 0000.0001) %MON dynstat_eta_max              =   0.0000000000000E+00
(PID.TID 0000.0001) %MON dynstat_eta_min              =   0.0000000000000E+00
(PID.TID 0000.0001) %MON dynstat_eta_mean             =   0.0000000000000E+00
(PID.TID 0000.0001) %MON dynstat_eta_sd               =   0.0000000000000E+00
(PID.TID 0000.0001) %MON dynstat_eta_del2             =   0.0000000000000E+00
(PID.TID 0000.0001) %MON dynstat_uvel_max             =   0.0000000000000E+00
(PID.TID 0000.0001) %MON dynstat_uvel_min             =   0.0000000000000E+00
(PID.TID 0000.0001) %MON dynstat_uvel_mean            =   0.0000000000000E+00
(PID.TID 0000.0001) %MON dynstat_uvel_sd              =   0.0000000000000E+00
(PID.TID 0000.0001) %MON dynstat_uvel_del2            =   0.0000000000000E+00
(PID.TID 0000.0001) %MON dynstat_vvel_max             =   0.0000000000000E+00
(PID.TID 0000.0001) %MON dynstat_vvel_min             =   0.0000000000000E+00
(PID.TID 0000.0001) %MON dynstat_vvel_mean            =   0.0000000000000E+00
(PID.TID 0000.0001) %MON dynstat_vvel_sd              =   0.0000000000000E+00
(PID.TID 0000.0001) %MON dynstat_vvel_del2            =   0.0000000000000E+00
(PID.TID 0000.0001) %MON dynstat_wvel_max             =  -0.0000000000000E+00
(PID.TID 0000.0001) %MON dynstat_wvel_min             =  -0.0000000000000E+00
(PID.TID 0000.0001) %MON dynstat_wvel_mean            =   0.0000000000000E+00
(PID.TID 0000.0001) %MON dynstat_wvel_sd              =   0.0000000000000E+00
(PID.TID 0000.0001) %MON dynstat_wvel_del2            =   0.0000000000000E+00
(PID.TID 0000.0001) %MON dynstat_theta_max            =   9.9980345224379E-03
(PID.TID 0000.0001) %MON dynstat_theta_min            =   3.9889598923900E-07
(PID.TID 0000.0001) %MON dynstat_theta_mean           =   5.0640617176934E-03
(PID.TID 0000.0001) %MON dynstat_theta_sd             =   2.8825342517700E-03
(PID.TID 0000.0001) %MON dynstat_theta_del2           =   6.1216372586452E-05
(PID.TID 0000.0001) %MON dynstat_salt_max             =   3.5000000000000E+01
(PID.TID 0000.0001) %MON dynstat_salt_min             =   3.5000000000000E+01
(PID.TID 0000.0001) %MON dynstat_salt_mean            =   3.5000000000000E+01
(PID.TID 0000.0001) %MON dynstat_salt_sd              =   1.2789769243682E-13
(PID.TID 0000.0001) %MON dynstat_salt_del2            =   0.0000000000000E+00
(PID.TID 0000.0001) %MON trAdv_CFL_u_max              =   0.0000000000000E+00
(PID.TID 0000.0001) %MON trAdv_CFL_v_max              =   0.0000000000000E+00
(PID.TID 0000.0001) %MON trAdv_CFL_w_max              =   0.0000000000000E+00
(PID.TID 0000.0001) %MON advcfl_uvel_max              =   0.0000000000000E+00
(PID.TID 0000.0001) %MON advcfl_vvel_max              =   0.0000000000000E+00
(PID.TID 0000.0001) %MON advcfl_wvel_max              =   0.0000000000000E+00
(PID.TID 0000.0001) %MON advcfl_W_hf_max              =   0.0000000000000E+00
(PID.TID 0000.0001) %MON pe_b_mean                    =   0.0000000000000E+00
(PID.TID 0000.0001) %MON ke_max                       =   0.0000000000000E+00
(PID.TID 0000.0001) %MON ke_mean                      =   0.0000000000000E+00
(PID.TID 0000.0001) %MON ke_vol                       =   2.0102771472217E+08
(PID.TID 0000.0001) %MON vort_r_min                   =   0.0000000000000E+00
(PID.TID 0000.0001) %MON vort_r_max                   =   0.0000000000000E+00
(PID.TID 0000.0001) %MON vort_a_mean                  =   0.0000000000000E+00
(PID.TID 0000.0001) %MON vort_a_sd                    =   0.0000000000000E+00
(PID.TID 0000.0001) %MON vort_p_mean                  =   0.0000000000000E+00
(PID.TID 0000.0001) %MON vort_p_sd                    =   0.0000000000000E+00
(PID.TID 0000.0001) %MON surfExpan_theta_mean         =   0.0000000000000E+00
(PID.TID 0000.0001) %MON surfExpan_salt_mean          =   0.0000000000000E+00
(PID.TID 0000.0001) // =======================================================
(PID.TID 0000.0001) // End MONITOR dynamic field statistics
(PID.TID 0000.0001) // =======================================================
(PID.TID 0000.0001) // =======================================================
(PID.TID 0000.0001) // Begin OBCS MONITOR field statistics
(PID.TID 0000.0001) // =======================================================
(PID.TID 0000.0001) %MON obc_time_tsnumber            =                     0
(PID.TID 0000.0001) %MON obc_time_secondsf            =   0.0000000000000E+00
(PID.TID 0000.0001) %MON obc_E_uVel_max               =   0.0000000000000E+00
(PID.TID 0000.0001) %MON obc_E_uVel_min               =   0.0000000000000E+00
(PID.TID 0000.0001) %MON obc_E_uVel_mean              =   0.0000000000000E+00
(PID.TID 0000.0001) %MON obc_E_uVel_sd                =   0.0000000000000E+00
(PID.TID 0000.0001) %MON obc_E_uVel_Int               =   0.0000000000000E+00
(PID.TID 0000.0001) // =======================================================
(PID.TID 0000.0001) // End OBCS MONITOR field statistics
(PID.TID 0000.0001) // =======================================================
(PID.TID 0000.0001) SOLVE_FOR_PRESSURE: putPmEinXvector =    F
(PID.TID 0000.0001) SOLVE_FOR_PRESSURE: zeroPsNH=    F , zeroMeanPnh=    F
(PID.TID 0000.0001) SOLVE_FOR_PRESSURE: oldFreeSurfTerm =    T
 cg2d: Sum(rhs),rhsMax =   6.66133814775094E-16  4.34534814524274E-04
(PID.TID 0000.0001)      cg2d_init_res =   4.31213602031276E+00
(PID.TID 0000.0001)      cg2d_iters(min,last) =      -1     199
(PID.TID 0000.0001)      cg2d_last_res =   8.69882100770269E-14
 cg3d: Sum(rhs),rhsMax =  -2.73210273848967E-14  9.42857689229853E-06
(PID.TID 0000.0001)      cg3d_init_res =   2.10684632797408E+01
(PID.TID 0000.0001)      cg3d_iters (last) =                 20
(PID.TID 0000.0001)      cg3d_last_res =   3.04049897397057E-03
(PID.TID 0000.0001) // =======================================================
(PID.TID 0000.0001) // Begin MONITOR dynamic field statistics
(PID.TID 0000.0001) // =======================================================
(PID.TID 0000.0001) %MON time_tsnumber                =                     1
(PID.TID 0000.0001) %MON time_secondsf                =   2.0000000000000E+01
(PID.TID 0000.0001) %MON dynstat_eta_max              =   2.3725500233583E-05
(PID.TID 0000.0001) %MON dynstat_eta_min              =  -2.0699974017747E-05
(PID.TID 0000.0001) %MON dynstat_eta_mean             =  -2.1801260627244E-19
(PID.TID 0000.0001) %MON dynstat_eta_sd               =   7.5296024184042E-06
(PID.TID 0000.0001) %MON dynstat_eta_del2             =   9.0533798245052E-07
(PID.TID 0000.0001) %MON dynstat_uvel_max             =   1.0004216839354E-04
(PID.TID 0000.0001) %MON dynstat_uvel_min             =  -1.0905120582135E-04
(PID.TID 0000.0001) %MON dynstat_uvel_mean            =   1.0756742432170E-07
(PID.TID 0000.0001) %MON dynstat_uvel_sd              =   2.1316815734603E-05
(PID.TID 0000.0001) %MON dynstat_uvel_del2            =   5.6951890137339E-07
(PID.TID 0000.0001) %MON dynstat_vvel_max             =   0.0000000000000E+00
(PID.TID 0000.0001) %MON dynstat_vvel_min             =   0.0000000000000E+00
(PID.TID 0000.0001) %MON dynstat_vvel_mean            =   0.0000000000000E+00
(PID.TID 0000.0001) %MON dynstat_vvel_sd              =   0.0000000000000E+00
(PID.TID 0000.0001) %MON dynstat_vvel_del2            =   0.0000000000000E+00
(PID.TID 0000.0001) %MON dynstat_wvel_max             =   8.9133299602885E-05
(PID.TID 0000.0001) %MON dynstat_wvel_min             =  -9.5323128568249E-05
(PID.TID 0000.0001) %MON dynstat_wvel_mean            =  -5.7732074913562E-23
(PID.TID 0000.0001) %MON dynstat_wvel_sd              =   2.0618351917428E-05
(PID.TID 0000.0001) %MON dynstat_wvel_del2            =   5.8122434880565E-07
(PID.TID 0000.0001) %MON dynstat_theta_max            =   9.9980345224379E-03
(PID.TID 0000.0001) %MON dynstat_theta_min            =  -2.6732022418926E-06
(PID.TID 0000.0001) %MON dynstat_theta_mean           =   5.0633840435295E-03
(PID.TID 0000.0001) %MON dynstat_theta_sd             =   2.8825675839345E-03
(PID.TID 0000.0001) %MON dynstat_theta_del2           =   6.1216372651430E-05
(PID.TID 0000.0001) %MON dynstat_salt_max             =   3.5000000000000E+01
(PID.TID 0000.0001) %MON dynstat_salt_min             =   3.5000000000000E+01
(PID.TID 0000.0001) %MON dynstat_salt_mean            =   3.5000000000000E+01
(PID.TID 0000.0001) %MON dynstat_salt_sd              =   1.2789769243682E-13
(PID.TID 0000.0001) %MON dynstat_salt_del2            =   0.0000000000000E+00
(PID.TID 0000.0001) %MON trAdv_CFL_u_max              =   0.0000000000000E+00
(PID.TID 0000.0001) %MON trAdv_CFL_v_max              =   0.0000000000000E+00
(PID.TID 0000.0001) %MON trAdv_CFL_w_max              =   0.0000000000000E+00
(PID.TID 0000.0001) %MON advcfl_uvel_max              =   1.6354763613003E-04
(PID.TID 0000.0001) %MON advcfl_vvel_max              =   0.0000000000000E+00
(PID.TID 0000.0001) %MON advcfl_wvel_max              =   5.7193877140949E-04
(PID.TID 0000.0001) %MON advcfl_W_hf_max              =   5.7193877140949E-04
(PID.TID 0000.0001) %MON pe_b_mean                    =   1.7623453526678E-12
(PID.TID 0000.0001) %MON ke_max                       =   4.7002899891188E-09
(PID.TID 0000.0001) %MON ke_mean                      =   4.3923124901351E-10
(PID.TID 0000.0001) %MON ke_vol                       =   2.0102771472217E+08
(PID.TID 0000.0001) %MON vort_r_min                   =   0.0000000000000E+00
(PID.TID 0000.0001) %MON vort_r_max                   =   0.0000000000000E+00
(PID.TID 0000.0001) %MON vort_a_mean                  =   0.0000000000000E+00
(PID.TID 0000.0001) %MON vort_a_sd                    =   0.0000000000000E+00
(PID.TID 0000.0001) %MON vort_p_mean                  =   0.0000000000000E+00
(PID.TID 0000.0001) %MON vort_p_sd                    =   0.0000000000000E+00
(PID.TID 0000.0001) %MON surfExpan_theta_mean         =   2.3961689772422E-10
(PID.TID 0000.0001) %MON surfExpan_salt_mean          =  -5.7843013716005E-21
(PID.TID 0000.0001) // =======================================================
(PID.TID 0000.0001) // End MONITOR dynamic field statistics
(PID.TID 0000.0001) // =======================================================
 cg2d: Sum(rhs),rhsMax =   2.23811608798807E-06  4.34558963992127E-04
(PID.TID 0000.0001)      cg2d_init_res =   1.59062606811743E-03
(PID.TID 0000.0001)      cg2d_iters(min,last) =      -1     187
(PID.TID 0000.0001)      cg2d_last_res =   7.99883009743058E-14
 cg3d: Sum(rhs),rhsMax =   2.87372122625973E-14  9.42865446653106E-06
(PID.TID 0000.0001)      cg3d_init_res =   7.88712951170389E-02
(PID.TID 0000.0001)      cg3d_iters (last) =                 20
(PID.TID 0000.0001)      cg3d_last_res =   3.61677535352176E-04
(PID.TID 0000.0001) // =======================================================
(PID.TID 0000.0001) // Begin MONITOR dynamic field statistics
(PID.TID 0000.0001) // =======================================================
(PID.TID 0000.0001) %MON time_tsnumber                =                     2
(PID.TID 0000.0001) %MON time_secondsf                =   4.0000000000000E+01
(PID.TID 0000.0001) %MON dynstat_eta_max              =   2.4209716551717E-05
(PID.TID 0000.0001) %MON dynstat_eta_min              =  -2.0551240763756E-05
(PID.TID 0000.0001) %MON dynstat_eta_mean             =  -7.9707986612143E-10
(PID.TID 0000.0001) %MON dynstat_eta_sd               =   7.6287896603469E-06
(PID.TID 0000.0001) %MON dynstat_eta_del2             =   9.0553441490732E-07
(PID.TID 0000.0001) %MON dynstat_uvel_max             =   1.9910112571089E-04
(PID.TID 0000.0001) %MON dynstat_uvel_min             =  -2.1176138737374E-04
(PID.TID 0000.0001) %MON dynstat_uvel_mean            =   1.5001216462398E-07
(PID.TID 0000.0001) %MON dynstat_uvel_sd              =   4.2573717305490E-05
(PID.TID 0000.0001) %MON dynstat_uvel_del2            =   1.1356362435307E-06
(PID.TID 0000.0001) %MON dynstat_vvel_max             =   0.0000000000000E+00
(PID.TID 0000.0001) %MON dynstat_vvel_min             =   0.0000000000000E+00
(PID.TID 0000.0001) %MON dynstat_vvel_mean            =   0.0000000000000E+00
(PID.TID 0000.0001) %MON dynstat_vvel_sd              =   0.0000000000000E+00
(PID.TID 0000.0001) %MON dynstat_vvel_del2            =   0.0000000000000E+00
(PID.TID 0000.0001) %MON dynstat_wvel_max             =   1.7788943608662E-04
(PID.TID 0000.0001) %MON dynstat_wvel_min             =  -1.9027179256507E-04
(PID.TID 0000.0001) %MON dynstat_wvel_mean            =   9.2371319861699E-22
(PID.TID 0000.0001) %MON dynstat_wvel_sd              =   4.1156220137750E-05
(PID.TID 0000.0001) %MON dynstat_wvel_del2            =   1.1596545702890E-06
(PID.TID 0000.0001) %MON dynstat_theta_max            =   9.9980210743326E-03
(PID.TID 0000.0001) %MON dynstat_theta_min            =  -2.9185230160215E-04
(PID.TID 0000.0001) %MON dynstat_theta_mean           =   5.0627063389948E-03
(PID.TID 0000.0001) %MON dynstat_theta_sd             =   2.8824275277071E-03
(PID.TID 0000.0001) %MON dynstat_theta_del2           =   6.1209822593547E-05
(PID.TID 0000.0001) %MON dynstat_salt_max             =   3.5000000000000E+01
(PID.TID 0000.0001) %MON dynstat_salt_min             =   3.5000000000000E+01
(PID.TID 0000.0001) %MON dynstat_salt_mean            =   3.5000000000000E+01
(PID.TID 0000.0001) %MON dynstat_salt_sd              =   1.2789769243682E-13
(PID.TID 0000.0001) %MON dynstat_salt_del2            =   0.0000000000000E+00
(PID.TID 0000.0001) %MON trAdv_CFL_u_max              =   2.2946484398834E-04
(PID.TID 0000.0001) %MON trAdv_CFL_v_max              =   0.0000000000000E+00
(PID.TID 0000.0001) %MON trAdv_CFL_w_max              =   5.7193877140949E-04
(PID.TID 0000.0001) %MON advcfl_uvel_max              =   3.1758543216228E-04
(PID.TID 0000.0001) %MON advcfl_vvel_max              =   0.0000000000000E+00
(PID.TID 0000.0001) %MON advcfl_wvel_max              =   1.1416307553904E-03
(PID.TID 0000.0001) %MON advcfl_W_hf_max              =   1.1416307553904E-03
(PID.TID 0000.0001) %MON pe_b_mean                    =   1.8090818392803E-12
(PID.TID 0000.0001) %MON ke_max                       =   1.8727468893929E-08
(PID.TID 0000.0001) %MON ke_mean                      =   1.7510588047429E-09
(PID.TID 0000.0001) %MON ke_vol                       =   2.0102771472217E+08
(PID.TID 0000.0001) %MON vort_r_min                   =   0.0000000000000E+00
(PID.TID 0000.0001) %MON vort_r_max                   =   0.0000000000000E+00
(PID.TID 0000.0001) %MON vort_a_mean                  =   0.0000000000000E+00
(PID.TID 0000.0001) %MON vort_a_sd                    =   0.0000000000000E+00
(PID.TID 0000.0001) %MON vort_p_mean                  =   0.0000000000000E+00
(PID.TID 0000.0001) %MON vort_p_sd                    =   0.0000000000000E+00
(PID.TID 0000.0001) %MON surfExpan_theta_mean         =  -6.9978948514871E-15
(PID.TID 0000.0001) %MON surfExpan_salt_mean          =   6.0370241433917E-20
(PID.TID 0000.0001) // =======================================================
(PID.TID 0000.0001) // End MONITOR dynamic field statistics
(PID.TID 0000.0001) // =======================================================
 cg2d: Sum(rhs),rhsMax =   2.42592028489030E-06  4.34522733871731E-04
(PID.TID 0000.0001)      cg2d_init_res =   8.70661282146094E-04
(PID.TID 0000.0001)      cg2d_iters(min,last) =      -1     187
(PID.TID 0000.0001)      cg2d_last_res =   6.07688785928921E-14
 cg3d: Sum(rhs),rhsMax =   7.38475036329844E-14  9.42667367214843E-06
(PID.TID 0000.0001)      cg3d_init_res =   3.70633271650616E-02
(PID.TID 0000.0001)      cg3d_iters (last) =                 20
(PID.TID 0000.0001)      cg3d_last_res =   1.99596452312839E-04
(PID.TID 0000.0001) // =======================================================
(PID.TID 0000.0001) // Begin MONITOR dynamic field statistics
(PID.TID 0000.0001) // =======================================================
(PID.TID 0000.0001) %MON time_tsnumber                =                     3
(PID.TID 0000.0001) %MON time_secondsf                =   6.0000000000000E+01
(PID.TID 0000.0001) %MON dynstat_eta_max              =   2.4089860185775E-05
(PID.TID 0000.0001) %MON dynstat_eta_min              =  -2.0350241744760E-05
(PID.TID 0000.0001) %MON dynstat_eta_mean             =  -8.6389218754208E-10
(PID.TID 0000.0001) %MON dynstat_eta_sd               =   7.6270925945512E-06
(PID.TID 0000.0001) %MON dynstat_eta_del2             =   9.0539540922342E-07
(PID.TID 0000.0001) %MON dynstat_uvel_max             =   2.9794252100203E-04
(PID.TID 0000.0001) %MON dynstat_uvel_min             =  -3.1337965707473E-04
(PID.TID 0000.0001) %MON dynstat_uvel_mean            =   1.7005490610741E-07
(PID.TID 0000.0001) %MON dynstat_uvel_sd              =   6.3770978450426E-05
(PID.TID 0000.0001) %MON dynstat_uvel_del2            =   1.6993271535211E-06
(PID.TID 0000.0001) %MON dynstat_vvel_max             =   0.0000000000000E+00
(PID.TID 0000.0001) %MON dynstat_vvel_min             =   0.0000000000000E+00
(PID.TID 0000.0001) %MON dynstat_vvel_mean            =   0.0000000000000E+00
(PID.TID 0000.0001) %MON dynstat_vvel_sd              =   0.0000000000000E+00
(PID.TID 0000.0001) %MON dynstat_vvel_del2            =   0.0000000000000E+00
(PID.TID 0000.0001) %MON dynstat_wvel_max             =   2.6645709103425E-04
(PID.TID 0000.0001) %MON dynstat_wvel_min             =  -2.8498874522643E-04
(PID.TID 0000.0001) %MON dynstat_wvel_mean            =   8.0132826459860E-11
(PID.TID 0000.0001) %MON dynstat_wvel_sd              =   6.1663110104687E-05
(PID.TID 0000.0001) %MON dynstat_wvel_del2            =   1.7364466451368E-06
(PID.TID 0000.0001) %MON dynstat_theta_max            =   9.9979934932281E-03
(PID.TID 0000.0001) %MON dynstat_theta_min            =  -5.8005588262132E-04
(PID.TID 0000.0001) %MON dynstat_theta_mean           =   5.0620286648318E-03
(PID.TID 0000.0001) %MON dynstat_theta_sd             =   2.8821151586878E-03
(PID.TID 0000.0001) %MON dynstat_theta_del2           =   6.1196757801281E-05
(PID.TID 0000.0001) %MON dynstat_salt_max             =   3.5000000000000E+01
(PID.TID 0000.0001) %MON dynstat_salt_min             =   3.5000000000000E+01
(PID.TID 0000.0001) %MON dynstat_salt_mean            =   3.5000000000000E+01
(PID.TID 0000.0001) %MON dynstat_salt_sd              =   1.2789769243682E-13
(PID.TID 0000.0001) %MON dynstat_salt_del2            =   0.0000000000000E+00
(PID.TID 0000.0001) %MON trAdv_CFL_u_max              =   4.4834504152174E-04
(PID.TID 0000.0001) %MON trAdv_CFL_v_max              =   0.0000000000000E+00
(PID.TID 0000.0001) %MON trAdv_CFL_w_max              =   1.1416307553904E-03
(PID.TID 0000.0001) %MON advcfl_uvel_max              =   4.7003863992316E-04
(PID.TID 0000.0001) %MON advcfl_vvel_max              =   0.0000000000000E+00
(PID.TID 0000.0001) %MON advcfl_wvel_max              =   1.7099324713586E-03
(PID.TID 0000.0001) %MON advcfl_W_hf_max              =   1.7099324713586E-03
(PID.TID 0000.0001) %MON pe_b_mean                    =   1.8082770520539E-12
(PID.TID 0000.0001) %MON ke_max                       =   4.2005689538709E-08
(PID.TID 0000.0001) %MON ke_mean                      =   3.9297716184708E-09
(PID.TID 0000.0001) %MON ke_vol                       =   2.0102771472217E+08
(PID.TID 0000.0001) %MON vort_r_min                   =   0.0000000000000E+00
(PID.TID 0000.0001) %MON vort_r_max                   =   0.0000000000000E+00
(PID.TID 0000.0001) %MON vort_a_mean                  =   0.0000000000000E+00
(PID.TID 0000.0001) %MON vort_a_sd                    =   0.0000000000000E+00
(PID.TID 0000.0001) %MON vort_p_mean                  =   0.0000000000000E+00
(PID.TID 0000.0001) %MON vort_p_sd                    =   0.0000000000000E+00
(PID.TID 0000.0001) %MON surfExpan_theta_mean         =  -2.8519973540831E-12
(PID.TID 0000.0001) %MON surfExpan_salt_mean          =   4.2004267587366E-20
(PID.TID 0000.0001) // =======================================================
(PID.TID 0000.0001) // End MONITOR dynamic field statistics
(PID.TID 0000.0001) // =======================================================
 cg2d: Sum(rhs),rhsMax =   1.94205370226963E-06  4.34489999844076E-04
(PID.TID 0000.0001)      cg2d_init_res =   6.47156699310715E-04
(PID.TID 0000.0001)      cg2d_iters(min,last) =      -1     185
(PID.TID 0000.0001)      cg2d_last_res =   9.63658633452186E-14
 cg3d: Sum(rhs),rhsMax =  -6.52578306063051E-14  9.42369675789231E-06
(PID.TID 0000.0001)      cg3d_init_res =   1.11994869348280E-02
(PID.TID 0000.0001)      cg3d_iters (last) =                 20
(PID.TID 0000.0001)      cg3d_last_res =   1.53952212382109E-04
(PID.TID 0000.0001) // =======================================================
(PID.TID 0000.0001) // Begin MONITOR dynamic field statistics
(PID.TID 0000.0001) // =======================================================
(PID.TID 0000.0001) %MON time_tsnumber                =                     4
(PID.TID 0000.0001) %MON time_secondsf                =   8.0000000000000E+01
(PID.TID 0000.0001) %MON dynstat_eta_max              =   2.3978921855698E-05
(PID.TID 0000.0001) %MON dynstat_eta_min              =  -2.0026214926718E-05
(PID.TID 0000.0001) %MON dynstat_eta_mean             =  -6.9153081549262E-10
(PID.TID 0000.0001) %MON dynstat_eta_sd               =   7.6441673688573E-06
(PID.TID 0000.0001) %MON dynstat_eta_del2             =   9.0532596643792E-07
(PID.TID 0000.0001) %MON dynstat_uvel_max             =   3.9648891685448E-04
(PID.TID 0000.0001) %MON dynstat_uvel_min             =  -4.1509274961052E-04
(PID.TID 0000.0001) %MON dynstat_uvel_mean            =   1.7256772060648E-07
(PID.TID 0000.0001) %MON dynstat_uvel_sd              =   8.4916157397035E-05
(PID.TID 0000.0001) %MON dynstat_uvel_del2            =   2.2606685666978E-06
(PID.TID 0000.0001) %MON dynstat_vvel_max             =   0.0000000000000E+00
(PID.TID 0000.0001) %MON dynstat_vvel_min             =   0.0000000000000E+00
(PID.TID 0000.0001) %MON dynstat_vvel_mean            =   0.0000000000000E+00
(PID.TID 0000.0001) %MON dynstat_vvel_sd              =   0.0000000000000E+00
(PID.TID 0000.0001) %MON dynstat_vvel_del2            =   0.0000000000000E+00
(PID.TID 0000.0001) %MON dynstat_wvel_max             =   3.5480146200577E-04
(PID.TID 0000.0001) %MON dynstat_wvel_min             =  -3.7947227618685E-04
(PID.TID 0000.0001) %MON dynstat_wvel_mean            =   2.8263317056432E-10
(PID.TID 0000.0001) %MON dynstat_wvel_sd              =   8.2129642347234E-05
(PID.TID 0000.0001) %MON dynstat_wvel_del2            =   2.3114973751922E-06
(PID.TID 0000.0001) %MON dynstat_theta_max            =   9.9979520379230E-03
(PID.TID 0000.0001) %MON dynstat_theta_min            =  -8.6729310989032E-04
(PID.TID 0000.0001) %MON dynstat_theta_mean           =   5.0613509910876E-03
(PID.TID 0000.0001) %MON dynstat_theta_sd             =   2.8816312722937E-03
(PID.TID 0000.0001) %MON dynstat_theta_del2           =   6.1177205929916E-05
(PID.TID 0000.0001) %MON dynstat_salt_max             =   3.5000000000000E+01
(PID.TID 0000.0001) %MON dynstat_salt_min             =   3.5000000000000E+01
(PID.TID 0000.0001) %MON dynstat_salt_mean            =   3.5000000000000E+01
(PID.TID 0000.0001) %MON dynstat_salt_sd              =   1.2789769243682E-13
(PID.TID 0000.0001) %MON dynstat_salt_del2            =   0.0000000000000E+00
(PID.TID 0000.0001) %MON trAdv_CFL_u_max              =   6.6075853169540E-04
(PID.TID 0000.0001) %MON trAdv_CFL_v_max              =   0.0000000000000E+00
(PID.TID 0000.0001) %MON trAdv_CFL_w_max              =   1.7099324713586E-03
(PID.TID 0000.0001) %MON advcfl_uvel_max              =   6.2259826719500E-04
(PID.TID 0000.0001) %MON advcfl_vvel_max              =   0.0000000000000E+00
(PID.TID 0000.0001) %MON advcfl_wvel_max              =   2.2768336571211E-03
(PID.TID 0000.0001) %MON advcfl_W_hf_max              =   2.2768336571211E-03
(PID.TID 0000.0001) %MON pe_b_mean                    =   1.8163824869767E-12
(PID.TID 0000.0001) %MON ke_max                       =   7.4466660101663E-08
(PID.TID 0000.0001) %MON ke_mean                      =   6.9695501708184E-09
(PID.TID 0000.0001) %MON ke_vol                       =   2.0102771472217E+08
(PID.TID 0000.0001) %MON vort_r_min                   =   0.0000000000000E+00
(PID.TID 0000.0001) %MON vort_r_max                   =   0.0000000000000E+00
(PID.TID 0000.0001) %MON vort_a_mean                  =   0.0000000000000E+00
(PID.TID 0000.0001) %MON vort_a_sd                    =   0.0000000000000E+00
(PID.TID 0000.0001) %MON vort_p_mean                  =   0.0000000000000E+00
(PID.TID 0000.0001) %MON vort_p_sd                    =   0.0000000000000E+00
(PID.TID 0000.0001) %MON surfExpan_theta_mean         =   1.1711739135631E-12
(PID.TID 0000.0001) %MON surfExpan_salt_mean          =   2.9324556106118E-20
(PID.TID 0000.0001) // =======================================================
(PID.TID 0000.0001) // End MONITOR dynamic field statistics
(PID.TID 0000.0001) // =======================================================
 cg2d: Sum(rhs),rhsMax =   9.37384267235553E-07  4.34446013829656E-04
(PID.TID 0000.0001)      cg2d_init_res =   8.71191785528274E-04
(PID.TID 0000.0001)      cg2d_iters(min,last) =      -1     186
(PID.TID 0000.0001)      cg2d_last_res =   6.54243206518142E-14
 cg3d: Sum(rhs),rhsMax =   1.47388178051155E-13  9.41965749501224E-06
(PID.TID 0000.0001)      cg3d_init_res =   1.16907111563922E-02
(PID.TID 0000.0001)      cg3d_iters (last) =                 20
(PID.TID 0000.0001)      cg3d_last_res =   8.23098672735490E-05
(PID.TID 0000.0001) // =======================================================
(PID.TID 0000.0001) // Begin MONITOR dynamic field statistics
(PID.TID 0000.0001) // =======================================================
(PID.TID 0000.0001) %MON time_tsnumber                =                     5
(PID.TID 0000.0001) %MON time_secondsf                =   1.0000000000000E+02
(PID.TID 0000.0001) %MON dynstat_eta_max              =   2.3981279424359E-05
(PID.TID 0000.0001) %MON dynstat_eta_min              =  -1.9733634564041E-05
(PID.TID 0000.0001) %MON dynstat_eta_mean             =  -3.3375208983090E-10
(PID.TID 0000.0001) %MON dynstat_eta_sd               =   7.6772509802204E-06
(PID.TID 0000.0001) %MON dynstat_eta_del2             =   9.0523381074046E-07
(PID.TID 0000.0001) %MON dynstat_uvel_max             =   4.9470935197552E-04
(PID.TID 0000.0001) %MON dynstat_uvel_min             =  -5.1566411915615E-04
(PID.TID 0000.0001) %MON dynstat_uvel_mean            =   1.5730065766468E-07
(PID.TID 0000.0001) %MON dynstat_uvel_sd              =   1.0600934197240E-04
(PID.TID 0000.0001) %MON dynstat_uvel_del2            =   2.8196620311960E-06
(PID.TID 0000.0001) %MON dynstat_vvel_max             =   0.0000000000000E+00
(PID.TID 0000.0001) %MON dynstat_vvel_min             =   0.0000000000000E+00
(PID.TID 0000.0001) %MON dynstat_vvel_mean            =   0.0000000000000E+00
(PID.TID 0000.0001) %MON dynstat_vvel_sd              =   0.0000000000000E+00
(PID.TID 0000.0001) %MON dynstat_vvel_del2            =   0.0000000000000E+00
(PID.TID 0000.0001) %MON dynstat_wvel_max             =   4.4290886185670E-04
(PID.TID 0000.0001) %MON dynstat_wvel_min             =  -4.7371587234670E-04
(PID.TID 0000.0001) %MON dynstat_wvel_mean            =   6.4789293215752E-10
(PID.TID 0000.0001) %MON dynstat_wvel_sd              =   1.0255506152200E-04
(PID.TID 0000.0001) %MON dynstat_wvel_del2            =   2.8847936441170E-06
(PID.TID 0000.0001) %MON dynstat_theta_max            =   9.9978965303863E-03
(PID.TID 0000.0001) %MON dynstat_theta_min            =  -1.1535696355949E-03
(PID.TID 0000.0001) %MON dynstat_theta_mean           =   5.0606733169920E-03
(PID.TID 0000.0001) %MON dynstat_theta_sd             =   2.8809769692197E-03
(PID.TID 0000.0001) %MON dynstat_theta_del2           =   6.1151205141572E-05
(PID.TID 0000.0001) %MON dynstat_salt_max             =   3.5000000000000E+01
(PID.TID 0000.0001) %MON dynstat_salt_min             =   3.5000000000000E+01
(PID.TID 0000.0001) %MON dynstat_salt_mean            =   3.5000000000000E+01
(PID.TID 0000.0001) %MON dynstat_salt_sd              =   1.2789769243682E-13
(PID.TID 0000.0001) %MON dynstat_salt_del2            =   0.0000000000000E+00
(PID.TID 0000.0001) %MON trAdv_CFL_u_max              =   8.6685012560556E-04
(PID.TID 0000.0001) %MON trAdv_CFL_v_max              =   0.0000000000000E+00
(PID.TID 0000.0001) %MON trAdv_CFL_w_max              =   2.2768336571211E-03
(PID.TID 0000.0001) %MON advcfl_uvel_max              =   7.7344542236042E-04
(PID.TID 0000.0001) %MON advcfl_vvel_max              =   0.0000000000000E+00
(PID.TID 0000.0001) %MON advcfl_wvel_max              =   2.8422952340802E-03
(PID.TID 0000.0001) %MON advcfl_W_hf_max              =   2.8422952340802E-03
(PID.TID 0000.0001) %MON pe_b_mean                    =   1.8321389413039E-12
(PID.TID 0000.0001) %MON ke_max                       =   1.1603781857501E-07
(PID.TID 0000.0001) %MON ke_mean                      =   1.0864550768234E-08
(PID.TID 0000.0001) %MON ke_vol                       =   2.0102771472217E+08
(PID.TID 0000.0001) %MON vort_r_min                   =   0.0000000000000E+00
(PID.TID 0000.0001) %MON vort_r_max                   =   0.0000000000000E+00
(PID.TID 0000.0001) %MON vort_a_mean                  =   0.0000000000000E+00
(PID.TID 0000.0001) %MON vort_a_sd                    =   0.0000000000000E+00
(PID.TID 0000.0001) %MON vort_p_mean                  =   0.0000000000000E+00
(PID.TID 0000.0001) %MON vort_p_sd                    =   0.0000000000000E+00
(PID.TID 0000.0001) %MON surfExpan_theta_mean         =   3.6221226307939E-12
(PID.TID 0000.0001) %MON surfExpan_salt_mean          =  -8.3834243607980E-20
(PID.TID 0000.0001) // =======================================================
(PID.TID 0000.0001) // End MONITOR dynamic field statistics
(PID.TID 0000.0001) // =======================================================
 cg2d: Sum(rhs),rhsMax =  -8.07293488405691E-07  4.34390405389574E-04
(PID.TID 0000.0001)      cg2d_init_res =   1.10557616487469E-03
(PID.TID 0000.0001)      cg2d_iters(min,last) =      -1     186
(PID.TID 0000.0001)      cg2d_last_res =   8.10160755837340E-14
 cg3d: Sum(rhs),rhsMax =   9.90611672552211E-14  9.41453795900706E-06
(PID.TID 0000.0001)      cg3d_init_res =   1.34558276692424E-02
(PID.TID 0000.0001)      cg3d_iters (last) =                 20
(PID.TID 0000.0001)      cg3d_last_res =   6.32077491913661E-05
(PID.TID 0000.0001) // =======================================================
(PID.TID 0000.0001) // Begin MONITOR dynamic field statistics
(PID.TID 0000.0001) // =======================================================
(PID.TID 0000.0001) %MON time_tsnumber                =                     6
(PID.TID 0000.0001) %MON time_secondsf                =   1.2000000000000E+02
(PID.TID 0000.0001) %MON dynstat_eta_max              =   2.4075946827946E-05
(PID.TID 0000.0001) %MON dynstat_eta_min              =  -1.9546420734980E-05
(PID.TID 0000.0001) %MON dynstat_eta_mean             =   2.8739697385724E-10
(PID.TID 0000.0001) %MON dynstat_eta_sd               =   7.7141184549903E-06
(PID.TID 0000.0001) %MON dynstat_eta_del2             =   9.0511599036274E-07
(PID.TID 0000.0001) %MON dynstat_uvel_max             =   5.9258915332437E-04
(PID.TID 0000.0001) %MON dynstat_uvel_min             =  -6.1512058391393E-04
(PID.TID 0000.0001) %MON dynstat_uvel_mean            =   1.2791250022268E-07
(PID.TID 0000.0001) %MON dynstat_uvel_sd              =   1.2705015613127E-04
(PID.TID 0000.0001) %MON dynstat_uvel_del2            =   3.3763061586724E-06
(PID.TID 0000.0001) %MON dynstat_vvel_max             =   0.0000000000000E+00
(PID.TID 0000.0001) %MON dynstat_vvel_min             =   0.0000000000000E+00
(PID.TID 0000.0001) %MON dynstat_vvel_mean            =   0.0000000000000E+00
(PID.TID 0000.0001) %MON dynstat_vvel_sd              =   0.0000000000000E+00
(PID.TID 0000.0001) %MON dynstat_vvel_del2            =   0.0000000000000E+00
(PID.TID 0000.0001) %MON dynstat_wvel_max             =   5.3077181005587E-04
(PID.TID 0000.0001) %MON dynstat_wvel_min             =  -5.6772086243922E-04
(PID.TID 0000.0001) %MON dynstat_wvel_mean            =   1.2057544347635E-09
(PID.TID 0000.0001) %MON dynstat_wvel_sd              =   1.2293907386972E-04
(PID.TID 0000.0001) %MON dynstat_wvel_del2            =   3.4563220417871E-06
(PID.TID 0000.0001) %MON dynstat_theta_max            =   9.9978268467778E-03
(PID.TID 0000.0001) %MON dynstat_theta_min            =  -1.4388907284952E-03
(PID.TID 0000.0001) %MON dynstat_theta_mean           =   5.0599956428484E-03
(PID.TID 0000.0001) %MON dynstat_theta_sd             =   2.8801537689919E-03
(PID.TID 0000.0001) %MON dynstat_theta_del2           =   6.1118802104401E-05
(PID.TID 0000.0001) %MON dynstat_salt_max             =   3.5000000000000E+01
(PID.TID 0000.0001) %MON dynstat_salt_min             =   3.5000000000000E+01
(PID.TID 0000.0001) %MON dynstat_salt_mean            =   3.5000000000000E+01
(PID.TID 0000.0001) %MON dynstat_salt_sd              =   1.2789769243682E-13
(PID.TID 0000.0001) %MON dynstat_salt_del2            =   0.0000000000000E+00
(PID.TID 0000.0001) %MON trAdv_CFL_u_max              =   1.0668238326211E-03
(PID.TID 0000.0001) %MON trAdv_CFL_v_max              =   0.0000000000000E+00
(PID.TID 0000.0001) %MON trAdv_CFL_w_max              =   2.8422952340802E-03
(PID.TID 0000.0001) %MON advcfl_uvel_max              =   9.2262033008318E-04
(PID.TID 0000.0001) %MON advcfl_vvel_max              =   0.0000000000000E+00
(PID.TID 0000.0001) %MON advcfl_wvel_max              =   3.4063251746353E-03
(PID.TID 0000.0001) %MON advcfl_W_hf_max              =   3.4063251746353E-03
(PID.TID 0000.0001) %MON pe_b_mean                    =   1.8497776813541E-12
(PID.TID 0000.0001) %MON ke_max                       =   1.6664715368884E-07
(PID.TID 0000.0001) %MON ke_mean                      =   1.5608887149199E-08
(PID.TID 0000.0001) %MON ke_vol                       =   2.0102771472217E+08
(PID.TID 0000.0001) %MON vort_r_min                   =   0.0000000000000E+00
(PID.TID 0000.0001) %MON vort_r_max                   =   0.0000000000000E+00
(PID.TID 0000.0001) %MON vort_a_mean                  =   0.0000000000000E+00
(PID.TID 0000.0001) %MON vort_a_sd                    =   0.0000000000000E+00
(PID.TID 0000.0001) %MON vort_p_mean                  =   0.0000000000000E+00
(PID.TID 0000.0001) %MON vort_p_sd                    =   0.0000000000000E+00
(PID.TID 0000.0001) %MON surfExpan_theta_mean         =   5.1271267574958E-12
(PID.TID 0000.0001) %MON surfExpan_salt_mean          =  -2.0893201564463E-20
(PID.TID 0000.0001) // =======================================================
(PID.TID 0000.0001) // End MONITOR dynamic field statistics
(PID.TID 0000.0001) // =======================================================
 cg2d: Sum(rhs),rhsMax =  -3.28325375051342E-06  4.34323283904848E-04
(PID.TID 0000.0001)      cg2d_init_res =   1.34002894938415E-03
(PID.TID 0000.0001)      cg2d_iters(min,last) =      -1     186
(PID.TID 0000.0001)      cg2d_last_res =   9.56132123496886E-14
 cg3d: Sum(rhs),rhsMax =   7.90076554527119E-14  9.40834318489714E-06
(PID.TID 0000.0001)      cg3d_init_res =   1.54073056752770E-02
(PID.TID 0000.0001)      cg3d_iters (last) =                 20
(PID.TID 0000.0001)      cg3d_last_res =   2.79119018886485E-05
(PID.TID 0000.0001) // =======================================================
(PID.TID 0000.0001) // Begin MONITOR dynamic field statistics
(PID.TID 0000.0001) // =======================================================
(PID.TID 0000.0001) %MON time_tsnumber                =                     7
(PID.TID 0000.0001) %MON time_secondsf                =   1.4000000000000E+02
(PID.TID 0000.0001) %MON dynstat_eta_max              =   2.4204648510306E-05
(PID.TID 0000.0001) %MON dynstat_eta_min              =  -1.9442189454411E-05
(PID.TID 0000.0001) %MON dynstat_eta_mean             =   1.1686597286289E-09
(PID.TID 0000.0001) %MON dynstat_eta_sd               =   7.7462134884990E-06
(PID.TID 0000.0001) %MON dynstat_eta_del2             =   9.0497322141495E-07
(PID.TID 0000.0001) %MON dynstat_uvel_max             =   6.9012597583541E-04
(PID.TID 0000.0001) %MON dynstat_uvel_min             =  -7.1346078952960E-04
(PID.TID 0000.0001) %MON dynstat_uvel_mean            =   9.0570450261658E-08
(PID.TID 0000.0001) %MON dynstat_uvel_sd              =   1.4803827026269E-04
(PID.TID 0000.0001) %MON dynstat_uvel_del2            =   3.9305992639362E-06
(PID.TID 0000.0001) %MON dynstat_vvel_max             =   0.0000000000000E+00
(PID.TID 0000.0001) %MON dynstat_vvel_min             =   0.0000000000000E+00
(PID.TID 0000.0001) %MON dynstat_vvel_mean            =   0.0000000000000E+00
(PID.TID 0000.0001) %MON dynstat_vvel_sd              =   0.0000000000000E+00
(PID.TID 0000.0001) %MON dynstat_vvel_del2            =   0.0000000000000E+00
(PID.TID 0000.0001) %MON dynstat_wvel_max             =   6.1838217909840E-04
(PID.TID 0000.0001) %MON dynstat_wvel_min             =  -6.6148654020688E-04
(PID.TID 0000.0001) %MON dynstat_wvel_mean            =   1.9807882360810E-09
(PID.TID 0000.0001) %MON dynstat_wvel_sd              =   1.4328137431588E-04
(PID.TID 0000.0001) %MON dynstat_wvel_del2            =   4.0260702712615E-06
(PID.TID 0000.0001) %MON dynstat_theta_max            =   9.9977429758067E-03
(PID.TID 0000.0001) %MON dynstat_theta_min            =  -1.7232617641211E-03
(PID.TID 0000.0001) %MON dynstat_theta_mean           =   5.0593179688687E-03
(PID.TID 0000.0001) %MON dynstat_theta_sd             =   2.8791631305311E-03
(PID.TID 0000.0001) %MON dynstat_theta_del2           =   6.1080040330462E-05
(PID.TID 0000.0001) %MON dynstat_salt_max             =   3.5000000000000E+01
(PID.TID 0000.0001) %MON dynstat_salt_min             =   3.5000000000000E+01
(PID.TID 0000.0001) %MON dynstat_salt_mean            =   3.5000000000000E+01
(PID.TID 0000.0001) %MON dynstat_salt_sd              =   1.2789769243682E-13
(PID.TID 0000.0001) %MON dynstat_salt_del2            =   0.0000000000000E+00
(PID.TID 0000.0001) %MON trAdv_CFL_u_max              =   1.2608905630078E-03
(PID.TID 0000.0001) %MON trAdv_CFL_v_max              =   0.0000000000000E+00
(PID.TID 0000.0001) %MON trAdv_CFL_w_max              =   3.4063251746353E-03
(PID.TID 0000.0001) %MON advcfl_uvel_max              =   1.0701209589652E-03
(PID.TID 0000.0001) %MON advcfl_vvel_max              =   0.0000000000000E+00
(PID.TID 0000.0001) %MON advcfl_wvel_max              =   3.9689192412413E-03
(PID.TID 0000.0001) %MON advcfl_W_hf_max              =   3.9689192412413E-03
(PID.TID 0000.0001) %MON pe_b_mean                    =   1.8652019541792E-12
(PID.TID 0000.0001) %MON ke_max                       =   2.2622254469499E-07
(PID.TID 0000.0001) %MON ke_mean                      =   2.1196635887260E-08
(PID.TID 0000.0001) %MON ke_vol                       =   2.0102771472217E+08
(PID.TID 0000.0001) %MON vort_r_min                   =   0.0000000000000E+00
(PID.TID 0000.0001) %MON vort_r_max                   =   0.0000000000000E+00
(PID.TID 0000.0001) %MON vort_a_mean                  =   0.0000000000000E+00
(PID.TID 0000.0001) %MON vort_a_sd                    =   0.0000000000000E+00
(PID.TID 0000.0001) %MON vort_p_mean                  =   0.0000000000000E+00
(PID.TID 0000.0001) %MON vort_p_sd                    =   0.0000000000000E+00
(PID.TID 0000.0001) %MON surfExpan_theta_mean         =   5.6457442328430E-12
(PID.TID 0000.0001) %MON surfExpan_salt_mean          =   2.1917164519134E-20
(PID.TID 0000.0001) // =======================================================
(PID.TID 0000.0001) // End MONITOR dynamic field statistics
(PID.TID 0000.0001) // =======================================================
 cg2d: Sum(rhs),rhsMax =  -6.86581336316328E-06  4.34244415559547E-04
(PID.TID 0000.0001)      cg2d_init_res =   1.57431385502297E-03
(PID.TID 0000.0001)      cg2d_iters(min,last) =      -1     187
(PID.TID 0000.0001)      cg2d_last_res =   6.58740094986476E-14
 cg3d: Sum(rhs),rhsMax =  -2.81677892816079E-14  9.40108197709503E-06
(PID.TID 0000.0001)      cg3d_init_res =   1.74222569799940E-02
(PID.TID 0000.0001)      cg3d_iters (last) =                 20
(PID.TID 0000.0001)      cg3d_last_res =   2.56685849699485E-05
(PID.TID 0000.0001) // =======================================================
(PID.TID 0000.0001) // Begin MONITOR dynamic field statistics
(PID.TID 0000.0001) // =======================================================
(PID.TID 0000.0001) %MON time_tsnumber                =                     8
(PID.TID 0000.0001) %MON time_secondsf                =   1.6000000000000E+02
(PID.TID 0000.0001) %MON dynstat_eta_max              =   2.4316983031300E-05
(PID.TID 0000.0001) %MON dynstat_eta_min              =  -1.9392083167672E-05
(PID.TID 0000.0001) %MON dynstat_eta_mean             =   2.4434122846090E-09
(PID.TID 0000.0001) %MON dynstat_eta_sd               =   7.7676846752793E-06
(PID.TID 0000.0001) %MON dynstat_eta_del2             =   9.0480583487905E-07
(PID.TID 0000.0001) %MON dynstat_uvel_max             =   7.8732640385650E-04
(PID.TID 0000.0001) %MON dynstat_uvel_min             =  -8.1067283264001E-04
(PID.TID 0000.0001) %MON dynstat_uvel_mean            =   5.1276617447068E-08
(PID.TID 0000.0001) %MON dynstat_uvel_sd              =   1.6897336835274E-04
(PID.TID 0000.0001) %MON dynstat_uvel_del2            =   4.4825387938607E-06
(PID.TID 0000.0001) %MON dynstat_vvel_max             =   0.0000000000000E+00
(PID.TID 0000.0001) %MON dynstat_vvel_min             =   0.0000000000000E+00
(PID.TID 0000.0001) %MON dynstat_vvel_mean            =   0.0000000000000E+00
(PID.TID 0000.0001) %MON dynstat_vvel_sd              =   0.0000000000000E+00
(PID.TID 0000.0001) %MON dynstat_vvel_del2            =   0.0000000000000E+00
(PID.TID 0000.0001) %MON dynstat_wvel_max             =   7.0573400387026E-04
(PID.TID 0000.0001) %MON dynstat_wvel_min             =  -7.5501047548656E-04
(PID.TID 0000.0001) %MON dynstat_wvel_mean            =   2.9923620506695E-09
(PID.TID 0000.0001) %MON dynstat_wvel_sd              =   1.6358161735485E-04
(PID.TID 0000.0001) %MON dynstat_wvel_del2            =   4.5940245234959E-06
(PID.TID 0000.0001) %MON dynstat_theta_max            =   9.9976449735190E-03
(PID.TID 0000.0001) %MON dynstat_theta_min            =  -2.0066884430564E-03
(PID.TID 0000.0001) %MON dynstat_theta_mean           =   5.0586402952550E-03
(PID.TID 0000.0001) %MON dynstat_theta_sd             =   2.8780071092130E-03
(PID.TID 0000.0001) %MON dynstat_theta_del2           =   6.1034969784319E-05
(PID.TID 0000.0001) %MON dynstat_salt_max             =   3.5000000000000E+01
(PID.TID 0000.0001) %MON dynstat_salt_min             =   3.5000000000000E+01
(PID.TID 0000.0001) %MON dynstat_salt_mean            =   3.5000000000000E+01
(PID.TID 0000.0001) %MON dynstat_salt_sd              =   1.2789769243682E-13
(PID.TID 0000.0001) %MON dynstat_salt_del2            =   0.0000000000000E+00
(PID.TID 0000.0001) %MON trAdv_CFL_u_max              =   1.4558860606272E-03
(PID.TID 0000.0001) %MON trAdv_CFL_v_max              =   0.0000000000000E+00
(PID.TID 0000.0001) %MON trAdv_CFL_w_max              =   3.9689192412413E-03
(PID.TID 0000.0001) %MON advcfl_uvel_max              =   1.2159294551334E-03
(PID.TID 0000.0001) %MON advcfl_vvel_max              =   0.0000000000000E+00
(PID.TID 0000.0001) %MON advcfl_wvel_max              =   4.5300628529194E-03
(PID.TID 0000.0001) %MON advcfl_W_hf_max              =   4.5300628529194E-03
(PID.TID 0000.0001) %MON pe_b_mean                    =   1.8755564728883E-12
(PID.TID 0000.0001) %MON ke_max                       =   2.9469125030227E-07
(PID.TID 0000.0001) %MON ke_mean                      =   2.7621828911531E-08
(PID.TID 0000.0001) %MON ke_vol                       =   2.0102771472217E+08
(PID.TID 0000.0001) %MON vort_r_min                   =   0.0000000000000E+00
(PID.TID 0000.0001) %MON vort_r_max                   =   0.0000000000000E+00
(PID.TID 0000.0001) %MON vort_a_mean                  =   0.0000000000000E+00
(PID.TID 0000.0001) %MON vort_a_sd                    =   0.0000000000000E+00
(PID.TID 0000.0001) %MON vort_p_mean                  =   0.0000000000000E+00
(PID.TID 0000.0001) %MON vort_p_sd                    =   0.0000000000000E+00
(PID.TID 0000.0001) %MON surfExpan_theta_mean         =   4.9675665555411E-12
(PID.TID 0000.0001) %MON surfExpan_salt_mean          =  -1.4008684677737E-20
(PID.TID 0000.0001) // =======================================================
(PID.TID 0000.0001) // End MONITOR dynamic field statistics
(PID.TID 0000.0001) // =======================================================
 cg2d: Sum(rhs),rhsMax =  -1.16629601726453E-05  4.34153639312834E-04
(PID.TID 0000.0001)      cg2d_init_res =   1.80839184512548E-03
(PID.TID 0000.0001)      cg2d_iters(min,last) =      -1     187
(PID.TID 0000.0001)      cg2d_last_res =   7.45223459488828E-14
 cg3d: Sum(rhs),rhsMax =  -2.16712498640748E-14  9.39276368108550E-06
(PID.TID 0000.0001)      cg3d_init_res =   1.94658310780140E-02
(PID.TID 0000.0001)      cg3d_iters (last) =                 20
(PID.TID 0000.0001)      cg3d_last_res =   3.17319686198273E-05
(PID.TID 0000.0001) // =======================================================
(PID.TID 0000.0001) // Begin MONITOR dynamic field statistics
(PID.TID 0000.0001) // =======================================================
(PID.TID 0000.0001) %MON time_tsnumber                =                     9
(PID.TID 0000.0001) %MON time_secondsf                =   1.8000000000000E+02
(PID.TID 0000.0001) %MON dynstat_eta_max              =   2.4386244428522E-05
(PID.TID 0000.0001) %MON dynstat_eta_min              =  -1.9385074962460E-05
(PID.TID 0000.0001) %MON dynstat_eta_mean             =   4.1497578557429E-09
(PID.TID 0000.0001) %MON dynstat_eta_sd               =   7.7754438606834E-06
(PID.TID 0000.0001) %MON dynstat_eta_del2             =   9.0461411595206E-07
(PID.TID 0000.0001) %MON dynstat_uvel_max             =   8.8420192768373E-04
(PID.TID 0000.0001) %MON dynstat_uvel_min             =  -9.0674639773037E-04
(PID.TID 0000.0001) %MON dynstat_uvel_mean            =   1.4659589636246E-08
(PID.TID 0000.0001) %MON dynstat_uvel_sd              =   1.8985514107191E-04
(PID.TID 0000.0001) %MON dynstat_uvel_del2            =   5.0321216114047E-06
(PID.TID 0000.0001) %MON dynstat_vvel_max             =   0.0000000000000E+00
(PID.TID 0000.0001) %MON dynstat_vvel_min             =   0.0000000000000E+00
(PID.TID 0000.0001) %MON dynstat_vvel_mean            =   0.0000000000000E+00
(PID.TID 0000.0001) %MON dynstat_vvel_sd              =   0.0000000000000E+00
(PID.TID 0000.0001) %MON dynstat_vvel_del2            =   0.0000000000000E+00
(PID.TID 0000.0001) %MON dynstat_wvel_max             =   7.9282152474373E-04
(PID.TID 0000.0001) %MON dynstat_wvel_min             =  -8.4828971602639E-04
(PID.TID 0000.0001) %MON dynstat_wvel_mean            =   4.2547014693758E-09
(PID.TID 0000.0001) %MON dynstat_wvel_sd              =   1.8383947093008E-04
(PID.TID 0000.0001) %MON dynstat_wvel_del2            =   5.1601714768016E-06
(PID.TID 0000.0001) %MON dynstat_theta_max            =   9.9975329251109E-03
(PID.TID 0000.0001) %MON dynstat_theta_min            =  -2.2891768383986E-03
(PID.TID 0000.0001) %MON dynstat_theta_mean           =   5.0579626222219E-03
(PID.TID 0000.0001) %MON dynstat_theta_sd             =   2.8766879209038E-03
(PID.TID 0000.0001) %MON dynstat_theta_del2           =   6.0983662805631E-05
(PID.TID 0000.0001) %MON dynstat_salt_max             =   3.5000000000000E+01
(PID.TID 0000.0001) %MON dynstat_salt_min             =   3.5000000000000E+01
(PID.TID 0000.0001) %MON dynstat_salt_mean            =   3.5000000000000E+01
(PID.TID 0000.0001) %MON dynstat_salt_sd              =   1.2789769243682E-13
(PID.TID 0000.0001) %MON dynstat_salt_del2            =   0.0000000000000E+00
(PID.TID 0000.0001) %MON trAdv_CFL_u_max              =   1.6600359434294E-03
(PID.TID 0000.0001) %MON trAdv_CFL_v_max              =   0.0000000000000E+00
(PID.TID 0000.0001) %MON trAdv_CFL_w_max              =   4.5300628529194E-03
(PID.TID 0000.0001) %MON advcfl_uvel_max              =   1.3600303463309E-03
(PID.TID 0000.0001) %MON advcfl_vvel_max              =   0.0000000000000E+00
(PID.TID 0000.0001) %MON advcfl_wvel_max              =   5.0897382961583E-03
(PID.TID 0000.0001) %MON advcfl_W_hf_max              =   5.0897382961583E-03
(PID.TID 0000.0001) %MON pe_b_mean                    =   1.8793057022223E-12
(PID.TID 0000.0001) %MON ke_max                       =   3.7197970590006E-07
(PID.TID 0000.0001) %MON ke_mean                      =   3.4878459352250E-08
(PID.TID 0000.0001) %MON ke_vol                       =   2.0102771472217E+08
(PID.TID 0000.0001) %MON vort_r_min                   =   0.0000000000000E+00
(PID.TID 0000.0001) %MON vort_r_max                   =   0.0000000000000E+00
(PID.TID 0000.0001) %MON vort_a_mean                  =   0.0000000000000E+00
(PID.TID 0000.0001) %MON vort_a_sd                    =   0.0000000000000E+00
(PID.TID 0000.0001) %MON vort_p_mean                  =   0.0000000000000E+00
(PID.TID 0000.0001) %MON vort_p_sd                    =   0.0000000000000E+00
(PID.TID 0000.0001) %MON surfExpan_theta_mean         =   3.3044036828597E-12
(PID.TID 0000.0001) %MON surfExpan_salt_mean          =  -9.4987542227278E-20
(PID.TID 0000.0001) // =======================================================
(PID.TID 0000.0001) // End MONITOR dynamic field statistics
(PID.TID 0000.0001) // =======================================================
 cg2d: Sum(rhs),rhsMax =  -1.77473975917775E-05  4.34050854246315E-04
(PID.TID 0000.0001)      cg2d_init_res =   2.04118863086477E-03
(PID.TID 0000.0001)      cg2d_iters(min,last) =      -1     187
(PID.TID 0000.0001)      cg2d_last_res =   8.25858522455846E-14
 cg3d: Sum(rhs),rhsMax =  -4.07718563771864E-14  9.38339740338234E-06
(PID.TID 0000.0001)      cg3d_init_res =   2.15201254854941E-02
(PID.TID 0000.0001)      cg3d_iters (last) =                 20
(PID.TID 0000.0001)      cg3d_last_res =   5.01596970402466E-05
(PID.TID 0000.0001) // =======================================================
(PID.TID 0000.0001) // Begin MONITOR dynamic field statistics
(PID.TID 0000.0001) // =======================================================
(PID.TID 0000.0001) %MON time_tsnumber                =                    10
(PID.TID 0000.0001) %MON time_secondsf                =   2.0000000000000E+02
(PID.TID 0000.0001) %MON dynstat_eta_max              =   2.4408037525721E-05
(PID.TID 0000.0001) %MON dynstat_eta_min              =  -1.9416943376030E-05
(PID.TID 0000.0001) %MON dynstat_eta_mean             =   6.3131456853464E-09
(PID.TID 0000.0001) %MON dynstat_eta_sd               =   7.7698570394882E-06
(PID.TID 0000.0001) %MON dynstat_eta_del2             =   9.0439848785486E-07
(PID.TID 0000.0001) %MON dynstat_uvel_max             =   9.8076400935138E-04
(PID.TID 0000.0001) %MON dynstat_uvel_min             =  -1.0016762560173E-03
(PID.TID 0000.0001) %MON dynstat_uvel_mean            =  -1.6094926362347E-08
(PID.TID 0000.0001) %MON dynstat_uvel_sd              =   2.1068327800267E-04
(PID.TID 0000.0001) %MON dynstat_uvel_del2            =   5.5793440905059E-06
(PID.TID 0000.0001) %MON dynstat_vvel_max             =   0.0000000000000E+00
(PID.TID 0000.0001) %MON dynstat_vvel_min             =   0.0000000000000E+00
(PID.TID 0000.0001) %MON dynstat_vvel_mean            =   0.0000000000000E+00
(PID.TID 0000.0001) %MON dynstat_vvel_sd              =   0.0000000000000E+00
(PID.TID 0000.0001) %MON dynstat_vvel_del2            =   0.0000000000000E+00
(PID.TID 0000.0001) %MON dynstat_wvel_max             =   8.7963915997205E-04
(PID.TID 0000.0001) %MON dynstat_wvel_min             =  -9.4132134126757E-04
(PID.TID 0000.0001) %MON dynstat_wvel_mean            =   5.7769963819029E-09
(PID.TID 0000.0001) %MON dynstat_wvel_sd              =   2.0405461008875E-04
(PID.TID 0000.0001) %MON dynstat_wvel_del2            =   5.7244980745684E-06
(PID.TID 0000.0001) %MON dynstat_theta_max            =   9.9974069286797E-03
(PID.TID 0000.0001) %MON dynstat_theta_min            =  -2.5707333461352E-03
(PID.TID 0000.0001) %MON dynstat_theta_mean           =   5.0572849499446E-03
(PID.TID 0000.0001) %MON dynstat_theta_sd             =   2.8752076581168E-03
(PID.TID 0000.0001) %MON dynstat_theta_del2           =   6.0926169496665E-05
(PID.TID 0000.0001) %MON dynstat_salt_max             =   3.5000000000000E+01
(PID.TID 0000.0001) %MON dynstat_salt_min             =   3.5000000000000E+01
(PID.TID 0000.0001) %MON dynstat_salt_mean            =   3.5000000000000E+01
(PID.TID 0000.0001) %MON dynstat_salt_sd              =   1.2789769243682E-13
(PID.TID 0000.0001) %MON dynstat_salt_del2            =   0.0000000000000E+00
(PID.TID 0000.0001) %MON trAdv_CFL_u_max              =   1.8632420932114E-03
(PID.TID 0000.0001) %MON trAdv_CFL_v_max              =   0.0000000000000E+00
(PID.TID 0000.0001) %MON trAdv_CFL_w_max              =   5.0897382961583E-03
(PID.TID 0000.0001) %MON advcfl_uvel_max              =   1.5024157898974E-03
(PID.TID 0000.0001) %MON advcfl_vvel_max              =   0.0000000000000E+00
(PID.TID 0000.0001) %MON advcfl_wvel_max              =   5.6479280476054E-03
(PID.TID 0000.0001) %MON advcfl_W_hf_max              =   5.6479280476054E-03
(PID.TID 0000.0001) %MON pe_b_mean                    =   1.8766067348894E-12
(PID.TID 0000.0001) %MON ke_max                       =   4.5801356792742E-07
(PID.TID 0000.0001) %MON ke_mean                      =   4.2960481251307E-08
(PID.TID 0000.0001) %MON ke_vol                       =   2.0102771472217E+08
(PID.TID 0000.0001) %MON vort_r_min                   =   0.0000000000000E+00
(PID.TID 0000.0001) %MON vort_r_max                   =   0.0000000000000E+00
(PID.TID 0000.0001) %MON vort_a_mean                  =   0.0000000000000E+00
(PID.TID 0000.0001) %MON vort_a_sd                    =   0.0000000000000E+00
(PID.TID 0000.0001) %MON vort_p_mean                  =   0.0000000000000E+00
(PID.TID 0000.0001) %MON vort_p_sd                    =   0.0000000000000E+00
(PID.TID 0000.0001) %MON surfExpan_theta_mean         =   1.1162316934634E-12
(PID.TID 0000.0001) %MON surfExpan_salt_mean          =  -1.8240701782947E-20
(PID.TID 0000.0001) // =======================================================
(PID.TID 0000.0001) // End MONITOR dynamic field statistics
(PID.TID 0000.0001) // =======================================================
 cg2d: Sum(rhs),rhsMax =  -2.50181065001437E-05  4.33936052719573E-04
(PID.TID 0000.0001)      cg2d_init_res =   2.27600911393375E-03
(PID.TID 0000.0001)      cg2d_iters(min,last) =      -1     187
(PID.TID 0000.0001)      cg2d_last_res =   9.27810329096924E-14
 cg3d: Sum(rhs),rhsMax =   1.52972686601194E-13  9.37299360416049E-06
(PID.TID 0000.0001)      cg3d_init_res =   2.35930480173254E-02
(PID.TID 0000.0001)      cg3d_iters (last) =                 20
(PID.TID 0000.0001)      cg3d_last_res =   6.70938945650479E-05
(PID.TID 0000.0001) // =======================================================
(PID.TID 0000.0001) // Begin MONITOR dynamic field statistics
(PID.TID 0000.0001) // =======================================================
(PID.TID 0000.0001) %MON time_tsnumber                =                    11
(PID.TID 0000.0001) %MON time_secondsf                =   2.2000000000000E+02
(PID.TID 0000.0001) %MON dynstat_eta_max              =   2.4392513541857E-05
(PID.TID 0000.0001) %MON dynstat_eta_min              =  -1.9480518867212E-05
(PID.TID 0000.0001) %MON dynstat_eta_mean             =   8.8971454077035E-09
(PID.TID 0000.0001) %MON dynstat_eta_sd               =   7.7543330552789E-06
(PID.TID 0000.0001) %MON dynstat_eta_del2             =   9.0415883798068E-07
(PID.TID 0000.0001) %MON dynstat_uvel_max             =   1.0770211762548E-03
(PID.TID 0000.0001) %MON dynstat_uvel_min             =  -1.0954622507848E-03
(PID.TID 0000.0001) %MON dynstat_uvel_mean            =  -3.8867148542744E-08
(PID.TID 0000.0001) %MON dynstat_uvel_sd              =   2.3145746536713E-04
(PID.TID 0000.0001) %MON dynstat_uvel_del2            =   6.1242019168833E-06
(PID.TID 0000.0001) %MON dynstat_vvel_max             =   0.0000000000000E+00
(PID.TID 0000.0001) %MON dynstat_vvel_min             =   0.0000000000000E+00
(PID.TID 0000.0001) %MON dynstat_vvel_mean            =   0.0000000000000E+00
(PID.TID 0000.0001) %MON dynstat_vvel_sd              =   0.0000000000000E+00
(PID.TID 0000.0001) %MON dynstat_vvel_del2            =   0.0000000000000E+00
(PID.TID 0000.0001) %MON dynstat_wvel_max             =   9.6618110595614E-04
(PID.TID 0000.0001) %MON dynstat_wvel_min             =  -1.0341025296424E-03
(PID.TID 0000.0001) %MON dynstat_wvel_mean            =   7.5628331120469E-09
(PID.TID 0000.0001) %MON dynstat_wvel_sd              =   2.2422671613012E-04
(PID.TID 0000.0001) %MON dynstat_wvel_del2            =   6.2869914039765E-06
(PID.TID 0000.0001) %MON dynstat_theta_max            =   9.9972670926298E-03
(PID.TID 0000.0001) %MON dynstat_theta_min            =  -2.8513646196137E-03
(PID.TID 0000.0001) %MON dynstat_theta_mean           =   5.0566072785297E-03
(PID.TID 0000.0001) %MON dynstat_theta_sd             =   2.8735678682787E-03
(PID.TID 0000.0001) %MON dynstat_theta_del2           =   6.0862583665012E-05
(PID.TID 0000.0001) %MON dynstat_salt_max             =   3.5000000000000E+01
(PID.TID 0000.0001) %MON dynstat_salt_min             =   3.5000000000000E+01
(PID.TID 0000.0001) %MON dynstat_salt_mean            =   3.5000000000000E+01
(PID.TID 0000.0001) %MON dynstat_salt_sd              =   1.2789769243682E-13
(PID.TID 0000.0001) %MON dynstat_salt_del2            =   0.0000000000000E+00
(PID.TID 0000.0001) %MON trAdv_CFL_u_max              =   2.0655030943473E-03
(PID.TID 0000.0001) %MON trAdv_CFL_v_max              =   0.0000000000000E+00
(PID.TID 0000.0001) %MON trAdv_CFL_w_max              =   5.6479280476054E-03
(PID.TID 0000.0001) %MON advcfl_uvel_max              =   1.6430855507741E-03
(PID.TID 0000.0001) %MON advcfl_vvel_max              =   0.0000000000000E+00
(PID.TID 0000.0001) %MON advcfl_wvel_max              =   6.2046151778547E-03
(PID.TID 0000.0001) %MON advcfl_W_hf_max              =   6.2046151778547E-03
(PID.TID 0000.0001) %MON pe_b_mean                    =   1.8691166241495E-12
(PID.TID 0000.0001) %MON ke_max                       =   5.5271763248731E-07
(PID.TID 0000.0001) %MON ke_mean                      =   5.1861810212809E-08
(PID.TID 0000.0001) %MON ke_vol                       =   2.0102771472217E+08
(PID.TID 0000.0001) %MON vort_r_min                   =   0.0000000000000E+00
(PID.TID 0000.0001) %MON vort_r_max                   =   0.0000000000000E+00
(PID.TID 0000.0001) %MON vort_a_mean                  =   0.0000000000000E+00
(PID.TID 0000.0001) %MON vort_a_sd                    =   0.0000000000000E+00
(PID.TID 0000.0001) %MON vort_p_mean                  =   0.0000000000000E+00
(PID.TID 0000.0001) %MON vort_p_sd                    =   0.0000000000000E+00
(PID.TID 0000.0001) %MON surfExpan_theta_mean         =  -9.8007843971959E-13
(PID.TID 0000.0001) %MON surfExpan_salt_mean          =   1.7742881495410E-19
(PID.TID 0000.0001) // =======================================================
(PID.TID 0000.0001) // End MONITOR dynamic field statistics
(PID.TID 0000.0001) // =======================================================
 cg2d: Sum(rhs),rhsMax =  -3.34442104924504E-05  4.33810024673760E-04
(PID.TID 0000.0001)      cg2d_init_res =   2.50743440074803E-03
(PID.TID 0000.0001)      cg2d_iters(min,last) =      -1     188
(PID.TID 0000.0001)      cg2d_last_res =   4.66631311532058E-14
 cg3d: Sum(rhs),rhsMax =  -8.51835962878411E-15  9.36156288871789E-06
(PID.TID 0000.0001)      cg3d_init_res =   2.56622135631259E-02
(PID.TID 0000.0001)      cg3d_iters (last) =                 20
(PID.TID 0000.0001)      cg3d_last_res =   6.94117114934748E-05
(PID.TID 0000.0001) // =======================================================
(PID.TID 0000.0001) // Begin MONITOR dynamic field statistics
(PID.TID 0000.0001) // =======================================================
(PID.TID 0000.0001) %MON time_tsnumber                =                    12
(PID.TID 0000.0001) %MON time_secondsf                =   2.4000000000000E+02
(PID.TID 0000.0001) %MON dynstat_eta_max              =   2.4356909987822E-05
(PID.TID 0000.0001) %MON dynstat_eta_min              =  -1.9564193031152E-05
(PID.TID 0000.0001) %MON dynstat_eta_mean             =   1.1890251727469E-08
(PID.TID 0000.0001) %MON dynstat_eta_sd               =   7.7338089514838E-06
(PID.TID 0000.0001) %MON dynstat_eta_del2             =   9.0389548124925E-07
(PID.TID 0000.0001) %MON dynstat_uvel_max             =   1.1729781042888E-03
(PID.TID 0000.0001) %MON dynstat_uvel_min             =  -1.1881098664969E-03
(PID.TID 0000.0001) %MON dynstat_uvel_mean            =  -5.2358777113281E-08
(PID.TID 0000.0001) %MON dynstat_uvel_sd              =   2.5217738858707E-04
(PID.TID 0000.0001) %MON dynstat_uvel_del2            =   6.6666904602864E-06
(PID.TID 0000.0001) %MON dynstat_vvel_max             =   0.0000000000000E+00
(PID.TID 0000.0001) %MON dynstat_vvel_min             =   0.0000000000000E+00
(PID.TID 0000.0001) %MON dynstat_vvel_mean            =   0.0000000000000E+00
(PID.TID 0000.0001) %MON dynstat_vvel_sd              =   0.0000000000000E+00
(PID.TID 0000.0001) %MON dynstat_vvel_del2            =   0.0000000000000E+00
(PID.TID 0000.0001) %MON dynstat_wvel_max             =   1.0524414150175E-03
(PID.TID 0000.0001) %MON dynstat_wvel_min             =  -1.1266306918856E-03
(PID.TID 0000.0001) %MON dynstat_wvel_mean            =   9.5857620646688E-09
(PID.TID 0000.0001) %MON dynstat_wvel_sd              =   2.4435548621950E-04
(PID.TID 0000.0001) %MON dynstat_wvel_del2            =   6.8476391327280E-06
(PID.TID 0000.0001) %MON dynstat_theta_max            =   9.9971135378129E-03
(PID.TID 0000.0001) %MON dynstat_theta_min            =  -3.1310774998588E-03
(PID.TID 0000.0001) %MON dynstat_theta_mean           =   5.0559296079981E-03
(PID.TID 0000.0001) %MON dynstat_theta_sd             =   2.8717705296375E-03
(PID.TID 0000.0001) %MON dynstat_theta_del2           =   6.0792961935476E-05
(PID.TID 0000.0001) %MON dynstat_salt_max             =   3.5000000000000E+01
(PID.TID 0000.0001) %MON dynstat_salt_min             =   3.5000000000000E+01
(PID.TID 0000.0001) %MON dynstat_salt_mean            =   3.5000000000000E+01
(PID.TID 0000.0001) %MON dynstat_salt_sd              =   1.2789769243682E-13
(PID.TID 0000.0001) %MON dynstat_salt_del2            =   0.0000000000000E+00
(PID.TID 0000.0001) %MON trAdv_CFL_u_max              =   2.2668173673955E-03
(PID.TID 0000.0001) %MON trAdv_CFL_v_max              =   0.0000000000000E+00
(PID.TID 0000.0001) %MON trAdv_CFL_w_max              =   6.2046151778547E-03
(PID.TID 0000.0001) %MON advcfl_uvel_max              =   1.7820478551174E-03
(PID.TID 0000.0001) %MON advcfl_vvel_max              =   0.0000000000000E+00
(PID.TID 0000.0001) %MON advcfl_wvel_max              =   6.7597841513139E-03
(PID.TID 0000.0001) %MON advcfl_W_hf_max              =   6.7597841513139E-03
(PID.TID 0000.0001) %MON pe_b_mean                    =   1.8592373408648E-12
(PID.TID 0000.0001) %MON ke_max                       =   6.5601583989525E-07
(PID.TID 0000.0001) %MON ke_mean                      =   6.1576327634934E-08
(PID.TID 0000.0001) %MON ke_vol                       =   2.0102771472217E+08
(PID.TID 0000.0001) %MON vort_r_min                   =   0.0000000000000E+00
(PID.TID 0000.0001) %MON vort_r_max                   =   0.0000000000000E+00
(PID.TID 0000.0001) %MON vort_a_mean                  =   0.0000000000000E+00
(PID.TID 0000.0001) %MON vort_a_sd                    =   0.0000000000000E+00
(PID.TID 0000.0001) %MON vort_p_mean                  =   0.0000000000000E+00
(PID.TID 0000.0001) %MON vort_p_sd                    =   0.0000000000000E+00
(PID.TID 0000.0001) %MON surfExpan_theta_mean         =  -2.4462907815498E-12
(PID.TID 0000.0001) %MON surfExpan_salt_mean          =  -6.4651278042277E-20
(PID.TID 0000.0001) // =======================================================
(PID.TID 0000.0001) // End MONITOR dynamic field statistics
(PID.TID 0000.0001) // =======================================================
 cg2d: Sum(rhs),rhsMax =  -4.32309584869062E-05  4.33671835051829E-04
(PID.TID 0000.0001)      cg2d_init_res =   2.75370909926457E-03
(PID.TID 0000.0001)      cg2d_iters(min,last) =      -1     188
(PID.TID 0000.0001)      cg2d_last_res =   5.05971457106788E-14
 cg3d: Sum(rhs),rhsMax =  -9.09324698872283E-14  9.34911620651195E-06
(PID.TID 0000.0001)      cg3d_init_res =   2.77788063463047E-02
(PID.TID 0000.0001)      cg3d_iters (last) =                 20
(PID.TID 0000.0001)      cg3d_last_res =   8.30168713597555E-05
(PID.TID 0000.0001) // =======================================================
(PID.TID 0000.0001) // Begin MONITOR dynamic field statistics
(PID.TID 0000.0001) // =======================================================
(PID.TID 0000.0001) %MON time_tsnumber                =                    13
(PID.TID 0000.0001) %MON time_secondsf                =   2.6000000000000E+02
(PID.TID 0000.0001) %MON dynstat_eta_max              =   2.4318955381698E-05
(PID.TID 0000.0001) %MON dynstat_eta_min              =  -1.9654152486992E-05
(PID.TID 0000.0001) %MON dynstat_eta_mean             =   1.5364788961369E-08
(PID.TID 0000.0001) %MON dynstat_eta_sd               =   7.7130522252282E-06
(PID.TID 0000.0001) %MON dynstat_eta_del2             =   9.0360759899852E-07
(PID.TID 0000.0001) %MON dynstat_uvel_max             =   1.2686359821125E-03
(PID.TID 0000.0001) %MON dynstat_uvel_min             =  -1.2796300061658E-03
(PID.TID 0000.0001) %MON dynstat_uvel_mean            =  -5.6093349068896E-08
(PID.TID 0000.0001) %MON dynstat_uvel_sd              =   2.7284271899567E-04
(PID.TID 0000.0001) %MON dynstat_uvel_del2            =   7.2068043557326E-06
(PID.TID 0000.0001) %MON dynstat_vvel_max             =   0.0000000000000E+00
(PID.TID 0000.0001) %MON dynstat_vvel_min             =   0.0000000000000E+00
(PID.TID 0000.0001) %MON dynstat_vvel_mean            =   0.0000000000000E+00
(PID.TID 0000.0001) %MON dynstat_vvel_sd              =   0.0000000000000E+00
(PID.TID 0000.0001) %MON dynstat_vvel_del2            =   0.0000000000000E+00
(PID.TID 0000.0001) %MON dynstat_wvel_max             =   1.1384137611138E-03
(PID.TID 0000.0001) %MON dynstat_wvel_min             =  -1.2188994854707E-03
(PID.TID 0000.0001) %MON dynstat_wvel_mean            =   1.1821138742778E-08
(PID.TID 0000.0001) %MON dynstat_wvel_sd              =   2.6444057339534E-04
(PID.TID 0000.0001) %MON dynstat_wvel_del2            =   7.4064274474087E-06
(PID.TID 0000.0001) %MON dynstat_theta_max            =   9.9969463998176E-03
(PID.TID 0000.0001) %MON dynstat_theta_min            =  -3.4098789371168E-03
(PID.TID 0000.0001) %MON dynstat_theta_mean           =   5.0552519383005E-03
(PID.TID 0000.0001) %MON dynstat_theta_sd             =   2.8698207278642E-03
(PID.TID 0000.0001) %MON dynstat_theta_del2           =   6.0717406146579E-05
(PID.TID 0000.0001) %MON dynstat_salt_max             =   3.5000000000000E+01
(PID.TID 0000.0001) %MON dynstat_salt_min             =   3.5000000000000E+01
(PID.TID 0000.0001) %MON dynstat_salt_mean            =   3.5000000000000E+01
(PID.TID 0000.0001) %MON dynstat_salt_sd              =   1.2789769243682E-13
(PID.TID 0000.0001) %MON dynstat_salt_del2            =   0.0000000000000E+00
(PID.TID 0000.0001) %MON trAdv_CFL_u_max              =   2.4671833230348E-03
(PID.TID 0000.0001) %MON trAdv_CFL_v_max              =   0.0000000000000E+00
(PID.TID 0000.0001) %MON trAdv_CFL_w_max              =   6.7597841513139E-03
(PID.TID 0000.0001) %MON advcfl_uvel_max              =   1.9193190563726E-03
(PID.TID 0000.0001) %MON advcfl_vvel_max              =   0.0000000000000E+00
(PID.TID 0000.0001) %MON advcfl_wvel_max              =   7.3133969128242E-03
(PID.TID 0000.0001) %MON advcfl_W_hf_max              =   7.3133969128242E-03
(PID.TID 0000.0001) %MON pe_b_mean                    =   1.8492737074875E-12
(PID.TID 0000.0001) %MON ke_max                       =   7.6782516626267E-07
(PID.TID 0000.0001) %MON ke_mean                      =   7.2097863440367E-08
(PID.TID 0000.0001) %MON ke_vol                       =   2.0102771472217E+08
(PID.TID 0000.0001) %MON vort_r_min                   =   0.0000000000000E+00
(PID.TID 0000.0001) %MON vort_r_max                   =   0.0000000000000E+00
(PID.TID 0000.0001) %MON vort_a_mean                  =   0.0000000000000E+00
(PID.TID 0000.0001) %MON vort_a_sd                    =   0.0000000000000E+00
(PID.TID 0000.0001) %MON vort_p_mean                  =   0.0000000000000E+00
(PID.TID 0000.0001) %MON vort_p_sd                    =   0.0000000000000E+00
(PID.TID 0000.0001) %MON surfExpan_theta_mean         =  -2.9931853149776E-12
(PID.TID 0000.0001) %MON surfExpan_salt_mean          =  -1.5776654757983E-19
(PID.TID 0000.0001) // =======================================================
(PID.TID 0000.0001) // End MONITOR dynamic field statistics
(PID.TID 0000.0001) // =======================================================
 cg2d: Sum(rhs),rhsMax =  -5.44220174378551E-05  4.33521691145650E-04
(PID.TID 0000.0001)      cg2d_init_res =   2.97595247288703E-03
(PID.TID 0000.0001)      cg2d_iters(min,last) =      -1     188
(PID.TID 0000.0001)      cg2d_last_res =   5.39776798493014E-14
 cg3d: Sum(rhs),rhsMax =  -4.74880551548651E-16  9.33566538433406E-06
(PID.TID 0000.0001)      cg3d_init_res =   2.98331359481091E-02
(PID.TID 0000.0001)      cg3d_iters (last) =                 20
(PID.TID 0000.0001)      cg3d_last_res =   9.62015430459197E-05
(PID.TID 0000.0001) // =======================================================
(PID.TID 0000.0001) // Begin MONITOR dynamic field statistics
(PID.TID 0000.0001) // =======================================================
(PID.TID 0000.0001) %MON time_tsnumber                =                    14
(PID.TID 0000.0001) %MON time_secondsf                =   2.8000000000000E+02
(PID.TID 0000.0001) %MON dynstat_eta_max              =   2.4292018912817E-05
(PID.TID 0000.0001) %MON dynstat_eta_min              =  -1.9736546679645E-05
(PID.TID 0000.0001) %MON dynstat_eta_mean             =   1.9335525804086E-08
(PID.TID 0000.0001) %MON dynstat_eta_sd               =   7.6956715926506E-06
(PID.TID 0000.0001) %MON dynstat_eta_del2             =   9.0329754968576E-07
(PID.TID 0000.0001) %MON dynstat_uvel_max             =   1.3639929635946E-03
(PID.TID 0000.0001) %MON dynstat_uvel_min             =  -1.3700392671140E-03
(PID.TID 0000.0001) %MON dynstat_uvel_mean            =  -5.0511517032373E-08
(PID.TID 0000.0001) %MON dynstat_uvel_sd              =   2.9345315028205E-04
(PID.TID 0000.0001) %MON dynstat_uvel_del2            =   7.7445384197673E-06
(PID.TID 0000.0001) %MON dynstat_vvel_max             =   0.0000000000000E+00
(PID.TID 0000.0001) %MON dynstat_vvel_min             =   0.0000000000000E+00
(PID.TID 0000.0001) %MON dynstat_vvel_mean            =   0.0000000000000E+00
(PID.TID 0000.0001) %MON dynstat_vvel_sd              =   0.0000000000000E+00
(PID.TID 0000.0001) %MON dynstat_vvel_del2            =   0.0000000000000E+00
(PID.TID 0000.0001) %MON dynstat_wvel_max             =   1.2240917759047E-03
(PID.TID 0000.0001) %MON dynstat_wvel_min             =  -1.3109077061537E-03
(PID.TID 0000.0001) %MON dynstat_wvel_mean            =   1.4246208841176E-08
(PID.TID 0000.0001) %MON dynstat_wvel_sd              =   2.8448167417593E-04
(PID.TID 0000.0001) %MON dynstat_wvel_del2            =   7.9633440236126E-06
(PID.TID 0000.0001) %MON dynstat_theta_max            =   9.9967658300596E-03
(PID.TID 0000.0001) %MON dynstat_theta_min            =  -3.6877759021972E-03
(PID.TID 0000.0001) %MON dynstat_theta_mean           =   5.0545742693504E-03
(PID.TID 0000.0001) %MON dynstat_theta_sd             =   2.8677209955138E-03
(PID.TID 0000.0001) %MON dynstat_theta_del2           =   6.0635968254523E-05
(PID.TID 0000.0001) %MON dynstat_salt_max             =   3.5000000000000E+01
(PID.TID 0000.0001) %MON dynstat_salt_min             =   3.5000000000000E+01
(PID.TID 0000.0001) %MON dynstat_salt_mean            =   3.5000000000000E+01
(PID.TID 0000.0001) %MON dynstat_salt_sd              =   1.2789769243682E-13
(PID.TID 0000.0001) %MON dynstat_salt_del2            =   0.0000000000000E+00
(PID.TID 0000.0001) %MON trAdv_CFL_u_max              =   2.6665989942618E-03
(PID.TID 0000.0001) %MON trAdv_CFL_v_max              =   0.0000000000000E+00
(PID.TID 0000.0001) %MON trAdv_CFL_w_max              =   7.3133969128242E-03
(PID.TID 0000.0001) %MON advcfl_uvel_max              =   2.0549240488895E-03
(PID.TID 0000.0001) %MON advcfl_vvel_max              =   0.0000000000000E+00
(PID.TID 0000.0001) %MON advcfl_wvel_max              =   7.8654462369222E-03
(PID.TID 0000.0001) %MON advcfl_W_hf_max              =   7.8654462369222E-03
(PID.TID 0000.0001) %MON pe_b_mean                    =   1.8409530876054E-12
(PID.TID 0000.0001) %MON ke_max                       =   8.8806779447256E-07
(PID.TID 0000.0001) %MON ke_mean                      =   8.3420226368403E-08
(PID.TID 0000.0001) %MON ke_vol                       =   2.0102771472217E+08
(PID.TID 0000.0001) %MON vort_r_min                   =   0.0000000000000E+00
(PID.TID 0000.0001) %MON vort_r_max                   =   0.0000000000000E+00
(PID.TID 0000.0001) %MON vort_a_mean                  =   0.0000000000000E+00
(PID.TID 0000.0001) %MON vort_a_sd                    =   0.0000000000000E+00
(PID.TID 0000.0001) %MON vort_p_mean                  =   0.0000000000000E+00
(PID.TID 0000.0001) %MON vort_p_sd                    =   0.0000000000000E+00
(PID.TID 0000.0001) %MON surfExpan_theta_mean         =  -2.5265833137210E-12
(PID.TID 0000.0001) %MON surfExpan_salt_mean          =   2.8287521283940E-19
(PID.TID 0000.0001) // =======================================================
(PID.TID 0000.0001) // End MONITOR dynamic field statistics
(PID.TID 0000.0001) // =======================================================
 cg2d: Sum(rhs),rhsMax =  -6.70027616847257E-05  4.33359555082218E-04
(PID.TID 0000.0001)      cg2d_init_res =   3.20611255751667E-03
(PID.TID 0000.0001)      cg2d_iters(min,last) =      -1     188
(PID.TID 0000.0001)      cg2d_last_res =   5.81116015616824E-14
 cg3d: Sum(rhs),rhsMax =  -7.07689115642118E-14  9.32122166363459E-06
(PID.TID 0000.0001)      cg3d_init_res =   3.19077048205234E-02
(PID.TID 0000.0001)      cg3d_iters (last) =                 20
(PID.TID 0000.0001)      cg3d_last_res =   1.31588563039081E-04
(PID.TID 0000.0001) // =======================================================
(PID.TID 0000.0001) // Begin MONITOR dynamic field statistics
(PID.TID 0000.0001) // =======================================================
(PID.TID 0000.0001) %MON time_tsnumber                =                    15
(PID.TID 0000.0001) %MON time_secondsf                =   3.0000000000000E+02
(PID.TID 0000.0001) %MON dynstat_eta_max              =   2.4283199670204E-05
(PID.TID 0000.0001) %MON dynstat_eta_min              =  -1.9799259634541E-05
(PID.TID 0000.0001) %MON dynstat_eta_mean             =   2.3796418472191E-08
(PID.TID 0000.0001) %MON dynstat_eta_sd               =   7.6838776755540E-06
(PID.TID 0000.0001) %MON dynstat_eta_del2             =   9.0296527353777E-07
(PID.TID 0000.0001) %MON dynstat_uvel_max             =   1.4590451372930E-03
(PID.TID 0000.0001) %MON dynstat_uvel_min             =  -1.4593577234913E-03
(PID.TID 0000.0001) %MON dynstat_uvel_mean            =  -3.7041337238495E-08
(PID.TID 0000.0001) %MON dynstat_uvel_sd              =   3.1400836032763E-04
(PID.TID 0000.0001) %MON dynstat_uvel_del2            =   8.2798863116791E-06
(PID.TID 0000.0001) %MON dynstat_vvel_max             =   0.0000000000000E+00
(PID.TID 0000.0001) %MON dynstat_vvel_min             =   0.0000000000000E+00
(PID.TID 0000.0001) %MON dynstat_vvel_mean            =   0.0000000000000E+00
(PID.TID 0000.0001) %MON dynstat_vvel_sd              =   0.0000000000000E+00
(PID.TID 0000.0001) %MON dynstat_vvel_del2            =   0.0000000000000E+00
(PID.TID 0000.0001) %MON dynstat_wvel_max             =   1.3094688797501E-03
(PID.TID 0000.0001) %MON dynstat_wvel_min             =  -1.4026527300851E-03
(PID.TID 0000.0001) %MON dynstat_wvel_mean            =   1.6840766231716E-08
(PID.TID 0000.0001) %MON dynstat_wvel_sd              =   3.0447846421357E-04
(PID.TID 0000.0001) %MON dynstat_wvel_del2            =   8.5183755902237E-06
(PID.TID 0000.0001) %MON dynstat_theta_max            =   9.9965719951516E-03
(PID.TID 0000.0001) %MON dynstat_theta_min            =  -3.9647753156935E-03
(PID.TID 0000.0001) %MON dynstat_theta_mean           =   5.0538966010511E-03
(PID.TID 0000.0001) %MON dynstat_theta_sd             =   2.8654739005571E-03
(PID.TID 0000.0001) %MON dynstat_theta_del2           =   6.0548745734449E-05
(PID.TID 0000.0001) %MON dynstat_salt_max             =   3.5000000000000E+01
(PID.TID 0000.0001) %MON dynstat_salt_min             =   3.5000000000000E+01
(PID.TID 0000.0001) %MON dynstat_salt_mean            =   3.5000000000000E+01
(PID.TID 0000.0001) %MON dynstat_salt_sd              =   1.2789769243682E-13
(PID.TID 0000.0001) %MON dynstat_salt_del2            =   0.0000000000000E+00
(PID.TID 0000.0001) %MON trAdv_CFL_u_max              =   2.8650629726837E-03
(PID.TID 0000.0001) %MON trAdv_CFL_v_max              =   0.0000000000000E+00
(PID.TID 0000.0001) %MON trAdv_CFL_w_max              =   7.8654462369222E-03
(PID.TID 0000.0001) %MON advcfl_uvel_max              =   2.1888929419169E-03
(PID.TID 0000.0001) %MON advcfl_vvel_max              =   0.0000000000000E+00
(PID.TID 0000.0001) %MON advcfl_wvel_max              =   8.4159163805107E-03
(PID.TID 0000.0001) %MON advcfl_W_hf_max              =   8.4159163805107E-03
(PID.TID 0000.0001) %MON pe_b_mean                    =   1.8353207629900E-12
(PID.TID 0000.0001) %MON ke_max                       =   1.0166626709796E-06
(PID.TID 0000.0001) %MON ke_mean                      =   9.5537179605869E-08
(PID.TID 0000.0001) %MON ke_vol                       =   2.0102771472217E+08
(PID.TID 0000.0001) %MON vort_r_min                   =   0.0000000000000E+00
(PID.TID 0000.0001) %MON vort_r_max                   =   0.0000000000000E+00
(PID.TID 0000.0001) %MON vort_a_mean                  =   0.0000000000000E+00
(PID.TID 0000.0001) %MON vort_a_sd                    =   0.0000000000000E+00
(PID.TID 0000.0001) %MON vort_p_mean                  =   0.0000000000000E+00
(PID.TID 0000.0001) %MON vort_p_sd                    =   0.0000000000000E+00
(PID.TID 0000.0001) %MON surfExpan_theta_mean         =  -1.2096802770344E-12
(PID.TID 0000.0001) %MON surfExpan_salt_mean          =   2.6285346910870E-20
(PID.TID 0000.0001) // =======================================================
(PID.TID 0000.0001) // End MONITOR dynamic field statistics
(PID.TID 0000.0001) // =======================================================
 cg2d: Sum(rhs),rhsMax =  -8.01454412584085E-05  4.33185344429926E-04
(PID.TID 0000.0001)      cg2d_init_res =   3.45602853994067E-03
(PID.TID 0000.0001)      cg2d_iters(min,last) =      -1     188
(PID.TID 0000.0001)      cg2d_last_res =   5.90339006065356E-14
 cg3d: Sum(rhs),rhsMax =  -4.79906912820294E-14  9.30579673123331E-06
(PID.TID 0000.0001)      cg3d_init_res =   3.40271335820852E-02
(PID.TID 0000.0001)      cg3d_iters (last) =                 20
(PID.TID 0000.0001)      cg3d_last_res =   1.41194268585270E-04
(PID.TID 0000.0001) // =======================================================
(PID.TID 0000.0001) // Begin MONITOR dynamic field statistics
(PID.TID 0000.0001) // =======================================================
(PID.TID 0000.0001) %MON time_tsnumber                =                    16
(PID.TID 0000.0001) %MON time_secondsf                =   3.2000000000000E+02
(PID.TID 0000.0001) %MON dynstat_eta_max              =   2.4293325329807E-05
(PID.TID 0000.0001) %MON dynstat_eta_min              =  -1.9833440893352E-05
(PID.TID 0000.0001) %MON dynstat_eta_mean             =   2.8452674579747E-08
(PID.TID 0000.0001) %MON dynstat_eta_sd               =   7.6787949335267E-06
(PID.TID 0000.0001) %MON dynstat_eta_del2             =   9.0260894435840E-07
(PID.TID 0000.0001) %MON dynstat_uvel_max             =   1.5537871753041E-03
(PID.TID 0000.0001) %MON dynstat_uvel_min             =  -1.5476072305757E-03
(PID.TID 0000.0001) %MON dynstat_uvel_mean            =  -1.7979651008606E-08
(PID.TID 0000.0001) %MON dynstat_uvel_sd              =   3.3450803940287E-04
(PID.TID 0000.0001) %MON dynstat_uvel_del2            =   8.8128423624169E-06
(PID.TID 0000.0001) %MON dynstat_vvel_max             =   0.0000000000000E+00
(PID.TID 0000.0001) %MON dynstat_vvel_min             =   0.0000000000000E+00
(PID.TID 0000.0001) %MON dynstat_vvel_mean            =   0.0000000000000E+00
(PID.TID 0000.0001) %MON dynstat_vvel_sd              =   0.0000000000000E+00
(PID.TID 0000.0001) %MON dynstat_vvel_del2            =   0.0000000000000E+00
(PID.TID 0000.0001) %MON dynstat_wvel_max             =   1.3945395644792E-03
(PID.TID 0000.0001) %MON dynstat_wvel_min             =  -1.4941259532315E-03
(PID.TID 0000.0001) %MON dynstat_wvel_mean            =   1.9587389942445E-08
(PID.TID 0000.0001) %MON dynstat_wvel_sd              =   3.2443063312446E-04
(PID.TID 0000.0001) %MON dynstat_wvel_del2            =   9.0715099075580E-06
(PID.TID 0000.0001) %MON dynstat_theta_max            =   9.9963650744249E-03
(PID.TID 0000.0001) %MON dynstat_theta_min            =  -4.2408839884753E-03
(PID.TID 0000.0001) %MON dynstat_theta_mean           =   5.0532189333292E-03
(PID.TID 0000.0001) %MON dynstat_theta_sd             =   2.8630828908746E-03
(PID.TID 0000.0001) %MON dynstat_theta_del2           =   6.0455755767190E-05
(PID.TID 0000.0001) %MON dynstat_salt_max             =   3.5000000000000E+01
(PID.TID 0000.0001) %MON dynstat_salt_min             =   3.5000000000000E+01
(PID.TID 0000.0001) %MON dynstat_salt_mean            =   3.5000000000000E+01
(PID.TID 0000.0001) %MON dynstat_salt_sd              =   1.2789769243682E-13
(PID.TID 0000.0001) %MON dynstat_salt_del2            =   0.0000000000000E+00
(PID.TID 0000.0001) %MON trAdv_CFL_u_max              =   3.0625736896873E-03
(PID.TID 0000.0001) %MON trAdv_CFL_v_max              =   0.0000000000000E+00
(PID.TID 0000.0001) %MON trAdv_CFL_w_max              =   8.4159163805107E-03
(PID.TID 0000.0001) %MON advcfl_uvel_max              =   2.3212585162207E-03
(PID.TID 0000.0001) %MON advcfl_vvel_max              =   0.0000000000000E+00
(PID.TID 0000.0001) %MON advcfl_wvel_max              =   8.9647557193890E-03
(PID.TID 0000.0001) %MON advcfl_W_hf_max              =   8.9647557193890E-03
(PID.TID 0000.0001) %MON pe_b_mean                    =   1.8329010907476E-12
(PID.TID 0000.0001) %MON ke_max                       =   1.1535199710873E-06
(PID.TID 0000.0001) %MON ke_mean                      =   1.0844245811138E-07
(PID.TID 0000.0001) %MON ke_vol                       =   2.0102771472217E+08
(PID.TID 0000.0001) %MON vort_r_min                   =   0.0000000000000E+00
(PID.TID 0000.0001) %MON vort_r_max                   =   0.0000000000000E+00
(PID.TID 0000.0001) %MON vort_a_mean                  =   0.0000000000000E+00
(PID.TID 0000.0001) %MON vort_a_sd                    =   0.0000000000000E+00
(PID.TID 0000.0001) %MON vort_p_mean                  =   0.0000000000000E+00
(PID.TID 0000.0001) %MON vort_p_sd                    =   0.0000000000000E+00
(PID.TID 0000.0001) %MON surfExpan_theta_mean         =   7.2130391543672E-13
(PID.TID 0000.0001) %MON surfExpan_salt_mean          =  -4.3410582666601E-19
(PID.TID 0000.0001) // =======================================================
(PID.TID 0000.0001) // End MONITOR dynamic field statistics
(PID.TID 0000.0001) // =======================================================
 cg2d: Sum(rhs),rhsMax =  -9.29871420804057E-05  4.32999021012156E-04
(PID.TID 0000.0001)      cg2d_init_res =   3.63349977221947E-03
(PID.TID 0000.0001)      cg2d_iters(min,last) =      -1     188
(PID.TID 0000.0001)      cg2d_last_res =   6.72749733092258E-14
 cg3d: Sum(rhs),rhsMax =   1.10906075989625E-13  9.29001327523831E-06
(PID.TID 0000.0001)      cg3d_init_res =   3.60824165520454E-02
(PID.TID 0000.0001)      cg3d_iters (last) =                 20
(PID.TID 0000.0001)      cg3d_last_res =   6.61422646662763E-05
(PID.TID 0000.0001) // =======================================================
(PID.TID 0000.0001) // Begin MONITOR dynamic field statistics
(PID.TID 0000.0001) // =======================================================
(PID.TID 0000.0001) %MON time_tsnumber                =                    17
(PID.TID 0000.0001) %MON time_secondsf                =   3.4000000000000E+02
(PID.TID 0000.0001) %MON dynstat_eta_max              =   2.4319287941448E-05
(PID.TID 0000.0001) %MON dynstat_eta_min              =  -1.9834234562965E-05
(PID.TID 0000.0001) %MON dynstat_eta_mean             =   3.2997446379945E-08
(PID.TID 0000.0001) %MON dynstat_eta_sd               =   7.6808637943708E-06
(PID.TID 0000.0001) %MON dynstat_eta_del2             =   9.0223241175011E-07
(PID.TID 0000.0001) %MON dynstat_uvel_max             =   1.6481955894652E-03
(PID.TID 0000.0001) %MON dynstat_uvel_min             =  -1.6348078571353E-03
(PID.TID 0000.0001) %MON dynstat_uvel_mean            =   3.9082009205976E-09
(PID.TID 0000.0001) %MON dynstat_uvel_sd              =   3.5495186672110E-04
(PID.TID 0000.0001) %MON dynstat_uvel_del2            =   9.3433993640755E-06
(PID.TID 0000.0001) %MON dynstat_vvel_max             =   0.0000000000000E+00
(PID.TID 0000.0001) %MON dynstat_vvel_min             =   0.0000000000000E+00
(PID.TID 0000.0001) %MON dynstat_vvel_mean            =   0.0000000000000E+00
(PID.TID 0000.0001) %MON dynstat_vvel_sd              =   0.0000000000000E+00
(PID.TID 0000.0001) %MON dynstat_vvel_del2            =   0.0000000000000E+00
(PID.TID 0000.0001) %MON dynstat_wvel_max             =   1.4792965378222E-03
(PID.TID 0000.0001) %MON dynstat_wvel_min             =  -1.5853259712978E-03
(PID.TID 0000.0001) %MON dynstat_wvel_mean            =   2.2471426775002E-08
(PID.TID 0000.0001) %MON dynstat_wvel_sd              =   3.4433791802981E-04
(PID.TID 0000.0001) %MON dynstat_wvel_del2            =   9.6227369466001E-06
(PID.TID 0000.0001) %MON dynstat_theta_max            =   9.9961452562443E-03
(PID.TID 0000.0001) %MON dynstat_theta_min            =  -4.5354633408602E-03
(PID.TID 0000.0001) %MON dynstat_theta_mean           =   5.0525412661447E-03
(PID.TID 0000.0001) %MON dynstat_theta_sd             =   2.8605481253126E-03
(PID.TID 0000.0001) %MON dynstat_theta_del2           =   6.0356961222833E-05
(PID.TID 0000.0001) %MON dynstat_salt_max             =   3.5000000000000E+01
(PID.TID 0000.0001) %MON dynstat_salt_min             =   3.5000000000000E+01
(PID.TID 0000.0001) %MON dynstat_salt_mean            =   3.5000000000000E+01
(PID.TID 0000.0001) %MON dynstat_salt_sd              =   1.2789769243682E-13
(PID.TID 0000.0001) %MON dynstat_salt_del2            =   0.0000000000000E+00
(PID.TID 0000.0001) %MON trAdv_CFL_u_max              =   3.2591292068471E-03
(PID.TID 0000.0001) %MON trAdv_CFL_v_max              =   0.0000000000000E+00
(PID.TID 0000.0001) %MON trAdv_CFL_w_max              =   8.9647557193890E-03
(PID.TID 0000.0001) %MON advcfl_uvel_max              =   2.4520508729778E-03
(PID.TID 0000.0001) %MON advcfl_vvel_max              =   0.0000000000000E+00
(PID.TID 0000.0001) %MON advcfl_wvel_max              =   9.5119558277868E-03
(PID.TID 0000.0001) %MON advcfl_W_hf_max              =   9.5119558277868E-03
(PID.TID 0000.0001) %MON pe_b_mean                    =   1.8338975509536E-12
(PID.TID 0000.0001) %MON ke_max                       =   1.2985560274193E-06
(PID.TID 0000.0001) %MON ke_mean                      =   1.2212977465573E-07
(PID.TID 0000.0001) %MON ke_vol                       =   2.0102771472217E+08
(PID.TID 0000.0001) %MON vort_r_min                   =   0.0000000000000E+00
(PID.TID 0000.0001) %MON vort_r_max                   =   0.0000000000000E+00
(PID.TID 0000.0001) %MON vort_a_mean                  =   0.0000000000000E+00
(PID.TID 0000.0001) %MON vort_a_sd                    =   0.0000000000000E+00
(PID.TID 0000.0001) %MON vort_p_mean                  =   0.0000000000000E+00
(PID.TID 0000.0001) %MON vort_p_sd                    =   0.0000000000000E+00
(PID.TID 0000.0001) %MON surfExpan_theta_mean         =   3.1270279918701E-12
(PID.TID 0000.0001) %MON surfExpan_salt_mean          =   1.2830446453432E-19
(PID.TID 0000.0001) // =======================================================
(PID.TID 0000.0001) // End MONITOR dynamic field statistics
(PID.TID 0000.0001) // =======================================================
 cg2d: Sum(rhs),rhsMax =  -1.08312698044385E-04  4.32800490520967E-04
(PID.TID 0000.0001)      cg2d_init_res =   3.87175612185508E-03
(PID.TID 0000.0001)      cg2d_iters(min,last) =      -1     188
(PID.TID 0000.0001)      cg2d_last_res =   6.94115691254874E-14
 cg3d: Sum(rhs),rhsMax =  -7.71518265940685E-16  9.27315321311412E-06
(PID.TID 0000.0001)      cg3d_init_res =   3.81712466928654E-02
(PID.TID 0000.0001)      cg3d_iters (last) =                 20
(PID.TID 0000.0001)      cg3d_last_res =   8.87876108179410E-05
(PID.TID 0000.0001) // =======================================================
(PID.TID 0000.0001) // Begin MONITOR dynamic field statistics
(PID.TID 0000.0001) // =======================================================
(PID.TID 0000.0001) %MON time_tsnumber                =                    18
(PID.TID 0000.0001) %MON time_secondsf                =   3.6000000000000E+02
(PID.TID 0000.0001) %MON dynstat_eta_max              =   2.4356834565096E-05
(PID.TID 0000.0001) %MON dynstat_eta_min              =  -1.9801469754891E-05
(PID.TID 0000.0001) %MON dynstat_eta_mean             =   3.8418255082550E-08
(PID.TID 0000.0001) %MON dynstat_eta_sd               =   7.6898829287862E-06
(PID.TID 0000.0001) %MON dynstat_eta_del2             =   9.0183463890830E-07
(PID.TID 0000.0001) %MON dynstat_uvel_max             =   1.7422719617135E-03
(PID.TID 0000.0001) %MON dynstat_uvel_min             =  -1.7209782421007E-03
(PID.TID 0000.0001) %MON dynstat_uvel_mean            =   2.5590671494634E-08
(PID.TID 0000.0001) %MON dynstat_uvel_sd              =   3.7533951532770E-04
(PID.TID 0000.0001) %MON dynstat_uvel_del2            =   9.8715498013233E-06
(PID.TID 0000.0001) %MON dynstat_vvel_max             =   0.0000000000000E+00
(PID.TID 0000.0001) %MON dynstat_vvel_min             =   0.0000000000000E+00
(PID.TID 0000.0001) %MON dynstat_vvel_mean            =   0.0000000000000E+00
(PID.TID 0000.0001) %MON dynstat_vvel_sd              =   0.0000000000000E+00
(PID.TID 0000.0001) %MON dynstat_vvel_del2            =   0.0000000000000E+00
(PID.TID 0000.0001) %MON dynstat_wvel_max             =   1.5637344573965E-03
(PID.TID 0000.0001) %MON dynstat_wvel_min             =  -1.6762503453014E-03
(PID.TID 0000.0001) %MON dynstat_wvel_mean            =   2.5480774903541E-08
(PID.TID 0000.0001) %MON dynstat_wvel_sd              =   3.6419996049523E-04
(PID.TID 0000.0001) %MON dynstat_wvel_del2            =   1.0172041569586E-05
(PID.TID 0000.0001) %MON dynstat_theta_max            =   9.9959127361384E-03
(PID.TID 0000.0001) %MON dynstat_theta_min            =  -4.8312008159501E-03
(PID.TID 0000.0001) %MON dynstat_theta_mean           =   5.0518635994796E-03
(PID.TID 0000.0001) %MON dynstat_theta_sd             =   2.8578778031653E-03
(PID.TID 0000.0001) %MON dynstat_theta_del2           =   6.0252708758422E-05
(PID.TID 0000.0001) %MON dynstat_salt_max             =   3.5000000000000E+01
(PID.TID 0000.0001) %MON dynstat_salt_min             =   3.5000000000000E+01
(PID.TID 0000.0001) %MON dynstat_salt_mean            =   3.5000000000000E+01
(PID.TID 0000.0001) %MON dynstat_salt_sd              =   1.2789769243682E-13
(PID.TID 0000.0001) %MON dynstat_salt_del2            =   0.0000000000000E+00
(PID.TID 0000.0001) %MON trAdv_CFL_u_max              =   3.4547273748987E-03
(PID.TID 0000.0001) %MON trAdv_CFL_v_max              =   0.0000000000000E+00
(PID.TID 0000.0001) %MON trAdv_CFL_w_max              =   9.5119558277868E-03
(PID.TID 0000.0001) %MON advcfl_uvel_max              =   2.5812979687494E-03
(PID.TID 0000.0001) %MON advcfl_vvel_max              =   0.0000000000000E+00
(PID.TID 0000.0001) %MON advcfl_wvel_max              =   1.0057502071808E-02
(PID.TID 0000.0001) %MON advcfl_W_hf_max              =   1.0057502071808E-02
(PID.TID 0000.0001) %MON pe_b_mean                    =   1.8382188850460E-12
(PID.TID 0000.0001) %MON ke_max                       =   1.4516849737310E-06
(PID.TID 0000.0001) %MON ke_mean                      =   1.3659277363231E-07
(PID.TID 0000.0001) %MON ke_vol                       =   2.0102771472217E+08
(PID.TID 0000.0001) %MON vort_r_min                   =   0.0000000000000E+00
(PID.TID 0000.0001) %MON vort_r_max                   =   0.0000000000000E+00
(PID.TID 0000.0001) %MON vort_a_mean                  =   0.0000000000000E+00
(PID.TID 0000.0001) %MON vort_a_sd                    =   0.0000000000000E+00
(PID.TID 0000.0001) %MON vort_p_mean                  =   0.0000000000000E+00
(PID.TID 0000.0001) %MON vort_p_sd                    =   0.0000000000000E+00
(PID.TID 0000.0001) %MON surfExpan_theta_mean         =   5.2730813496834E-12
(PID.TID 0000.0001) %MON surfExpan_salt_mean          =  -4.2256445698011E-19
(PID.TID 0000.0001) // =======================================================
(PID.TID 0000.0001) // End MONITOR dynamic field statistics
(PID.TID 0000.0001) // =======================================================
 cg2d: Sum(rhs),rhsMax =  -1.26383495723623E-04  4.32589652149660E-04
(PID.TID 0000.0001)      cg2d_init_res =   4.10414722133785E-03
(PID.TID 0000.0001)      cg2d_iters(min,last) =      -1     188
(PID.TID 0000.0001)      cg2d_last_res =   7.49966826009131E-14
 cg3d: Sum(rhs),rhsMax =   6.66979492469633E-14  9.25538219337692E-06
(PID.TID 0000.0001)      cg3d_init_res =   4.02366198424691E-02
(PID.TID 0000.0001)      cg3d_iters (last) =                 20
(PID.TID 0000.0001)      cg3d_last_res =   1.49259789625735E-04
(PID.TID 0000.0001) // =======================================================
(PID.TID 0000.0001) // Begin MONITOR dynamic field statistics
(PID.TID 0000.0001) // =======================================================
(PID.TID 0000.0001) %MON time_tsnumber                =                    19
(PID.TID 0000.0001) %MON time_secondsf                =   3.8000000000000E+02
(PID.TID 0000.0001) %MON dynstat_eta_max              =   2.4400785386489E-05
(PID.TID 0000.0001) %MON dynstat_eta_min              =  -1.9738401153790E-05
(PID.TID 0000.0001) %MON dynstat_eta_mean             =   4.4806085939942E-08
(PID.TID 0000.0001) %MON dynstat_eta_sd               =   7.7054145192011E-06
(PID.TID 0000.0001) %MON dynstat_eta_del2             =   9.0141448332306E-07
(PID.TID 0000.0001) %MON dynstat_uvel_max             =   1.8360113029615E-03
(PID.TID 0000.0001) %MON dynstat_uvel_min             =  -1.8061332594784E-03
(PID.TID 0000.0001) %MON dynstat_uvel_mean            =   4.4335358379840E-08
(PID.TID 0000.0001) %MON dynstat_uvel_sd              =   3.9567068020326E-04
(PID.TID 0000.0001) %MON dynstat_uvel_del2            =   1.0397287263540E-05
(PID.TID 0000.0001) %MON dynstat_vvel_max             =   0.0000000000000E+00
(PID.TID 0000.0001) %MON dynstat_vvel_min             =   0.0000000000000E+00
(PID.TID 0000.0001) %MON dynstat_vvel_mean            =   0.0000000000000E+00
(PID.TID 0000.0001) %MON dynstat_vvel_sd              =   0.0000000000000E+00
(PID.TID 0000.0001) %MON dynstat_vvel_del2            =   0.0000000000000E+00
(PID.TID 0000.0001) %MON dynstat_wvel_max             =   1.6478463996795E-03
(PID.TID 0000.0001) %MON dynstat_wvel_min             =  -1.7668956684302E-03
(PID.TID 0000.0001) %MON dynstat_wvel_mean            =   2.8605598912738E-08
(PID.TID 0000.0001) %MON dynstat_wvel_sd              =   3.8401641610738E-04
(PID.TID 0000.0001) %MON dynstat_wvel_del2            =   1.0719410107644E-05
(PID.TID 0000.0001) %MON dynstat_theta_max            =   9.9956677124427E-03
(PID.TID 0000.0001) %MON dynstat_theta_min            =  -5.1266663622090E-03
(PID.TID 0000.0001) %MON dynstat_theta_mean           =   5.0511859334128E-03
(PID.TID 0000.0001) %MON dynstat_theta_sd             =   2.8550775860318E-03
(PID.TID 0000.0001) %MON dynstat_theta_del2           =   6.0143141474423E-05
(PID.TID 0000.0001) %MON dynstat_salt_max             =   3.5000000000000E+01
(PID.TID 0000.0001) %MON dynstat_salt_min             =   3.5000000000000E+01
(PID.TID 0000.0001) %MON dynstat_salt_mean            =   3.5000000000000E+01
(PID.TID 0000.0001) %MON dynstat_salt_sd              =   1.2789769243682E-13
(PID.TID 0000.0001) %MON dynstat_salt_del2            =   0.0000000000000E+00
(PID.TID 0000.0001) %MON trAdv_CFL_u_max              =   3.6493665734537E-03
(PID.TID 0000.0001) %MON trAdv_CFL_v_max              =   0.0000000000000E+00
(PID.TID 0000.0001) %MON trAdv_CFL_w_max              =   1.0057502071808E-02
(PID.TID 0000.0001) %MON advcfl_uvel_max              =   2.7090221130810E-03
(PID.TID 0000.0001) %MON advcfl_vvel_max              =   0.0000000000000E+00
(PID.TID 0000.0001) %MON advcfl_wvel_max              =   1.0601374010581E-02
(PID.TID 0000.0001) %MON advcfl_W_hf_max              =   1.0601374010581E-02
(PID.TID 0000.0001) %MON pe_b_mean                    =   1.8456681846222E-12
(PID.TID 0000.0001) %MON ke_max                       =   1.6128184516924E-06
(PID.TID 0000.0001) %MON ke_mean                      =   1.5182507431974E-07
(PID.TID 0000.0001) %MON ke_vol                       =   2.0102771472217E+08
(PID.TID 0000.0001) %MON vort_r_min                   =   0.0000000000000E+00
(PID.TID 0000.0001) %MON vort_r_max                   =   0.0000000000000E+00
(PID.TID 0000.0001) %MON vort_a_mean                  =   0.0000000000000E+00
(PID.TID 0000.0001) %MON vort_a_sd                    =   0.0000000000000E+00
(PID.TID 0000.0001) %MON vort_p_mean                  =   0.0000000000000E+00
(PID.TID 0000.0001) %MON vort_p_sd                    =   0.0000000000000E+00
(PID.TID 0000.0001) %MON surfExpan_theta_mean         =   7.1066867462822E-12
(PID.TID 0000.0001) %MON surfExpan_salt_mean          =   3.2959624595201E-19
(PID.TID 0000.0001) // =======================================================
(PID.TID 0000.0001) // End MONITOR dynamic field statistics
(PID.TID 0000.0001) // =======================================================
 cg2d: Sum(rhs),rhsMax =  -1.45689999482237E-04  4.32366391233127E-04
(PID.TID 0000.0001)      cg2d_init_res =   4.33039455746578E-03
(PID.TID 0000.0001)      cg2d_iters(min,last) =      -1     188
(PID.TID 0000.0001)      cg2d_last_res =   7.72306707858031E-14
 cg3d: Sum(rhs),rhsMax =   6.31708227394334E-14  9.23670313445262E-06
(PID.TID 0000.0001)      cg3d_init_res =   4.22951835833370E-02
(PID.TID 0000.0001)      cg3d_iters (last) =                 20
(PID.TID 0000.0001)      cg3d_last_res =   1.24606845112038E-04
(PID.TID 0000.0001) // =======================================================
(PID.TID 0000.0001) // Begin MONITOR dynamic field statistics
(PID.TID 0000.0001) // =======================================================
(PID.TID 0000.0001) %MON time_tsnumber                =                    20
(PID.TID 0000.0001) %MON time_secondsf                =   4.0000000000000E+02
(PID.TID 0000.0001) %MON dynstat_eta_max              =   2.4446687824160E-05
(PID.TID 0000.0001) %MON dynstat_eta_min              =  -1.9652912546899E-05
(PID.TID 0000.0001) %MON dynstat_eta_mean             =   5.1624063585583E-08
(PID.TID 0000.0001) %MON dynstat_eta_sd               =   7.7265468762993E-06
(PID.TID 0000.0001) %MON dynstat_eta_del2             =   9.0097312316597E-07
(PID.TID 0000.0001) %MON dynstat_uvel_max             =   1.9294110172385E-03
(PID.TID 0000.0001) %MON dynstat_uvel_min             =  -1.8902866937274E-03
(PID.TID 0000.0001) %MON dynstat_uvel_mean            =   5.8009588764840E-08
(PID.TID 0000.0001) %MON dynstat_uvel_sd              =   4.1594507308718E-04
(PID.TID 0000.0001) %MON dynstat_uvel_del2            =   1.0920605402018E-05
(PID.TID 0000.0001) %MON dynstat_vvel_max             =   0.0000000000000E+00
(PID.TID 0000.0001) %MON dynstat_vvel_min             =   0.0000000000000E+00
(PID.TID 0000.0001) %MON dynstat_vvel_mean            =   0.0000000000000E+00
(PID.TID 0000.0001) %MON dynstat_vvel_sd              =   0.0000000000000E+00
(PID.TID 0000.0001) %MON dynstat_vvel_del2            =   0.0000000000000E+00
(PID.TID 0000.0001) %MON dynstat_wvel_max             =   1.7316275755016E-03
(PID.TID 0000.0001) %MON dynstat_wvel_min             =  -1.8572586749403E-03
(PID.TID 0000.0001) %MON dynstat_wvel_mean            =   3.1837942303141E-08
(PID.TID 0000.0001) %MON dynstat_wvel_sd              =   4.0378702748497E-04
(PID.TID 0000.0001) %MON dynstat_wvel_del2            =   1.1264832437338E-05
(PID.TID 0000.0001) %MON dynstat_theta_max            =   9.9954103871899E-03
(PID.TID 0000.0001) %MON dynstat_theta_min            =  -5.4218599607177E-03
(PID.TID 0000.0001) %MON dynstat_theta_mean           =   5.0505082680345E-03
(PID.TID 0000.0001) %MON dynstat_theta_sd             =   2.8521512453045E-03
(PID.TID 0000.0001) %MON dynstat_theta_del2           =   6.0028355207856E-05
(PID.TID 0000.0001) %MON dynstat_salt_max             =   3.5000000000000E+01
(PID.TID 0000.0001) %MON dynstat_salt_min             =   3.5000000000000E+01
(PID.TID 0000.0001) %MON dynstat_salt_mean            =   3.5000000000000E+01
(PID.TID 0000.0001) %MON dynstat_salt_sd              =   1.2789769243682E-13
(PID.TID 0000.0001) %MON dynstat_salt_del2            =   0.0000000000000E+00
(PID.TID 0000.0001) %MON trAdv_CFL_u_max              =   3.8430442268131E-03
(PID.TID 0000.0001) %MON trAdv_CFL_v_max              =   0.0000000000000E+00
(PID.TID 0000.0001) %MON trAdv_CFL_w_max              =   1.0601374010581E-02
(PID.TID 0000.0001) %MON advcfl_uvel_max              =   2.8440868089353E-03
(PID.TID 0000.0001) %MON advcfl_vvel_max              =   0.0000000000000E+00
(PID.TID 0000.0001) %MON advcfl_wvel_max              =   1.1143552049642E-02
(PID.TID 0000.0001) %MON advcfl_W_hf_max              =   1.1143552049642E-02
(PID.TID 0000.0001) %MON pe_b_mean                    =   1.8558257744292E-12
(PID.TID 0000.0001) %MON ke_max                       =   1.7818671020010E-06
(PID.TID 0000.0001) %MON ke_mean                      =   1.6782030208676E-07
(PID.TID 0000.0001) %MON ke_vol                       =   2.0102771472217E+08
(PID.TID 0000.0001) %MON vort_r_min                   =   0.0000000000000E+00
(PID.TID 0000.0001) %MON vort_r_max                   =   0.0000000000000E+00
(PID.TID 0000.0001) %MON vort_a_mean                  =   0.0000000000000E+00
(PID.TID 0000.0001) %MON vort_a_sd                    =   0.0000000000000E+00
(PID.TID 0000.0001) %MON vort_p_mean                  =   0.0000000000000E+00
(PID.TID 0000.0001) %MON vort_p_sd                    =   0.0000000000000E+00
(PID.TID 0000.0001) %MON surfExpan_theta_mean         =   8.5641378161705E-12
(PID.TID 0000.0001) %MON surfExpan_salt_mean          =   5.8215561939938E-19
(PID.TID 0000.0001) // =======================================================
(PID.TID 0000.0001) // End MONITOR dynamic field statistics
(PID.TID 0000.0001) // =======================================================
(PID.TID 0000.0001) // =======================================================
(PID.TID 0000.0001) // Begin OBCS MONITOR field statistics
(PID.TID 0000.0001) // =======================================================
(PID.TID 0000.0001) %MON obc_time_tsnumber            =                    20
(PID.TID 0000.0001) %MON obc_time_secondsf            =   4.0000000000000E+02
(PID.TID 0000.0001) %MON obc_E_uVel_max               =   1.4653700701678E-04
(PID.TID 0000.0001) %MON obc_E_uVel_min               =  -1.6534472812889E-04
(PID.TID 0000.0001) %MON obc_E_uVel_mean              =  -6.8304738155955E-22
(PID.TID 0000.0001) %MON obc_E_uVel_sd                =   3.2025630133614E-05
(PID.TID 0000.0001) %MON obc_E_uVel_Int               =  -2.7321894746635E-17
(PID.TID 0000.0001) // =======================================================
(PID.TID 0000.0001) // End OBCS MONITOR field statistics
(PID.TID 0000.0001) // =======================================================
(PID.TID 0000.0001) %CHECKPOINT        20 ckptA
(PID.TID 0000.0001)   Seconds in section "ALL                    [THE_MODEL_MAIN]":
(PID.TID 0000.0001)           User time:   27.986745735630393
(PID.TID 0000.0001)         System time:  6.39909988967701793E-002
(PID.TID 0000.0001)     Wall clock time:   28.132720947265625
(PID.TID 0000.0001)          No. starts:           1
(PID.TID 0000.0001)           No. stops:           1
(PID.TID 0000.0001)   Seconds in section "INITIALISE_FIXED       [THE_MODEL_MAIN]":
(PID.TID 0000.0001)           User time:  0.20596899650990963
(PID.TID 0000.0001)         System time:  1.29979996709153056E-002
(PID.TID 0000.0001)     Wall clock time:  0.22066116333007813
(PID.TID 0000.0001)          No. starts:           1
(PID.TID 0000.0001)           No. stops:           1
(PID.TID 0000.0001)   Seconds in section "THE_MAIN_LOOP          [THE_MODEL_MAIN]":
(PID.TID 0000.0001)           User time:   27.780776739120483
(PID.TID 0000.0001)         System time:  5.09929992258548737E-002
(PID.TID 0000.0001)     Wall clock time:   27.912025928497314
(PID.TID 0000.0001)          No. starts:           1
(PID.TID 0000.0001)           No. stops:           1
(PID.TID 0000.0001)   Seconds in section "INITIALISE_VARIA    [THE_MAIN_LOOP]":
(PID.TID 0000.0001)           User time:  0.13297998905181885
(PID.TID 0000.0001)         System time:  1.89969986677169800E-002
(PID.TID 0000.0001)     Wall clock time:  0.15475296974182129
(PID.TID 0000.0001)          No. starts:           1
(PID.TID 0000.0001)           No. stops:           1
(PID.TID 0000.0001)   Seconds in section "MAIN LOOP           [THE_MAIN_LOOP]":
(PID.TID 0000.0001)           User time:   27.647796750068665
(PID.TID 0000.0001)         System time:  3.19960005581378937E-002
(PID.TID 0000.0001)     Wall clock time:   27.757243156433105
(PID.TID 0000.0001)          No. starts:           1
(PID.TID 0000.0001)           No. stops:           1
(PID.TID 0000.0001)   Seconds in section "MAIN_DO_LOOP        [THE_MAIN_LOOP]":
(PID.TID 0000.0001)           User time:   27.646796822547913
(PID.TID 0000.0001)         System time:  3.19960005581378937E-002
(PID.TID 0000.0001)     Wall clock time:   27.757058143615723
(PID.TID 0000.0001)          No. starts:          20
(PID.TID 0000.0001)           No. stops:          20
(PID.TID 0000.0001)   Seconds in section "FORWARD_STEP        [MAIN_DO_LOOP]":
(PID.TID 0000.0001)           User time:   27.644797444343567
(PID.TID 0000.0001)         System time:  3.19960005581378937E-002
(PID.TID 0000.0001)     Wall clock time:   27.756678342819214
(PID.TID 0000.0001)          No. starts:          20
(PID.TID 0000.0001)           No. stops:          20
(PID.TID 0000.0001)   Seconds in section "LOAD_FIELDS_DRIVER  [FORWARD_STEP]":
(PID.TID 0000.0001)           User time:  1.00135803222656250E-003
(PID.TID 0000.0001)         System time:   0.0000000000000000
(PID.TID 0000.0001)     Wall clock time:  5.41925430297851563E-004
(PID.TID 0000.0001)          No. starts:          20
(PID.TID 0000.0001)           No. stops:          20
(PID.TID 0000.0001)   Seconds in section "EXTERNAL_FLDS_LOAD [LOAD_FLDS_DRIVER]":
(PID.TID 0000.0001)           User time:  1.00135803222656250E-003
(PID.TID 0000.0001)         System time:   0.0000000000000000
(PID.TID 0000.0001)     Wall clock time:  1.85728073120117188E-004
(PID.TID 0000.0001)          No. starts:          20
(PID.TID 0000.0001)           No. stops:          20
(PID.TID 0000.0001)   Seconds in section "DO_ATMOSPHERIC_PHYS [FORWARD_STEP]":
(PID.TID 0000.0001)           User time:   0.0000000000000000
(PID.TID 0000.0001)         System time:   0.0000000000000000
(PID.TID 0000.0001)     Wall clock time:  1.85012817382812500E-004
(PID.TID 0000.0001)          No. starts:          20
(PID.TID 0000.0001)           No. stops:          20
(PID.TID 0000.0001)   Seconds in section "DO_OCEANIC_PHYS     [FORWARD_STEP]":
(PID.TID 0000.0001)           User time:  0.17397531867027283
(PID.TID 0000.0001)         System time:  9.99998301267623901E-004
(PID.TID 0000.0001)     Wall clock time:  0.17680501937866211
(PID.TID 0000.0001)          No. starts:          20
(PID.TID 0000.0001)           No. stops:          20
(PID.TID 0000.0001)   Seconds in section "THERMODYNAMICS      [FORWARD_STEP]":
(PID.TID 0000.0001)           User time:   6.8769527375698090
(PID.TID 0000.0001)         System time:  1.39990039169788361E-002
(PID.TID 0000.0001)     Wall clock time:   6.9007611274719238
(PID.TID 0000.0001)          No. starts:          20
(PID.TID 0000.0001)           No. stops:          20
(PID.TID 0000.0001)   Seconds in section "DYNAMICS            [FORWARD_STEP]":
(PID.TID 0000.0001)           User time:   9.2535948157310486
(PID.TID 0000.0001)         System time:  9.98999923467636108E-004
(PID.TID 0000.0001)     Wall clock time:   9.2796828746795654
(PID.TID 0000.0001)          No. starts:          20
(PID.TID 0000.0001)           No. stops:          20
(PID.TID 0000.0001)   Seconds in section "CALC_GW          [DYNAMICS]":
(PID.TID 0000.0001)           User time:   2.0506808757781982
(PID.TID 0000.0001)         System time:   0.0000000000000000
(PID.TID 0000.0001)     Wall clock time:   2.0649356842041016
(PID.TID 0000.0001)          No. starts:          80
(PID.TID 0000.0001)           No. stops:          80
(PID.TID 0000.0001)   Seconds in section "SOLVE_FOR_PRESSURE  [FORWARD_STEP]":
(PID.TID 0000.0001)           User time:   9.0736184120178223
(PID.TID 0000.0001)         System time:  6.99999928474426270E-003
(PID.TID 0000.0001)     Wall clock time:   9.0994031429290771
(PID.TID 0000.0001)          No. starts:          20
(PID.TID 0000.0001)           No. stops:          20
(PID.TID 0000.0001)   Seconds in section "CG3D   [SOLVE_FOR_PRESSURE]":
(PID.TID 0000.0001)           User time:   7.9657903909683228
(PID.TID 0000.0001)         System time:  6.99999928474426270E-003
(PID.TID 0000.0001)     Wall clock time:   7.9869811534881592
(PID.TID 0000.0001)          No. starts:          20
(PID.TID 0000.0001)           No. stops:          20
(PID.TID 0000.0001)   Seconds in section "MOM_CORRECTION_STEP [FORWARD_STEP]":
(PID.TID 0000.0001)           User time:  0.54291355609893799
(PID.TID 0000.0001)         System time:  1.00000202655792236E-003
(PID.TID 0000.0001)     Wall clock time:  0.55326581001281738
(PID.TID 0000.0001)          No. starts:          20
(PID.TID 0000.0001)           No. stops:          20
(PID.TID 0000.0001)   Seconds in section "INTEGR_CONTINUITY   [FORWARD_STEP]":
(PID.TID 0000.0001)           User time:  0.13797760009765625
(PID.TID 0000.0001)         System time:   0.0000000000000000
(PID.TID 0000.0001)     Wall clock time:  0.13717889785766602
(PID.TID 0000.0001)          No. starts:          20
(PID.TID 0000.0001)           No. stops:          20
(PID.TID 0000.0001)   Seconds in section "TRC_CORRECTION_STEP [FORWARD_STEP]":
(PID.TID 0000.0001)           User time:   0.0000000000000000
(PID.TID 0000.0001)         System time:   0.0000000000000000
(PID.TID 0000.0001)     Wall clock time:  2.67028808593750000E-004
(PID.TID 0000.0001)          No. starts:          20
(PID.TID 0000.0001)           No. stops:          20
(PID.TID 0000.0001)   Seconds in section "BLOCKING_EXCHANGES  [FORWARD_STEP]":
(PID.TID 0000.0001)           User time:  0.85687828063964844
(PID.TID 0000.0001)         System time:  1.99899822473526001E-003
(PID.TID 0000.0001)     Wall clock time:  0.86137557029724121
(PID.TID 0000.0001)          No. starts:          20
(PID.TID 0000.0001)           No. stops:          20
(PID.TID 0000.0001)   Seconds in section "DO_STATEVARS_TAVE   [FORWARD_STEP]":
(PID.TID 0000.0001)           User time:   0.0000000000000000
(PID.TID 0000.0001)         System time:   0.0000000000000000
(PID.TID 0000.0001)     Wall clock time:  1.98125839233398438E-004
(PID.TID 0000.0001)          No. starts:          20
(PID.TID 0000.0001)           No. stops:          20
(PID.TID 0000.0001)   Seconds in section "MONITOR             [FORWARD_STEP]":
(PID.TID 0000.0001)           User time:  0.70288956165313721
(PID.TID 0000.0001)         System time:   0.0000000000000000
(PID.TID 0000.0001)     Wall clock time:  0.70485568046569824
(PID.TID 0000.0001)          No. starts:          20
(PID.TID 0000.0001)           No. stops:          20
(PID.TID 0000.0001)   Seconds in section "DO_THE_MODEL_IO     [FORWARD_STEP]":
(PID.TID 0000.0001)           User time:  9.99832153320312500E-003
(PID.TID 0000.0001)         System time:  2.99900025129318237E-003
(PID.TID 0000.0001)     Wall clock time:  2.14426517486572266E-002
(PID.TID 0000.0001)          No. starts:          20
(PID.TID 0000.0001)           No. stops:          20
(PID.TID 0000.0001)   Seconds in section "DO_WRITE_PICKUP     [FORWARD_STEP]":
(PID.TID 0000.0001)           User time:  1.39980316162109375E-002
(PID.TID 0000.0001)         System time:  2.99999862909317017E-003
(PID.TID 0000.0001)     Wall clock time:  1.78191661834716797E-002
(PID.TID 0000.0001)          No. starts:          20
(PID.TID 0000.0001)           No. stops:          20
(PID.TID 0000.0001) // ======================================================
(PID.TID 0000.0001) // Tile <-> Tile communication statistics
(PID.TID 0000.0001) // ======================================================
(PID.TID 0000.0001) // o Tile number: 000001
(PID.TID 0000.0001) //         No. X exchanges =              0
(PID.TID 0000.0001) //            Max. X spins =              0
(PID.TID 0000.0001) //            Min. X spins =     1000000000
(PID.TID 0000.0001) //          Total. X spins =              0
(PID.TID 0000.0001) //            Avg. X spins =       0.00E+00
(PID.TID 0000.0001) //         No. Y exchanges =              0
(PID.TID 0000.0001) //            Max. Y spins =              0
(PID.TID 0000.0001) //            Min. Y spins =     1000000000
(PID.TID 0000.0001) //          Total. Y spins =              0
(PID.TID 0000.0001) //            Avg. Y spins =       0.00E+00
(PID.TID 0000.0001) // o Tile number: 000002
(PID.TID 0000.0001) //         No. X exchanges =              0
(PID.TID 0000.0001) //            Max. X spins =              0
(PID.TID 0000.0001) //            Min. X spins =     1000000000
(PID.TID 0000.0001) //          Total. X spins =              0
(PID.TID 0000.0001) //            Avg. X spins =       0.00E+00
(PID.TID 0000.0001) //         No. Y exchanges =              0
(PID.TID 0000.0001) //            Max. Y spins =              0
(PID.TID 0000.0001) //            Min. Y spins =     1000000000
(PID.TID 0000.0001) //          Total. Y spins =              0
(PID.TID 0000.0001) //            Avg. Y spins =       0.00E+00
(PID.TID 0000.0001) // o Tile number: 000003
(PID.TID 0000.0001) //         No. X exchanges =              0
(PID.TID 0000.0001) //            Max. X spins =              0
(PID.TID 0000.0001) //            Min. X spins =     1000000000
(PID.TID 0000.0001) //          Total. X spins =              0
(PID.TID 0000.0001) //            Avg. X spins =       0.00E+00
(PID.TID 0000.0001) //         No. Y exchanges =              0
(PID.TID 0000.0001) //            Max. Y spins =              0
(PID.TID 0000.0001) //            Min. Y spins =     1000000000
(PID.TID 0000.0001) //          Total. Y spins =              0
(PID.TID 0000.0001) //            Avg. Y spins =       0.00E+00
(PID.TID 0000.0001) // o Tile number: 000004
(PID.TID 0000.0001) //         No. X exchanges =              0
(PID.TID 0000.0001) //            Max. X spins =              0
(PID.TID 0000.0001) //            Min. X spins =     1000000000
(PID.TID 0000.0001) //          Total. X spins =              0
(PID.TID 0000.0001) //            Avg. X spins =       0.00E+00
(PID.TID 0000.0001) //         No. Y exchanges =              0
(PID.TID 0000.0001) //            Max. Y spins =              0
(PID.TID 0000.0001) //            Min. Y spins =     1000000000
(PID.TID 0000.0001) //          Total. Y spins =              0
(PID.TID 0000.0001) //            Avg. Y spins =       0.00E+00
(PID.TID 0000.0001) // o Thread number: 000001
(PID.TID 0000.0001) //            No. barriers =          29006
(PID.TID 0000.0001) //      Max. barrier spins =              1
(PID.TID 0000.0001) //      Min. barrier spins =              1
(PID.TID 0000.0001) //     Total barrier spins =          29006
(PID.TID 0000.0001) //      Avg. barrier spins =       1.00E+00
PROGRAM MAIN: Execution ended Normally
