(PID.TID 0000.0001) 
(PID.TID 0000.0001) // ======================================================
(PID.TID 0000.0001) //                      MITgcm UV
(PID.TID 0000.0001) //                      =========
(PID.TID 0000.0001) // ======================================================
(PID.TID 0000.0001) // execution environment starting up...
(PID.TID 0000.0001) 
(PID.TID 0000.0001) // MITgcmUV version:  checkpoint69g
(PID.TID 0000.0001) // Build user:        mlosch
(PID.TID 0000.0001) // Build host:        bkli04m056
(PID.TID 0000.0001) // Build date:        Mon Oct 20 09:29:56 CEST 2025
(PID.TID 0000.0001) 
(PID.TID 0000.0001) // =======================================================
(PID.TID 0000.0001) // Execution Environment parameter file "eedata"
(PID.TID 0000.0001) // =======================================================
(PID.TID 0000.0001) ># Example "eedata" file
(PID.TID 0000.0001) ># Lines beginning "#" are comments
(PID.TID 0000.0001) ># nTx - No. threads per process in X
(PID.TID 0000.0001) ># nTy - No. threads per process in Y
(PID.TID 0000.0001) > &EEPARMS
(PID.TID 0000.0001) > nTx=1,
(PID.TID 0000.0001) > nTy=1,
(PID.TID 0000.0001) > /
(PID.TID 0000.0001) ># Note: Some systems use & as the
(PID.TID 0000.0001) ># namelist terminator. Other systems
(PID.TID 0000.0001) ># use a / character (as shown here).
(PID.TID 0000.0001) 
(PID.TID 0000.0001) // =======================================================
(PID.TID 0000.0001) // Computational Grid Specification ( see files "SIZE.h" )
(PID.TID 0000.0001) //                                  ( and "eedata"       )
(PID.TID 0000.0001) // =======================================================
(PID.TID 0000.0001)      nPx =    1 ; /* No. processes in X */
(PID.TID 0000.0001)      nPy =    1 ; /* No. processes in Y */
(PID.TID 0000.0001)      nSx =    2 ; /* No. tiles in X per process */
(PID.TID 0000.0001)      nSy =    2 ; /* No. tiles in Y per process */
(PID.TID 0000.0001)      sNx =   45 ; /* Tile size in X */
(PID.TID 0000.0001)      sNy =   20 ; /* Tile size in Y */
(PID.TID 0000.0001)      OLx =    3 ; /* Tile overlap distance in X */
(PID.TID 0000.0001)      OLy =    3 ; /* Tile overlap distance in Y */
(PID.TID 0000.0001)      nTx =    1 ; /* No. threads in X per process */
(PID.TID 0000.0001)      nTy =    1 ; /* No. threads in Y per process */
(PID.TID 0000.0001)       Nr =   15 ; /* No. levels in the vertical   */
(PID.TID 0000.0001)       Nx =   90 ; /* Total domain size in X ( = nPx*nSx*sNx ) */
(PID.TID 0000.0001)       Ny =   40 ; /* Total domain size in Y ( = nPy*nSy*sNy ) */
(PID.TID 0000.0001)   nTiles =    4 ; /* Total no. tiles per process ( = nSx*nSy ) */
(PID.TID 0000.0001)   nProcs =    1 ; /* Total no. processes ( = nPx*nPy ) */
(PID.TID 0000.0001) nThreads =    1 ; /* Total no. threads per process ( = nTx*nTy ) */
(PID.TID 0000.0001) usingMPI =    F ; /* Flag used to control whether MPI is in use */
(PID.TID 0000.0001)                   /*  note: To execute a program with MPI calls */
(PID.TID 0000.0001)                   /*  it must be launched appropriately e.g     */
(PID.TID 0000.0001)                   /*  "mpirun -np 64 ......"                    */
(PID.TID 0000.0001) useCoupler=   F ; /* Flag used to control communications with   */
(PID.TID 0000.0001)                   /*  other model components, through a coupler */
(PID.TID 0000.0001) useNest2W_parent =    F ;/* Control 2-W Nesting comm */
(PID.TID 0000.0001) useNest2W_child  =    F ;/* Control 2-W Nesting comm */
(PID.TID 0000.0001) debugMode =    F ; /* print debug msg. (sequence of S/R calls)  */
(PID.TID 0000.0001) printMapIncludesZeros=    F ; /* print zeros in Std.Output maps */
(PID.TID 0000.0001) maxLengthPrt1D=   65 /* maxLength of 1D array printed to StdOut */
(PID.TID 0000.0001) 
(PID.TID 0000.0001) // ======================================================
(PID.TID 0000.0001) // Mapping of tiles to threads
(PID.TID 0000.0001) // ======================================================
(PID.TID 0000.0001) // -o- Thread   1, tiles (   1:   2,   1:   2)
(PID.TID 0000.0001) 
(PID.TID 0000.0001) // ======================================================
(PID.TID 0000.0001) // Tile <-> Tile connectvity table
(PID.TID 0000.0001) // ======================================================
(PID.TID 0000.0001) // Tile number: 000001 (process no. = 000000)
(PID.TID 0000.0001) //        WEST: Tile = 000002, Process = 000000, Comm = put
(PID.TID 0000.0001) //                bi = 000002, bj = 000001
(PID.TID 0000.0001) //        EAST: Tile = 000002, Process = 000000, Comm = put
(PID.TID 0000.0001) //                bi = 000002, bj = 000001
(PID.TID 0000.0001) //       SOUTH: Tile = 000003, Process = 000000, Comm = put
(PID.TID 0000.0001) //                bi = 000001, bj = 000002
(PID.TID 0000.0001) //       NORTH: Tile = 000003, Process = 000000, Comm = put
(PID.TID 0000.0001) //                bi = 000001, bj = 000002
(PID.TID 0000.0001) // Tile number: 000002 (process no. = 000000)
(PID.TID 0000.0001) //        WEST: Tile = 000001, Process = 000000, Comm = put
(PID.TID 0000.0001) //                bi = 000001, bj = 000001
(PID.TID 0000.0001) //        EAST: Tile = 000001, Process = 000000, Comm = put
(PID.TID 0000.0001) //                bi = 000001, bj = 000001
(PID.TID 0000.0001) //       SOUTH: Tile = 000004, Process = 000000, Comm = put
(PID.TID 0000.0001) //                bi = 000002, bj = 000002
(PID.TID 0000.0001) //       NORTH: Tile = 000004, Process = 000000, Comm = put
(PID.TID 0000.0001) //                bi = 000002, bj = 000002
(PID.TID 0000.0001) // Tile number: 000003 (process no. = 000000)
(PID.TID 0000.0001) //        WEST: Tile = 000004, Process = 000000, Comm = put
(PID.TID 0000.0001) //                bi = 000002, bj = 000002
(PID.TID 0000.0001) //        EAST: Tile = 000004, Process = 000000, Comm = put
(PID.TID 0000.0001) //                bi = 000002, bj = 000002
(PID.TID 0000.0001) //       SOUTH: Tile = 000001, Process = 000000, Comm = put
(PID.TID 0000.0001) //                bi = 000001, bj = 000001
(PID.TID 0000.0001) //       NORTH: Tile = 000001, Process = 000000, Comm = put
(PID.TID 0000.0001) //                bi = 000001, bj = 000001
(PID.TID 0000.0001) // Tile number: 000004 (process no. = 000000)
(PID.TID 0000.0001) //        WEST: Tile = 000003, Process = 000000, Comm = put
(PID.TID 0000.0001) //                bi = 000001, bj = 000002
(PID.TID 0000.0001) //        EAST: Tile = 000003, Process = 000000, Comm = put
(PID.TID 0000.0001) //                bi = 000001, bj = 000002
(PID.TID 0000.0001) //       SOUTH: Tile = 000002, Process = 000000, Comm = put
(PID.TID 0000.0001) //                bi = 000002, bj = 000001
(PID.TID 0000.0001) //       NORTH: Tile = 000002, Process = 000000, Comm = put
(PID.TID 0000.0001) //                bi = 000002, bj = 000001
(PID.TID 0000.0001) 
(PID.TID 0000.0001)  INI_PARMS: opening model parameter file "data"
(PID.TID 0000.0001)  OPEN_COPY_DATA_FILE: opening file data
(PID.TID 0000.0001) // =======================================================
(PID.TID 0000.0001) // Parameter file "data"
(PID.TID 0000.0001) // =======================================================
(PID.TID 0000.0001) ># ====================
(PID.TID 0000.0001) ># | Model parameters |
(PID.TID 0000.0001) ># ====================
(PID.TID 0000.0001) >#
(PID.TID 0000.0001) ># Continuous equation parameters
(PID.TID 0000.0001) > &PARM01
(PID.TID 0000.0001) > tRef = 15*20.,
(PID.TID 0000.0001) > sRef = 15*35.,
(PID.TID 0000.0001) > viscAr=1.E-3,
(PID.TID 0000.0001) > viscAh=5.E5,
(PID.TID 0000.0001) > diffKhT=0.,
(PID.TID 0000.0001) >#- diffKrT unused when compiled with ALLOW_3D_DIFFKR
(PID.TID 0000.0001) >#diffKrT=3.E-5,
(PID.TID 0000.0001) > diffKhS=0.,
(PID.TID 0000.0001) > diffKrS=3.E-5,
(PID.TID 0000.0001) > rhoConst=1035.,
(PID.TID 0000.0001) > rhoConstFresh=1000.,
(PID.TID 0000.0001) > eosType = 'POLY3',
(PID.TID 0000.0001) > ivdc_kappa=10.,
(PID.TID 0000.0001) > implicitDiffusion=.TRUE.,
(PID.TID 0000.0001) > allowFreezing=.TRUE.,
(PID.TID 0000.0001) >#exactConserv=.TRUE.,
(PID.TID 0000.0001) >#- runoff missing in SSH forcing => comment out realFreshWaterFlux
(PID.TID 0000.0001) >#useRealFreshWaterFlux=.TRUE.,
(PID.TID 0000.0001) > useCDscheme=.TRUE.,
(PID.TID 0000.0001) ># turn on looped cells
(PID.TID 0000.0001) > hFacMin=.05,
(PID.TID 0000.0001) > hFacMindr=50.,
(PID.TID 0000.0001) ># set precision of data files
(PID.TID 0000.0001) > readBinaryPrec=32,
(PID.TID 0000.0001) > useSingleCpuIO = .TRUE.,
(PID.TID 0000.0001) > /
(PID.TID 0000.0001) >
(PID.TID 0000.0001) ># Elliptic solver parameters
(PID.TID 0000.0001) > &PARM02
(PID.TID 0000.0001) > cg2dMaxIters=500,
(PID.TID 0000.0001) > cg2dTargetResidual=1.E-13,
(PID.TID 0000.0001) > /
(PID.TID 0000.0001) >
(PID.TID 0000.0001) ># Time stepping parameters
(PID.TID 0000.0001) > &PARM03
(PID.TID 0000.0001) > nIter0 =      0,
(PID.TID 0000.0001) > nTimeSteps = 20,
(PID.TID 0000.0001) ># 100 years of integration will yield a reasonable flow field
(PID.TID 0000.0001) ># startTime  =          0.,
(PID.TID 0000.0001) ># endTime    = 3110400000.,
(PID.TID 0000.0001) > deltaTmom = 1200.,
(PID.TID 0000.0001) > tauCD =     321428.,
(PID.TID 0000.0001) > deltaTtracer = 43200.,
(PID.TID 0000.0001) > deltaTClock  = 43200.,
(PID.TID 0000.0001) > deltaTFreeSurf=43200.,
(PID.TID 0000.0001) > abEps = 0.1,
(PID.TID 0000.0001) > pChkptFreq= 311040000.,
(PID.TID 0000.0001) > dumpFreq=   311040000.,
(PID.TID 0000.0001) > dumpFreq=   864000.,
(PID.TID 0000.0001) >#monitorFreq=31104000.,
(PID.TID 0000.0001) > monitorFreq    = 86400.,
(PID.TID 0000.0001) > adjMonitorFreq = 86400.,
(PID.TID 0000.0001) ># 2 months restoring timescale for temperature
(PID.TID 0000.0001) >#tauThetaClimRelax =  5184000.0,
(PID.TID 0000.0001) ># 6 months restoring timescale for salinity
(PID.TID 0000.0001) > tauSaltClimRelax = 15552000.0,
(PID.TID 0000.0001) >#periodicExternalForcing=.TRUE.,
(PID.TID 0000.0001) >#externForcingPeriod=2592000.,
(PID.TID 0000.0001) >#externForcingCycle=31104000.,
(PID.TID 0000.0001) > /
(PID.TID 0000.0001) >
(PID.TID 0000.0001) ># Gridding parameters
(PID.TID 0000.0001) > &PARM04
(PID.TID 0000.0001) > usingSphericalPolarGrid=.TRUE.,
(PID.TID 0000.0001) > delR= 50.,  70., 100., 140., 190.,
(PID.TID 0000.0001) >      240., 290., 340., 390., 440.,
(PID.TID 0000.0001) >      490., 540., 590., 640., 690.,
(PID.TID 0000.0001) > ygOrigin=-80.,
(PID.TID 0000.0001) > dySpacing=4.,
(PID.TID 0000.0001) > dxSpacing=4.,
(PID.TID 0000.0001) > /
(PID.TID 0000.0001) >
(PID.TID 0000.0001) ># Input datasets
(PID.TID 0000.0001) > &PARM05
(PID.TID 0000.0001) > bathyFile=      'Topog.bin',
(PID.TID 0000.0001) > hydrogThetaFile='Lev_clim_theta.bin',
(PID.TID 0000.0001) > hydrogSaltFile= 'Lev_clim_salt.bin',
(PID.TID 0000.0001) > zonalWindFile=  'Taux.bin',
(PID.TID 0000.0001) > meridWindFile=  'Tauy.bin',
(PID.TID 0000.0001) >#thetaClimFile=  'SST.bin',
(PID.TID 0000.0001) > saltClimFile=   'SSS.bin',
(PID.TID 0000.0001) > /
(PID.TID 0000.0001) 
(PID.TID 0000.0001)  INI_PARMS ; starts to read PARM01
(PID.TID 0000.0001)  INI_PARMS ; read PARM01 : OK
(PID.TID 0000.0001) S/R INI_PARMS: No request for barotropic solver
(PID.TID 0000.0001) S/R INI_PARMS: => Use implicitFreeSurface as default
(PID.TID 0000.0001)  INI_PARMS ; starts to read PARM02
(PID.TID 0000.0001)  INI_PARMS ; read PARM02 : OK
(PID.TID 0000.0001)  INI_PARMS ; starts to read PARM03
(PID.TID 0000.0001)  INI_PARMS ; read PARM03 : OK
(PID.TID 0000.0001)  INI_PARMS ; starts to read PARM04
(PID.TID 0000.0001)  INI_PARMS ; read PARM04 : OK
(PID.TID 0000.0001)  INI_PARMS ; starts to read PARM05
(PID.TID 0000.0001)  INI_PARMS ; read PARM05 : OK
(PID.TID 0000.0001)  INI_PARMS: finished reading file "data"
(PID.TID 0000.0001)  PACKAGES_BOOT: opening data.pkg
(PID.TID 0000.0001)  OPEN_COPY_DATA_FILE: opening file data.pkg
(PID.TID 0000.0001) // =======================================================
(PID.TID 0000.0001) // Parameter file "data.pkg"
(PID.TID 0000.0001) // =======================================================
(PID.TID 0000.0001) ># Packages
(PID.TID 0000.0001) > &PACKAGES
(PID.TID 0000.0001) > useGMRedi=.TRUE.,
(PID.TID 0000.0001) > useEBM=.TRUE.,
(PID.TID 0000.0001) > useGrdchk=.TRUE.,
(PID.TID 0000.0001) > /
(PID.TID 0000.0001) >
(PID.TID 0000.0001) 
(PID.TID 0000.0001)  PACKAGES_BOOT: finished reading data.pkg
(PID.TID 0000.0001)  PACKAGES_BOOT: On/Off package Summary
 --------  pkgs with a standard "usePKG" On/Off switch in "data.pkg":  --------
 pkg/ggl90                compiled but not used ( useGGL90                 = F )
 pkg/gmredi               compiled   and   used ( useGMRedi                = T )
 pkg/cal                  compiled but not used ( useCAL                   = F )
 pkg/exf                  compiled but not used ( useEXF                   = F )
 pkg/ebm                  compiled   and   used ( useEBM                   = T )
 pkg/autodiff             compiled   and   used ( useAUTODIFF              = T )
 pkg/grdchk               compiled   and   used ( useGrdchk                = T )
 pkg/ctrl                 compiled   and   used ( useCTRL                  = T )
 pkg/mnc                  compiled but not used ( useMNC                   = F )
 -------- pkgs without standard "usePKG" On/Off switch in "data.pkg":  --------
 pkg/generic_advdiff      compiled   and   used ( useGAD                   = T )
 pkg/mom_common           compiled   and   used ( momStepping              = T )
 pkg/mom_vecinv           compiled but not used ( +vectorInvariantMomentum = F )
 pkg/mom_fluxform         compiled   and   used ( & not vectorInvariantMom = T )
 pkg/cd_code              compiled   and   used ( useCDscheme              = T )
 pkg/monitor              compiled   and   used ( monitorFreq > 0.         = T )
 pkg/debug                compiled but not used ( debugMode                = F )
 pkg/rw                   compiled   and   used
 pkg/mdsio                compiled   and   used
 pkg/autodiff             compiled   and   used
 pkg/cost                 compiled   and   used
(PID.TID 0000.0001)  PACKAGES_BOOT: End of package Summary
(PID.TID 0000.0001) 
(PID.TID 0000.0001)  GM_READPARMS: opening data.gmredi
(PID.TID 0000.0001)  OPEN_COPY_DATA_FILE: opening file data.gmredi
(PID.TID 0000.0001) // =======================================================
(PID.TID 0000.0001) // Parameter file "data.gmredi"
(PID.TID 0000.0001) // =======================================================
(PID.TID 0000.0001) ># GM+Redi package parameters:
(PID.TID 0000.0001) >
(PID.TID 0000.0001) >#-from MOM :
(PID.TID 0000.0001) ># GM_background_K: 	G & Mc.W  diffusion coefficient
(PID.TID 0000.0001) ># GM_maxSlope    :	max slope of isopycnals
(PID.TID 0000.0001) ># GM_Scrit       :	transition for scaling diffusion coefficient
(PID.TID 0000.0001) ># GM_Sd          :	half width scaling for diffusion coefficient
(PID.TID 0000.0001) ># GM_taper_scheme:	slope clipping or one of the tapering schemes
(PID.TID 0000.0001) ># GM_Kmin_horiz  :	horizontal diffusion minimum value
(PID.TID 0000.0001) >
(PID.TID 0000.0001) >#-Option parameters (needs to "define" options in GMREDI_OPTIONS.h")
(PID.TID 0000.0001) ># GM_isopycK     :	isopycnal diffusion coefficient (default=GM_background_K)
(PID.TID 0000.0001) ># GM_AdvForm     :	turn on GM Advective form       (default=Skew flux form)
(PID.TID 0000.0001) >
(PID.TID 0000.0001) > &GM_PARM01
(PID.TID 0000.0001) >  GM_background_K    = 1.e+3,
(PID.TID 0000.0001) >  GM_taper_scheme    = 'gkw91',
(PID.TID 0000.0001) >  GM_maxSlope        = 1.e-2,
(PID.TID 0000.0001) >  GM_Kmin_horiz      = 50.,
(PID.TID 0000.0001) >  GM_Scrit           = 4.e-3,
(PID.TID 0000.0001) >  GM_Sd              = 1.e-3,
(PID.TID 0000.0001) ># GM_Visbeck_alpha   = 0.,
(PID.TID 0000.0001) ># GM_Visbeck_length  = 2.e+5,
(PID.TID 0000.0001) ># GM_Visbeck_depth   = 1.e+3,
(PID.TID 0000.0001) ># GM_Visbeck_maxval_K= 2.5e+3,
(PID.TID 0000.0001) > /
(PID.TID 0000.0001) >
(PID.TID 0000.0001) >
(PID.TID 0000.0001) 
(PID.TID 0000.0001)  GM_READPARMS: finished reading data.gmredi
(PID.TID 0000.0001)  EBM_READPARMS: opening data.ebm
(PID.TID 0000.0001)  OPEN_COPY_DATA_FILE: opening file data.ebm
(PID.TID 0000.0001) // =======================================================
(PID.TID 0000.0001) // Parameter file "data.ebm"
(PID.TID 0000.0001) // =======================================================
(PID.TID 0000.0001) ># Packages
(PID.TID 0000.0001) > &EBM_PARM01
(PID.TID 0000.0001) ># convert from mm/year to m/sec
(PID.TID 0000.0001) > scale_runoff     = 3.170979198E-11,
(PID.TID 0000.0001) > tauThetaZonRelax = 5184000.0,
(PID.TID 0000.0001) > RunoffFile       = 'Runoff.bin',
(PID.TID 0000.0001) > /
(PID.TID 0000.0001) 
(PID.TID 0000.0001)  EBM_READPARMS: finished reading data.ebm
(PID.TID 0000.0001)  EBM_READPARMS: set tauThetaClimRelax to tauThetaZonRelax value
(PID.TID 0000.0001) AUTODIFF_READPARMS: opening data.autodiff
(PID.TID 0000.0001)  OPEN_COPY_DATA_FILE: opening file data.autodiff
(PID.TID 0000.0001) // =======================================================
(PID.TID 0000.0001) // Parameter file "data.autodiff"
(PID.TID 0000.0001) // =======================================================
(PID.TID 0000.0001) ># =========================
(PID.TID 0000.0001) ># pkg AUTODIFF parameters :
(PID.TID 0000.0001) ># =========================
(PID.TID 0000.0001) >#  inAdExact :: get an exact adjoint (no approximation) (def=.True.)
(PID.TID 0000.0001) >#
(PID.TID 0000.0001) > &AUTODIFF_PARM01
(PID.TID 0000.0001) ># inAdExact = .FALSE.,
(PID.TID 0000.0001) > /
(PID.TID 0000.0001) 
(PID.TID 0000.0001) AUTODIFF_READPARMS: finished reading data.autodiff
(PID.TID 0000.0001) // ===================================
(PID.TID 0000.0001) // AUTODIFF parameters :
(PID.TID 0000.0001) // ===================================
(PID.TID 0000.0001) inAdExact = /* get an exact adjoint (no approximation) */
(PID.TID 0000.0001)                   T
(PID.TID 0000.0001)     ;
(PID.TID 0000.0001) useApproxAdvectionInAdMode = /* approximate AD-advection */
(PID.TID 0000.0001)                   F
(PID.TID 0000.0001)     ;
(PID.TID 0000.0001) cg2dFullAdjoint = /* use full hand written cg2d adjoint (no approximation) */
(PID.TID 0000.0001)                   F
(PID.TID 0000.0001)     ;
(PID.TID 0000.0001) useKPPinAdMode = /* use KPP in adjoint mode */
(PID.TID 0000.0001)                   F
(PID.TID 0000.0001)     ;
(PID.TID 0000.0001) useGMRediInAdMode = /* use GMRedi in adjoint mode */
(PID.TID 0000.0001)                   T
(PID.TID 0000.0001)     ;
(PID.TID 0000.0001) useSEAICEinAdMode = /* use SEAICE in adjoint mode */
(PID.TID 0000.0001)                   F
(PID.TID 0000.0001)     ;
(PID.TID 0000.0001) useGGL90inAdMode = /* use GGL90 in adjoint mode */
(PID.TID 0000.0001)                   F
(PID.TID 0000.0001)     ;
(PID.TID 0000.0001) useSALT_PLUMEinAdMode = /* use SALT_PLUME in adjoint mode */
(PID.TID 0000.0001)                   F
(PID.TID 0000.0001)     ;
(PID.TID 0000.0001) dumpAdVarExch = /* control adexch before dumpinp */
(PID.TID 0000.0001)                       2
(PID.TID 0000.0001)     ;
(PID.TID 0000.0001) mon_AdVarExch = /* control adexch before monitor */
(PID.TID 0000.0001)                       2
(PID.TID 0000.0001)     ;
(PID.TID 0000.0001) viscFacInFw = /* viscosity factor for forward model */
(PID.TID 0000.0001)                 1.000000000000000E+00
(PID.TID 0000.0001)     ;
(PID.TID 0000.0001) viscFacInAd = /* viscosity factor for adjoint */
(PID.TID 0000.0001)                 1.000000000000000E+00
(PID.TID 0000.0001)     ;
(PID.TID 0000.0001) SIregFacInAd = /* sea ice factor for adjoint model */
(PID.TID 0000.0001)                 1.234567000000000E+05
(PID.TID 0000.0001)     ;
(PID.TID 0000.0001) SIregFacInFw = /* sea ice factor for forward model */
(PID.TID 0000.0001)                 1.234567000000000E+05
(PID.TID 0000.0001)     ;
(PID.TID 0000.0001) 
(PID.TID 0000.0001) OPTIM_READPARMS: opening data.optim
(PID.TID 0000.0001)  OPEN_COPY_DATA_FILE: opening file data.optim
(PID.TID 0000.0001) // =======================================================
(PID.TID 0000.0001) // Parameter file "data.optim"
(PID.TID 0000.0001) // =======================================================
(PID.TID 0000.0001) >#
(PID.TID 0000.0001) ># ********************************
(PID.TID 0000.0001) ># Off-line optimization parameters
(PID.TID 0000.0001) ># ********************************
(PID.TID 0000.0001) > &OPTIM
(PID.TID 0000.0001) > optimcycle=0,
(PID.TID 0000.0001) > /
(PID.TID 0000.0001) 
(PID.TID 0000.0001) OPTIM_READPARMS: finished reading data.optim
(PID.TID 0000.0001) CTRL_READPARMS: opening data.ctrl
(PID.TID 0000.0001)  OPEN_COPY_DATA_FILE: opening file data.ctrl
(PID.TID 0000.0001) // =======================================================
(PID.TID 0000.0001) // Parameter file "data.ctrl"
(PID.TID 0000.0001) // =======================================================
(PID.TID 0000.0001) >#
(PID.TID 0000.0001) >#
(PID.TID 0000.0001) ># *********************
(PID.TID 0000.0001) ># ECCO controlvariables
(PID.TID 0000.0001) ># *********************
(PID.TID 0000.0001) > &CTRL_NML
(PID.TID 0000.0001) > /
(PID.TID 0000.0001) >#
(PID.TID 0000.0001) ># *********************
(PID.TID 0000.0001) ># names for ctrl_pack/unpack
(PID.TID 0000.0001) ># *********************
(PID.TID 0000.0001) > &CTRL_PACKNAMES
(PID.TID 0000.0001) > /
(PID.TID 0000.0001) >#
(PID.TID 0000.0001) ># *********************
(PID.TID 0000.0001) ># names for CTRL_GENARR, CTRL_GENTIM
(PID.TID 0000.0001) ># *********************
(PID.TID 0000.0001) > &CTRL_NML_GENARR
(PID.TID 0000.0001) > xx_genarr3d_weight(1) = 'wunit.data',
(PID.TID 0000.0001) > xx_genarr3d_file(1)='xx_theta',
(PID.TID 0000.0001) > /
(PID.TID 0000.0001) >
(PID.TID 0000.0001) 
(PID.TID 0000.0001) CTRL_READPARMS: finished reading data.ctrl
(PID.TID 0000.0001) read-write ctrl files from current run directory
(PID.TID 0000.0001) COST_READPARMS: opening data.cost
(PID.TID 0000.0001)  OPEN_COPY_DATA_FILE: opening file data.cost
(PID.TID 0000.0001) // =======================================================
(PID.TID 0000.0001) // Parameter file "data.cost"
(PID.TID 0000.0001) // =======================================================
(PID.TID 0000.0001) >#
(PID.TID 0000.0001) >#
(PID.TID 0000.0001) ># ******************
(PID.TID 0000.0001) ># ECCO cost function
(PID.TID 0000.0001) ># ******************
(PID.TID 0000.0001) > &COST_NML
(PID.TID 0000.0001) >#
(PID.TID 0000.0001) > mult_tracer  = 0.,
(PID.TID 0000.0001) > mult_test    = 0.,
(PID.TID 0000.0001) > mult_atl     = 1.,
(PID.TID 0000.0001) > /
(PID.TID 0000.0001) 
(PID.TID 0000.0001) COST_READPARMS: finished reading data.cost
(PID.TID 0000.0001) // =======================================================
(PID.TID 0000.0001) // cost configuration  >>> START <<<
(PID.TID 0000.0001) // =======================================================
(PID.TID 0000.0001) lastinterval =   /* cost interval over which to average ( s ). */
(PID.TID 0000.0001)                 2.592000000000000E+06
(PID.TID 0000.0001)     ;
(PID.TID 0000.0001) cost_mask_file = /* file name of cost mask file */
(PID.TID 0000.0001)               ''
(PID.TID 0000.0001)     ;
(PID.TID 0000.0001) // =======================================================
(PID.TID 0000.0001) // cost configuration  >>> END <<<
(PID.TID 0000.0001) // =======================================================
(PID.TID 0000.0001) 
(PID.TID 0000.0001) GRDCHK_READPARMS: opening data.grdchk
(PID.TID 0000.0001)  OPEN_COPY_DATA_FILE: opening file data.grdchk
(PID.TID 0000.0001) // =======================================================
(PID.TID 0000.0001) // Parameter file "data.grdchk"
(PID.TID 0000.0001) // =======================================================
(PID.TID 0000.0001) >
(PID.TID 0000.0001) ># *******************
(PID.TID 0000.0001) ># ECCO gradient check
(PID.TID 0000.0001) ># *******************
(PID.TID 0000.0001) > &GRDCHK_NML
(PID.TID 0000.0001) > grdchk_eps       = 1.d-2,
(PID.TID 0000.0001) > nbeg             = 1,
(PID.TID 0000.0001) > nstep            = 1,
(PID.TID 0000.0001) > nend             = 2,
(PID.TID 0000.0001) > grdchkvarname    = "xx_theta",
(PID.TID 0000.0001) > /
(PID.TID 0000.0001) 
(PID.TID 0000.0001) GRDCHK_READPARMS: finished reading data.grdchk
(PID.TID 0000.0001) SET_PARMS: done
(PID.TID 0000.0001) Enter INI_VERTICAL_GRID: setInterFDr=    T ; setCenterDr=    F
(PID.TID 0000.0001) %MON XC_max                       =   3.5800000000000E+02
(PID.TID 0000.0001) %MON XC_min                       =   2.0000000000000E+00
(PID.TID 0000.0001) %MON XC_mean                      =   1.8000000000000E+02
(PID.TID 0000.0001) %MON XC_sd                        =   1.0391663325314E+02
(PID.TID 0000.0001) %MON XG_max                       =   3.5600000000000E+02
(PID.TID 0000.0001) %MON XG_min                       =   0.0000000000000E+00
(PID.TID 0000.0001) %MON XG_mean                      =   1.7800000000000E+02
(PID.TID 0000.0001) %MON XG_sd                        =   1.0391663325314E+02
(PID.TID 0000.0001) %MON DXC_max                      =   4.4443898815675E+05
(PID.TID 0000.0001) %MON DXC_min                      =   9.2460385861875E+04
(PID.TID 0000.0001) %MON DXC_mean                     =   3.1372497618153E+05
(PID.TID 0000.0001) %MON DXC_sd                       =   1.1216447457560E+05
(PID.TID 0000.0001) %MON DXF_max                      =   4.4443898815675E+05
(PID.TID 0000.0001) %MON DXF_min                      =   9.2460385861875E+04
(PID.TID 0000.0001) %MON DXF_mean                     =   3.1372497618153E+05
(PID.TID 0000.0001) %MON DXF_sd                       =   1.1216447457560E+05
(PID.TID 0000.0001) %MON DXG_max                      =   4.4470989340816E+05
(PID.TID 0000.0001) %MON DXG_min                      =   7.7223062580781E+04
(PID.TID 0000.0001) %MON DXG_mean                     =   3.1353386340261E+05
(PID.TID 0000.0001) %MON DXG_sd                       =   1.1256651772502E+05
(PID.TID 0000.0001) %MON DXV_max                      =   4.4470989340816E+05
(PID.TID 0000.0001) %MON DXV_min                      =   7.7223062580781E+04
(PID.TID 0000.0001) %MON DXV_mean                     =   3.1353386340261E+05
(PID.TID 0000.0001) %MON DXV_sd                       =   1.1256651772502E+05
(PID.TID 0000.0001) %MON YC_max                       =   7.8000000000000E+01
(PID.TID 0000.0001) %MON YC_min                       =  -7.8000000000000E+01
(PID.TID 0000.0001) %MON YC_mean                      =   0.0000000000000E+00
(PID.TID 0000.0001) %MON YC_sd                        =   4.6173585522461E+01
(PID.TID 0000.0001) %MON YG_max                       =   7.6000000000000E+01
(PID.TID 0000.0001) %MON YG_min                       =  -8.0000000000000E+01
(PID.TID 0000.0001) %MON YG_mean                      =  -2.0000000000000E+00
(PID.TID 0000.0001) %MON YG_sd                        =   4.6173585522461E+01
(PID.TID 0000.0001) %MON DYC_max                      =   4.4470989340816E+05
(PID.TID 0000.0001) %MON DYC_min                      =   4.4470989340816E+05
(PID.TID 0000.0001) %MON DYC_mean                     =   4.4470989340816E+05
(PID.TID 0000.0001) %MON DYC_sd                       =   5.2968971431255E-09
(PID.TID 0000.0001) %MON DYF_max                      =   4.4470989340816E+05
(PID.TID 0000.0001) %MON DYF_min                      =   4.4470989340816E+05
(PID.TID 0000.0001) %MON DYF_mean                     =   4.4470989340816E+05
(PID.TID 0000.0001) %MON DYF_sd                       =   5.2968971431255E-09
(PID.TID 0000.0001) %MON DYG_max                      =   4.4470989340816E+05
(PID.TID 0000.0001) %MON DYG_min                      =   4.4470989340816E+05
(PID.TID 0000.0001) %MON DYG_mean                     =   4.4470989340816E+05
(PID.TID 0000.0001) %MON DYG_sd                       =   5.2968971431255E-09
(PID.TID 0000.0001) %MON DYU_max                      =   4.4470989340816E+05
(PID.TID 0000.0001) %MON DYU_min                      =   4.4470989340816E+05
(PID.TID 0000.0001) %MON DYU_mean                     =   4.4470989340816E+05
(PID.TID 0000.0001) %MON DYU_sd                       =   5.2968971431255E-09
(PID.TID 0000.0001) %MON RA_max                       =   1.9760627980089E+11
(PID.TID 0000.0001) %MON RA_min                       =   4.1109698667290E+10
(PID.TID 0000.0001) %MON RA_mean                      =   1.3948826965196E+11
(PID.TID 0000.0001) %MON RA_sd                        =   4.9870522472902E+10
(PID.TID 0000.0001) %MON RAW_max                      =   1.9760627980089E+11
(PID.TID 0000.0001) %MON RAW_min                      =   4.1109698667290E+10
(PID.TID 0000.0001) %MON RAW_mean                     =   1.3948826965196E+11
(PID.TID 0000.0001) %MON RAW_sd                       =   4.9870522472902E+10
(PID.TID 0000.0001) %MON RAS_max                      =   1.9772672958215E+11
(PID.TID 0000.0001) %MON RAS_min                      =   3.4334886267983E+10
(PID.TID 0000.0001) %MON RAS_mean                     =   1.3940329716694E+11
(PID.TID 0000.0001) %MON RAS_sd                       =   5.0049278732353E+10
(PID.TID 0000.0001) %MON RAZ_max                      =   1.9772672958215E+11
(PID.TID 0000.0001) %MON RAZ_min                      =   3.4334886267983E+10
(PID.TID 0000.0001) %MON RAZ_mean                     =   1.3940329716694E+11
(PID.TID 0000.0001) %MON RAZ_sd                       =   5.0049278732353E+10
(PID.TID 0000.0001) %MON AngleCS_max                  =   1.0000000000000E+00
(PID.TID 0000.0001) %MON AngleCS_min                  =   1.0000000000000E+00
(PID.TID 0000.0001) %MON AngleCS_mean                 =   1.0000000000000E+00
(PID.TID 0000.0001) %MON AngleCS_sd                   =   0.0000000000000E+00
(PID.TID 0000.0001) %MON AngleSN_max                  =   0.0000000000000E+00
(PID.TID 0000.0001) %MON AngleSN_min                  =   0.0000000000000E+00
(PID.TID 0000.0001) %MON AngleSN_mean                 =   0.0000000000000E+00
(PID.TID 0000.0001) %MON AngleSN_sd                   =   0.0000000000000E+00
(PID.TID 0000.0001) GAD_INIT_FIXED: GAD_OlMinSize=  1  0  1
(PID.TID 0000.0001) 
(PID.TID 0000.0001) // ===================================
(PID.TID 0000.0001) // GAD parameters :
(PID.TID 0000.0001) // ===================================
(PID.TID 0000.0001) tempAdvScheme =   /* Temp. Horiz.Advection scheme selector */
(PID.TID 0000.0001)                       2
(PID.TID 0000.0001)     ;
(PID.TID 0000.0001) tempVertAdvScheme =   /* Temp. Vert. Advection scheme selector */
(PID.TID 0000.0001)                       2
(PID.TID 0000.0001)     ;
(PID.TID 0000.0001) tempMultiDimAdvec =   /* use Muti-Dim Advec method for Temp */
(PID.TID 0000.0001)                   F
(PID.TID 0000.0001)     ;
(PID.TID 0000.0001) tempSOM_Advection = /* use 2nd Order Moment Advection for Temp */
(PID.TID 0000.0001)                   F
(PID.TID 0000.0001)     ;
(PID.TID 0000.0001) AdamsBashforthGt = /* apply Adams-Bashforth extrapolation on Gt */
(PID.TID 0000.0001)                   T
(PID.TID 0000.0001)     ;
(PID.TID 0000.0001) AdamsBashforth_T = /* apply Adams-Bashforth extrapolation on Temp */
(PID.TID 0000.0001)                   F
(PID.TID 0000.0001)     ;
(PID.TID 0000.0001) saltAdvScheme =   /* Salt. Horiz.advection scheme selector */
(PID.TID 0000.0001)                       2
(PID.TID 0000.0001)     ;
(PID.TID 0000.0001) saltVertAdvScheme =   /* Salt. Vert. Advection scheme selector */
(PID.TID 0000.0001)                       2
(PID.TID 0000.0001)     ;
(PID.TID 0000.0001) saltMultiDimAdvec =   /* use Muti-Dim Advec method for Salt */
(PID.TID 0000.0001)                   F
(PID.TID 0000.0001)     ;
(PID.TID 0000.0001) saltSOM_Advection = /* use 2nd Order Moment Advection for Salt */
(PID.TID 0000.0001)                   F
(PID.TID 0000.0001)     ;
(PID.TID 0000.0001) AdamsBashforthGs = /* apply Adams-Bashforth extrapolation on Gs */
(PID.TID 0000.0001)                   T
(PID.TID 0000.0001)     ;
(PID.TID 0000.0001) AdamsBashforth_S = /* apply Adams-Bashforth extrapolation on Salt */
(PID.TID 0000.0001)                   F
(PID.TID 0000.0001)     ;
(PID.TID 0000.0001) // ===================================
(PID.TID 0000.0001) CTRL_INIT_FIXED: ivar=   1 = number of CTRL variables defined
(PID.TID 0000.0001) 
(PID.TID 0000.0001) ctrl-wet 1:    nvarlength =        29138
(PID.TID 0000.0001) ctrl-wet 2: surface wet C =          616
(PID.TID 0000.0001) ctrl-wet 3: surface wet W =          586
(PID.TID 0000.0001) ctrl-wet 4: surface wet S =          557
(PID.TID 0000.0001) ctrl-wet 5: 3D wet points =         8371
(PID.TID 0000.0001) ctrl-wet 6: no recs for ivar =     1           1
(PID.TID 0000.0001) ctrl-wet 6: no recs for ivar =     2           0
(PID.TID 0000.0001) ctrl-wet 6: no recs for ivar =     3           0
(PID.TID 0000.0001) ctrl-wet 6: no recs for ivar =     4           0
(PID.TID 0000.0001) ctrl-wet 6: no recs for ivar =     5           0
(PID.TID 0000.0001) ctrl-wet 6: no recs for ivar =     6           0
(PID.TID 0000.0001) ctrl-wet 6: no recs for ivar =     7           0
(PID.TID 0000.0001) ctrl-wet 6: no recs for ivar =     8           0
(PID.TID 0000.0001) ctrl-wet 6: no recs for ivar =     9           0
(PID.TID 0000.0001) ctrl-wet -------------------------------------------------
(PID.TID 0000.0001) ctrl-wet 13: global nvarlength for Nr =   15       29138
(PID.TID 0000.0001) ctrl-wet -------------------------------------------------
(PID.TID 0000.0001) ctrl-wet 14: global nWet C/S/W k=    1        2158        2004        2052
(PID.TID 0000.0001) ctrl-wet 14: global nWet C/S/W k=    2        2155        2003        2049
(PID.TID 0000.0001) ctrl-wet 14: global nWet C/S/W k=    3        2151        2000        2047
(PID.TID 0000.0001) ctrl-wet 14: global nWet C/S/W k=    4        2143        1993        2040
(PID.TID 0000.0001) ctrl-wet 14: global nWet C/S/W k=    5        2141        1993        2038
(PID.TID 0000.0001) ctrl-wet 14: global nWet C/S/W k=    6        2139        1991        2036
(PID.TID 0000.0001) ctrl-wet 14: global nWet C/S/W k=    7        2126        1977        2022
(PID.TID 0000.0001) ctrl-wet 14: global nWet C/S/W k=    8        2108        1961        2003
(PID.TID 0000.0001) ctrl-wet 14: global nWet C/S/W k=    9        2101        1954        1995
(PID.TID 0000.0001) ctrl-wet 14: global nWet C/S/W k=   10        2086        1938        1981
(PID.TID 0000.0001) ctrl-wet 14: global nWet C/S/W k=   11        2054        1903        1946
(PID.TID 0000.0001) ctrl-wet 14: global nWet C/S/W k=   12        1998        1841        1879
(PID.TID 0000.0001) ctrl-wet 14: global nWet C/S/W k=   13        1844        1650        1702
(PID.TID 0000.0001) ctrl-wet 14: global nWet C/S/W k=   14        1180         951         996
(PID.TID 0000.0001) ctrl-wet 14: global nWet C/S/W k=   15         754         556         602
(PID.TID 0000.0001) ctrl-wet -------------------------------------------------
(PID.TID 0000.0001) ctrl_init_wet: no. of control variables:            1
(PID.TID 0000.0001) ctrl_init_wet: control vector length:           29138
(PID.TID 0000.0001) 
(PID.TID 0000.0001) // =======================================================
(PID.TID 0000.0001) // control vector configuration  >>> START <<<
(PID.TID 0000.0001) // =======================================================
(PID.TID 0000.0001) 
(PID.TID 0000.0001)  Total number of ocean points per tile:
(PID.TID 0000.0001)  --------------------------------------
(PID.TID 0000.0001)  sNx*sNy*Nr =    13500
(PID.TID 0000.0001) 
(PID.TID 0000.0001)  Number of ocean points per tile:
(PID.TID 0000.0001)  --------------------------------
(PID.TID 0000.0001)  bi,bj,#(c/s/w): 001 001    8371    7411    7824
(PID.TID 0000.0001)  bi,bj,#(c/s/w): 002 001    9715    8936    9353
(PID.TID 0000.0001)  bi,bj,#(c/s/w): 001 002    3744    3500    3330
(PID.TID 0000.0001)  bi,bj,#(c/s/w): 002 002    7308    6868    6881
(PID.TID 0000.0001) 
(PID.TID 0000.0001)  -> 3d control, genarr3d no.  1 is in use
(PID.TID 0000.0001)       file       = xx_theta
(PID.TID 0000.0001)       ncvartype  = Arr3D
(PID.TID 0000.0001)       index      =     1  (use this for pkg/grdchk)
(PID.TID 0000.0001)       ncvarindex =     1
(PID.TID 0000.0001)       weight     = wunit.data
(PID.TID 0000.0001) 
(PID.TID 0000.0001) // =======================================================
(PID.TID 0000.0001) // control vector configuration  >>> END <<<
(PID.TID 0000.0001) // =======================================================
(PID.TID 0000.0001) 
(PID.TID 0000.0001) %MON fCori_max                    =   1.4265546244797E-04
(PID.TID 0000.0001) %MON fCori_min                    =  -1.4265546244797E-04
(PID.TID 0000.0001) %MON fCori_mean                   =   4.7801269115805E-19
(PID.TID 0000.0001) %MON fCori_sd                     =   9.6599226301546E-05
(PID.TID 0000.0001) %MON fCoriG_max                   =   1.4151032568025E-04
(PID.TID 0000.0001) %MON fCoriG_min                   =  -1.4362679550910E-04
(PID.TID 0000.0001) %MON fCoriG_mean                  =  -3.5906698877273E-06
(PID.TID 0000.0001) %MON fCoriG_sd                    =   9.6548915696246E-05
(PID.TID 0000.0001) %MON fCoriCos_max                 =   1.4575362704741E-04
(PID.TID 0000.0001) %MON fCoriCos_min                 =   3.0322354601388E-05
(PID.TID 0000.0001) %MON fCoriCos_mean                =   1.0288600773633E-04
(PID.TID 0000.0001) %MON fCoriCos_sd                  =   3.6784304327266E-05
(PID.TID 0000.0001) INI_CG2D: CG2D normalisation factor =  9.0544177972206531E-05
(PID.TID 0000.0001) 
(PID.TID 0000.0001) // =======================================================
(PID.TID 0000.0001) // Model configuration
(PID.TID 0000.0001) // =======================================================
(PID.TID 0000.0001) //
(PID.TID 0000.0001) // "Physical" paramters ( PARM01 in namelist )
(PID.TID 0000.0001) //
(PID.TID 0000.0001) buoyancyRelation = /* Type of relation to get Buoyancy */
(PID.TID 0000.0001)               'OCEANIC'
(PID.TID 0000.0001)     ;
(PID.TID 0000.0001) fluidIsAir   =  /* fluid major constituent is Air */
(PID.TID 0000.0001)                   F
(PID.TID 0000.0001)     ;
(PID.TID 0000.0001) fluidIsWater =  /* fluid major constituent is Water */
(PID.TID 0000.0001)                   T
(PID.TID 0000.0001)     ;
(PID.TID 0000.0001) usingPCoords =  /* use p (or p*) vertical coordinate */
(PID.TID 0000.0001)                   F
(PID.TID 0000.0001)     ;
(PID.TID 0000.0001) usingZCoords =  /* use z (or z*) vertical coordinate */
(PID.TID 0000.0001)                   T
(PID.TID 0000.0001)     ;
(PID.TID 0000.0001) tRef =   /* Reference temperature profile ( oC or K ) */
(PID.TID 0000.0001)    15 @  2.000000000000000E+01              /* K =  1: 15 */
(PID.TID 0000.0001)     ;
(PID.TID 0000.0001) sRef =   /* Reference salinity profile ( g/kg ) */
(PID.TID 0000.0001)    15 @  3.500000000000000E+01              /* K =  1: 15 */
(PID.TID 0000.0001)     ;
(PID.TID 0000.0001) rhoRef =   /* Density vertical profile from (Ref,sRef)( kg/m^3 ) */
(PID.TID 0000.0001)    15 @  1.035000000000000E+03              /* K =  1: 15 */
(PID.TID 0000.0001)     ;
(PID.TID 0000.0001) dBdrRef = /* Vertical grad. of reference buoyancy [(m/s/r)^2] */
(PID.TID 0000.0001)    15 @  0.000000000000000E+00              /* K =  1: 15 */
(PID.TID 0000.0001)     ;
(PID.TID 0000.0001) useStrainTensionVisc= /* Use StrainTension Form of Viscous Operator */
(PID.TID 0000.0001)                   F
(PID.TID 0000.0001)     ;
(PID.TID 0000.0001) useVariableVisc = /* Use variable horizontal viscosity */
(PID.TID 0000.0001)                   F
(PID.TID 0000.0001)     ;
(PID.TID 0000.0001) useHarmonicVisc = /* Use harmonic horizontal viscosity */
(PID.TID 0000.0001)                   T
(PID.TID 0000.0001)     ;
(PID.TID 0000.0001) useBiharmonicVisc= /* Use biharmonic horiz.  viscosity */
(PID.TID 0000.0001)                   F
(PID.TID 0000.0001)     ;
(PID.TID 0000.0001) useSmag3D = /* Use isotropic 3-D Smagorinsky viscosity */
(PID.TID 0000.0001)                   F
(PID.TID 0000.0001)     ;
(PID.TID 0000.0001) viscAh  =   /* Lateral harmonic viscosity ( m^2/s ) */
(PID.TID 0000.0001)                 5.000000000000000E+05
(PID.TID 0000.0001)     ;
(PID.TID 0000.0001) viscA4  =   /* Lateral biharmonic viscosity ( m^4/s ) */
(PID.TID 0000.0001)                 0.000000000000000E+00
(PID.TID 0000.0001)     ;
(PID.TID 0000.0001) no_slip_sides =  /* Viscous BCs: No-slip sides */
(PID.TID 0000.0001)                   T
(PID.TID 0000.0001)     ;
(PID.TID 0000.0001) sideDragFactor = /* side-drag scaling factor (non-dim) */
(PID.TID 0000.0001)                 2.000000000000000E+00
(PID.TID 0000.0001)     ;
(PID.TID 0000.0001) viscArNr = /* vertical profile of vertical viscosity ( m^2/s )*/
(PID.TID 0000.0001)    15 @  1.000000000000000E-03              /* K =  1: 15 */
(PID.TID 0000.0001)     ;
(PID.TID 0000.0001) no_slip_bottom =  /* Viscous BCs: No-slip bottom */
(PID.TID 0000.0001)                   T
(PID.TID 0000.0001)     ;
(PID.TID 0000.0001) bottomVisc_pCell = /* Partial-cell in bottom Visc. BC */
(PID.TID 0000.0001)                   F
(PID.TID 0000.0001)     ;
(PID.TID 0000.0001) bottomDragLinear = /* linear bottom-drag coefficient ( m/s ) */
(PID.TID 0000.0001)                 0.000000000000000E+00
(PID.TID 0000.0001)     ;
(PID.TID 0000.0001) bottomDragQuadratic = /* quadratic bottom-drag coefficient (-) */
(PID.TID 0000.0001)                 0.000000000000000E+00
(PID.TID 0000.0001)     ;
(PID.TID 0000.0001) selectBotDragQuadr = /* select quadratic bottom drag options */
(PID.TID 0000.0001)                      -1
(PID.TID 0000.0001)     ;
(PID.TID 0000.0001) diffKhT =   /* Laplacian diffusion of heat laterally ( m^2/s ) */
(PID.TID 0000.0001)                 0.000000000000000E+00
(PID.TID 0000.0001)     ;
(PID.TID 0000.0001) diffK4T =   /* Biharmonic diffusion of heat laterally ( m^4/s ) */
(PID.TID 0000.0001)                 0.000000000000000E+00
(PID.TID 0000.0001)     ;
(PID.TID 0000.0001) diffKhS =   /* Laplacian diffusion of salt laterally ( m^2/s ) */
(PID.TID 0000.0001)                 0.000000000000000E+00
(PID.TID 0000.0001)     ;
(PID.TID 0000.0001) diffK4S =   /* Biharmonic diffusion of salt laterally ( m^4/s ) */
(PID.TID 0000.0001)                 0.000000000000000E+00
(PID.TID 0000.0001)     ;
(PID.TID 0000.0001) diffKrNrT = /* vertical profile of vertical diffusion of Temp ( m^2/s )*/
(PID.TID 0000.0001)    15 @  0.000000000000000E+00              /* K =  1: 15 */
(PID.TID 0000.0001)     ;
(PID.TID 0000.0001) diffKrNrS = /* vertical profile of vertical diffusion of Salt ( m^2/s )*/
(PID.TID 0000.0001)    15 @  3.000000000000000E-05              /* K =  1: 15 */
(PID.TID 0000.0001)     ;
(PID.TID 0000.0001) diffKrBL79surf = /* Surface diffusion for Bryan and Lewis 79 ( m^2/s ) */
(PID.TID 0000.0001)                 0.000000000000000E+00
(PID.TID 0000.0001)     ;
(PID.TID 0000.0001) diffKrBL79deep = /* Deep diffusion for Bryan and Lewis 1979 ( m^2/s ) */
(PID.TID 0000.0001)                 0.000000000000000E+00
(PID.TID 0000.0001)     ;
(PID.TID 0000.0001) diffKrBL79scl = /* Depth scale for Bryan and Lewis 1979 ( m ) */
(PID.TID 0000.0001)                 2.000000000000000E+02
(PID.TID 0000.0001)     ;
(PID.TID 0000.0001) diffKrBL79Ho = /* Turning depth for Bryan and Lewis 1979 ( m ) */
(PID.TID 0000.0001)                -2.000000000000000E+03
(PID.TID 0000.0001)     ;
(PID.TID 0000.0001) ivdc_kappa = /* Implicit Vertical Diffusivity for Convection ( m^2/s) */
(PID.TID 0000.0001)                 1.000000000000000E+01
(PID.TID 0000.0001)     ;
(PID.TID 0000.0001) hMixCriteria=  /* Criteria for mixed-layer diagnostic */
(PID.TID 0000.0001)                -8.000000000000000E-01
(PID.TID 0000.0001)     ;
(PID.TID 0000.0001) dRhoSmall =  /* Parameter for mixed-layer diagnostic */
(PID.TID 0000.0001)                 1.000000000000000E-06
(PID.TID 0000.0001)     ;
(PID.TID 0000.0001) hMixSmooth=  /* Smoothing parameter for mixed-layer diagnostic */
(PID.TID 0000.0001)                 0.000000000000000E+00
(PID.TID 0000.0001)     ;
(PID.TID 0000.0001) eosType =  /* Type of Equation of State */
(PID.TID 0000.0001)               'POLY3 '
(PID.TID 0000.0001)     ;
(PID.TID 0000.0001) Polynomial EQS parameters ( from POLY3.COEFFS ):
(PID.TID 0000.0001)   1  13.497  32.600  24.548  -0.202   0.773  -0.005  -0.002   0.000   0.000   0.000   0.000   0.000
(PID.TID 0000.0001)   2  13.488  32.600  24.819  -0.204   0.773  -0.005  -0.002   0.000   0.000   0.000   0.000   0.000
(PID.TID 0000.0001)   3  13.476  32.600  25.201  -0.205   0.772  -0.005  -0.002   0.000   0.000   0.000   0.000   0.000
(PID.TID 0000.0001)   4   8.469  35.150  28.642  -0.163   0.784  -0.005  -0.002  -0.000   0.000   0.000   0.000   0.000
(PID.TID 0000.0001)   5   8.451  35.150  29.393  -0.167   0.782  -0.005  -0.002  -0.000   0.000   0.000   0.000   0.000
(PID.TID 0000.0001)   6   5.940  34.900  30.563  -0.144   0.786  -0.005  -0.002  -0.001   0.000   0.000   0.000   0.000
(PID.TID 0000.0001)   7   4.425  34.900  31.985  -0.134   0.788  -0.005  -0.003  -0.000   0.000   0.000   0.000   0.000
(PID.TID 0000.0001)   8   2.911  34.750  33.505  -0.125   0.789  -0.006  -0.003  -0.000   0.000   0.000   0.000   0.000
(PID.TID 0000.0001)   9   1.893  34.800  35.341  -0.123   0.789  -0.006  -0.003   0.000   0.000   0.000   0.000   0.000
(PID.TID 0000.0001)  10   1.367  34.800  37.299  -0.129   0.787  -0.006  -0.003   0.000   0.000   0.000   0.000   0.000
(PID.TID 0000.0001)  11   1.327  34.800  39.405  -0.141   0.783  -0.005  -0.003   0.000   0.000   0.000   0.000   0.000
(PID.TID 0000.0001)  12   0.791  34.800  41.788  -0.149   0.780  -0.005  -0.003   0.000   0.000   0.000   0.000   0.000
(PID.TID 0000.0001)  13   0.736  34.750  44.259  -0.164   0.776  -0.005  -0.002   0.000   0.000   0.000   0.000   0.000
(PID.TID 0000.0001)  14   0.186  34.750  47.044  -0.175   0.773  -0.005  -0.002   0.000   0.000   0.000   0.000   0.000
(PID.TID 0000.0001)  15   0.595  34.750  49.835  -0.196   0.767  -0.004  -0.002   0.000   0.000   0.000   0.000   0.000
(PID.TID 0000.0001)     ;
(PID.TID 0000.0001) selectP_inEOS_Zc = /* select pressure to use in EOS (0,1,2,3) */
(PID.TID 0000.0001)                       0
(PID.TID 0000.0001)     0= -g*rhoConst*z ; 1= pRef (from tRef,sRef); 2= Hyd P ; 3= Hyd+NH P
(PID.TID 0000.0001)     ;
(PID.TID 0000.0001) surf_pRef = /* Surface reference pressure ( Pa ) */
(PID.TID 0000.0001)                 1.013250000000000E+05
(PID.TID 0000.0001)     ;
(PID.TID 0000.0001) HeatCapacity_Cp =  /* Specific heat capacity ( J/kg/K ) */
(PID.TID 0000.0001)                 3.994000000000000E+03
(PID.TID 0000.0001)     ;
(PID.TID 0000.0001) celsius2K = /* 0 degree Celsius converted to Kelvin ( K ) */
(PID.TID 0000.0001)                 2.731500000000000E+02
(PID.TID 0000.0001)     ;
(PID.TID 0000.0001) rhoConst  = /* Reference density (Boussinesq)  ( kg/m^3 ) */
(PID.TID 0000.0001)                 1.035000000000000E+03
(PID.TID 0000.0001)     ;
(PID.TID 0000.0001) rhoFacC = /* normalized Reference density @ cell-Center (-) */
(PID.TID 0000.0001)    15 @  1.000000000000000E+00              /* K =  1: 15 */
(PID.TID 0000.0001)     ;
(PID.TID 0000.0001) rhoFacF = /* normalized Reference density @ W-Interface (-) */
(PID.TID 0000.0001)    16 @  1.000000000000000E+00              /* K =  1: 16 */
(PID.TID 0000.0001)     ;
(PID.TID 0000.0001) rhoConstFresh = /* Fresh-water reference density ( kg/m^3 ) */
(PID.TID 0000.0001)                 1.000000000000000E+03
(PID.TID 0000.0001)     ;
(PID.TID 0000.0001) gravity =   /* Gravitational acceleration ( m/s^2 ) */
(PID.TID 0000.0001)                 9.810000000000000E+00
(PID.TID 0000.0001)     ;
(PID.TID 0000.0001) gBaro =   /* Barotropic gravity ( m/s^2 ) */
(PID.TID 0000.0001)                 9.810000000000000E+00
(PID.TID 0000.0001)     ;
(PID.TID 0000.0001) gravFacC = /* gravity factor (vs surf.) @ cell-Center (-) */
(PID.TID 0000.0001)    15 @  1.000000000000000E+00              /* K =  1: 15 */
(PID.TID 0000.0001)     ;
(PID.TID 0000.0001) gravFacF = /* gravity factor (vs surf.) @ W-Interface (-) */
(PID.TID 0000.0001)    16 @  1.000000000000000E+00              /* K =  1: 16 */
(PID.TID 0000.0001)     ;
(PID.TID 0000.0001) rotationPeriod =   /* Rotation Period ( s ) */
(PID.TID 0000.0001)                 8.616400000000000E+04
(PID.TID 0000.0001)     ;
(PID.TID 0000.0001) omega =   /* Angular velocity ( rad/s ) */
(PID.TID 0000.0001)                 7.292123516990375E-05
(PID.TID 0000.0001)     ;
(PID.TID 0000.0001) f0 =   /* Reference coriolis parameter ( 1/s ) */
(PID.TID 0000.0001)                 1.000000000000000E-04
(PID.TID 0000.0001)     ;
(PID.TID 0000.0001) beta =   /* Beta ( 1/(m.s) ) */
(PID.TID 0000.0001)                 9.999999999999999E-12
(PID.TID 0000.0001)     ;
(PID.TID 0000.0001) fPrime =   /* Second coriolis parameter ( 1/s ) */
(PID.TID 0000.0001)                 0.000000000000000E+00
(PID.TID 0000.0001)     ;
(PID.TID 0000.0001) rigidLid =   /* Rigid lid on/off flag */
(PID.TID 0000.0001)                   F
(PID.TID 0000.0001)     ;
(PID.TID 0000.0001) implicitFreeSurface =   /* Implicit free surface on/off flag */
(PID.TID 0000.0001)                   T
(PID.TID 0000.0001)     ;
(PID.TID 0000.0001) freeSurfFac =   /* Implicit free surface factor */
(PID.TID 0000.0001)                 1.000000000000000E+00
(PID.TID 0000.0001)     ;
(PID.TID 0000.0001) implicSurfPress =  /* Surface Pressure implicit factor (0-1) */
(PID.TID 0000.0001)                 1.000000000000000E+00
(PID.TID 0000.0001)     ;
(PID.TID 0000.0001) implicDiv2DFlow =  /* Barot. Flow Div. implicit factor (0-1) */
(PID.TID 0000.0001)                 1.000000000000000E+00
(PID.TID 0000.0001)     ;
(PID.TID 0000.0001) uniformLin_PhiSurf = /* use uniform Bo_surf on/off flag */
(PID.TID 0000.0001)                   T
(PID.TID 0000.0001)     ;
(PID.TID 0000.0001) uniformFreeSurfLev = /* free-surface level-index is uniform */
(PID.TID 0000.0001)                   T
(PID.TID 0000.0001)     ;
(PID.TID 0000.0001) sIceLoadFac =  /* scale factor for sIceLoad (0-1) */
(PID.TID 0000.0001)                 1.000000000000000E+00
(PID.TID 0000.0001)     ;
(PID.TID 0000.0001) hFacMin =   /* minimum partial cell factor (hFac) */
(PID.TID 0000.0001)                 5.000000000000000E-02
(PID.TID 0000.0001)     ;
(PID.TID 0000.0001) hFacMinDr = /* minimum partial cell thickness ( m) */
(PID.TID 0000.0001)                 5.000000000000000E+01
(PID.TID 0000.0001)     ;
(PID.TID 0000.0001) exactConserv = /* Update etaN from continuity Eq on/off flag */
(PID.TID 0000.0001)                   F
(PID.TID 0000.0001)     ;
(PID.TID 0000.0001) linFSConserveTr = /* Tracer correction for Lin Free Surface on/off flag */
(PID.TID 0000.0001)                   F
(PID.TID 0000.0001)     ;
(PID.TID 0000.0001) nonlinFreeSurf = /* Non-linear Free Surf. options (-1,0,1,2,3)*/
(PID.TID 0000.0001)                       0
(PID.TID 0000.0001)      -1,0= Off ; 1,2,3= On, 2=+rescale gU,gV, 3=+update cg2d solv.
(PID.TID 0000.0001)     ;
(PID.TID 0000.0001) hFacInf =   /* lower threshold for hFac (nonlinFreeSurf only)*/
(PID.TID 0000.0001)                 2.000000000000000E-01
(PID.TID 0000.0001)     ;
(PID.TID 0000.0001) hFacSup =   /* upper threshold for hFac (nonlinFreeSurf only)*/
(PID.TID 0000.0001)                 2.000000000000000E+00
(PID.TID 0000.0001)     ;
(PID.TID 0000.0001) select_rStar = /* r* Vertical coord. options (=0 r coord.; >0 uses r*)*/
(PID.TID 0000.0001)                       0
(PID.TID 0000.0001)     ;
(PID.TID 0000.0001) useRealFreshWaterFlux = /* Real Fresh Water Flux on/off flag*/
(PID.TID 0000.0001)                   F
(PID.TID 0000.0001)     ;
(PID.TID 0000.0001) temp_EvPrRn = /* Temp. of Evap/Prec/R (UNSET=use local T)(oC)*/
(PID.TID 0000.0001)                 1.234567000000000E+05
(PID.TID 0000.0001)     ;
(PID.TID 0000.0001) salt_EvPrRn = /* Salin. of Evap/Prec/R (UNSET=use local S)(g/kg)*/
(PID.TID 0000.0001)                 0.000000000000000E+00
(PID.TID 0000.0001)     ;
(PID.TID 0000.0001) selectAddFluid = /* option for mass source/sink of fluid (=0: off) */
(PID.TID 0000.0001)                       0
(PID.TID 0000.0001)     ;
(PID.TID 0000.0001) temp_addMass = /* Temp. of addMass array (UNSET=use local T)(oC)*/
(PID.TID 0000.0001)                 1.234567000000000E+05
(PID.TID 0000.0001)     ;
(PID.TID 0000.0001) salt_addMass = /* Salin. of addMass array (UNSET=use local S)(g/kg)*/
(PID.TID 0000.0001)                 0.000000000000000E+00
(PID.TID 0000.0001)     ;
(PID.TID 0000.0001) convertFW2Salt = /* convert F.W. Flux to Salt Flux (-1=use local S)(g/kg)*/
(PID.TID 0000.0001)                 3.500000000000000E+01
(PID.TID 0000.0001)     ;
(PID.TID 0000.0001) use3Dsolver = /* use 3-D pressure solver on/off flag */
(PID.TID 0000.0001)                   F
(PID.TID 0000.0001)     ;
(PID.TID 0000.0001) nonHydrostatic =  /* Non-Hydrostatic on/off flag */
(PID.TID 0000.0001)                   F
(PID.TID 0000.0001)     ;
(PID.TID 0000.0001) nh_Am2 = /* Non-Hydrostatic terms scaling factor */
(PID.TID 0000.0001)                 1.000000000000000E+00
(PID.TID 0000.0001)     ;
(PID.TID 0000.0001) implicitNHPress = /* Non-Hyd Pressure implicit factor (0-1)*/
(PID.TID 0000.0001)                 1.000000000000000E+00
(PID.TID 0000.0001)     ;
(PID.TID 0000.0001) selectNHfreeSurf = /* Non-Hyd (free-)Surface option */
(PID.TID 0000.0001)                       0
(PID.TID 0000.0001)     ;
(PID.TID 0000.0001) quasiHydrostatic = /* Quasi-Hydrostatic on/off flag */
(PID.TID 0000.0001)                   F
(PID.TID 0000.0001)     ;
(PID.TID 0000.0001) calc_wVelocity = /* vertical velocity calculation on/off flag */
(PID.TID 0000.0001)                   T
(PID.TID 0000.0001)     ;
(PID.TID 0000.0001) momStepping =  /* Momentum equation on/off flag */
(PID.TID 0000.0001)                   T
(PID.TID 0000.0001)     ;
(PID.TID 0000.0001) vectorInvariantMomentum= /* Vector-Invariant Momentum on/off */
(PID.TID 0000.0001)                   F
(PID.TID 0000.0001)     ;
(PID.TID 0000.0001) momAdvection =  /* Momentum advection on/off flag */
(PID.TID 0000.0001)                   T
(PID.TID 0000.0001)     ;
(PID.TID 0000.0001) momViscosity =  /* Momentum viscosity on/off flag */
(PID.TID 0000.0001)                   T
(PID.TID 0000.0001)     ;
(PID.TID 0000.0001) momImplVertAdv= /* Momentum implicit vert. advection on/off*/
(PID.TID 0000.0001)                   F
(PID.TID 0000.0001)     ;
(PID.TID 0000.0001) implicitViscosity = /* Implicit viscosity on/off flag */
(PID.TID 0000.0001)                   F
(PID.TID 0000.0001)     ;
(PID.TID 0000.0001) selectImplicitDrag= /* Implicit bot Drag options (0,1,2)*/
(PID.TID 0000.0001)                       0
(PID.TID 0000.0001)     0= Expl. ; 1= Impl. on provis. Vel ; 2= Fully Impl (with surf.P)
(PID.TID 0000.0001)     ;
(PID.TID 0000.0001) selectMetricTerms= /* Scheme selector for Horizontal Metric Terms */
(PID.TID 0000.0001)                       1
(PID.TID 0000.0001)    = 0 : Off (ignore Spherical/Cylindrical Metric Terms)
(PID.TID 0000.0001)    = 1 : original discretization
(PID.TID 0000.0001)    = 2 : using (Spherical) grid-spacing
(PID.TID 0000.0001)    = 3 : as 2 but gU-Metric inside Advection
(PID.TID 0000.0001)     ;
(PID.TID 0000.0001) useNHMTerms = /* Non-Hydrostatic Metric-Terms on/off */
(PID.TID 0000.0001)                   F
(PID.TID 0000.0001)     ;
(PID.TID 0000.0001) useCoriolis =  /* Coriolis on/off flag */
(PID.TID 0000.0001)                   T
(PID.TID 0000.0001)     ;
(PID.TID 0000.0001) useCDscheme =  /* CD scheme on/off flag */
(PID.TID 0000.0001)                   T
(PID.TID 0000.0001)     ;
(PID.TID 0000.0001) selectCoriMap = /* Coriolis Map options (0,1,2,3)*/
(PID.TID 0000.0001)                       2
(PID.TID 0000.0001)     0= f-Plane ; 1= Beta-Plane ; 2= Spherical ; 3= read from file
(PID.TID 0000.0001)     ;
(PID.TID 0000.0001) select3dCoriScheme= /* Scheme selector for 3-D Coriolis-Term */
(PID.TID 0000.0001)                       0
(PID.TID 0000.0001)    = 0 : Off (ignore 3-D Coriolis Terms in Omega.Cos(Lat) )
(PID.TID 0000.0001)    = 1 : original discretization ; = 2 : using averaged Transport
(PID.TID 0000.0001)    = 3 : same as 2 with hFac in gW_Cor
(PID.TID 0000.0001)     ;
(PID.TID 0000.0001) selectCoriScheme= /* Scheme selector for Coriolis-Term */
(PID.TID 0000.0001)                       0
(PID.TID 0000.0001)    = 0 : original discretization (simple averaging, no hFac)
(PID.TID 0000.0001)    = 1 : Wet-point averaging (Jamar & Ozer 1986)
(PID.TID 0000.0001)    = 2 : energy conserving scheme (no hFac weight)
(PID.TID 0000.0001)    = 3 : energy conserving scheme using Wet-point averaging
(PID.TID 0000.0001)    = 4 : hFac weighted average (Angular Mom. conserving)
(PID.TID 0000.0001)     ;
(PID.TID 0000.0001) momForcing =  /* Momentum forcing on/off flag */
(PID.TID 0000.0001)                   T
(PID.TID 0000.0001)     ;
(PID.TID 0000.0001) momTidalForcing = /* Momentum Tidal forcing on/off flag */
(PID.TID 0000.0001)                   T
(PID.TID 0000.0001)     ;
(PID.TID 0000.0001) momPressureForcing =  /* Momentum pressure term on/off flag */
(PID.TID 0000.0001)                   T
(PID.TID 0000.0001)     ;
(PID.TID 0000.0001) implicitIntGravWave= /* Implicit Internal Gravity Wave flag */
(PID.TID 0000.0001)                   F
(PID.TID 0000.0001)     ;
(PID.TID 0000.0001) staggerTimeStep =    /* Stagger time stepping on/off flag */
(PID.TID 0000.0001)                   F
(PID.TID 0000.0001)     ;
(PID.TID 0000.0001) doResetHFactors = /* reset thickness factors @ each time-step */
(PID.TID 0000.0001)                   F
(PID.TID 0000.0001)     ;
(PID.TID 0000.0001) multiDimAdvection =  /* enable/disable Multi-Dim Advection */
(PID.TID 0000.0001)                   T
(PID.TID 0000.0001)     ;
(PID.TID 0000.0001) useMultiDimAdvec =   /* Multi-Dim Advection is/is-not used */
(PID.TID 0000.0001)                   F
(PID.TID 0000.0001)     ;
(PID.TID 0000.0001) implicitDiffusion = /* Implicit Diffusion on/off flag */
(PID.TID 0000.0001)                   T
(PID.TID 0000.0001)     ;
(PID.TID 0000.0001) tempStepping =  /* Temperature equation on/off flag */
(PID.TID 0000.0001)                   T
(PID.TID 0000.0001)     ;
(PID.TID 0000.0001) tempAdvection = /* Temperature advection on/off flag */
(PID.TID 0000.0001)                   T
(PID.TID 0000.0001)     ;
(PID.TID 0000.0001) tempImplVertAdv = /* Temp. implicit vert. advection on/off */
(PID.TID 0000.0001)                   F
(PID.TID 0000.0001)     ;
(PID.TID 0000.0001) tempForcing  =  /* Temperature forcing on/off flag */
(PID.TID 0000.0001)                   T
(PID.TID 0000.0001)     ;
(PID.TID 0000.0001) selectPenetratingSW = /* short wave penetration selector */
(PID.TID 0000.0001)                       1
(PID.TID 0000.0001)     ;
(PID.TID 0000.0001) doThetaClimRelax = /* apply SST relaxation on/off flag */
(PID.TID 0000.0001)                   T
(PID.TID 0000.0001)     ;
(PID.TID 0000.0001) tempIsActiveTr = /* Temp. is a dynamically Active Tracer */
(PID.TID 0000.0001)                   T
(PID.TID 0000.0001)     ;
(PID.TID 0000.0001) saltStepping =  /* Salinity equation on/off flag */
(PID.TID 0000.0001)                   T
(PID.TID 0000.0001)     ;
(PID.TID 0000.0001) saltAdvection = /* Salinity advection on/off flag */
(PID.TID 0000.0001)                   T
(PID.TID 0000.0001)     ;
(PID.TID 0000.0001) saltImplVertAdv = /* Sali. implicit vert. advection on/off */
(PID.TID 0000.0001)                   F
(PID.TID 0000.0001)     ;
(PID.TID 0000.0001) saltForcing  =  /* Salinity forcing on/off flag */
(PID.TID 0000.0001)                   T
(PID.TID 0000.0001)     ;
(PID.TID 0000.0001) doSaltClimRelax = /* apply SSS relaxation on/off flag */
(PID.TID 0000.0001)                   T
(PID.TID 0000.0001)     ;
(PID.TID 0000.0001) saltIsActiveTr = /* Salt  is a dynamically Active Tracer */
(PID.TID 0000.0001)                   T
(PID.TID 0000.0001)     ;
(PID.TID 0000.0001)  readBinaryPrec = /* Precision used for reading binary files */
(PID.TID 0000.0001)                      32
(PID.TID 0000.0001)     ;
(PID.TID 0000.0001) writeBinaryPrec = /* Precision used for writing binary files */
(PID.TID 0000.0001)                      32
(PID.TID 0000.0001)     ;
(PID.TID 0000.0001)  rwSuffixType =   /* select format of mds file suffix */
(PID.TID 0000.0001)                       0
(PID.TID 0000.0001)    = 0 : myIter (I10.10) ;   = 1 : 100*myTime (100th sec) ;
(PID.TID 0000.0001)    = 2 : myTime (seconds);   = 3 : myTime/360 (10th of hr);
(PID.TID 0000.0001)    = 4 : myTime/3600 (hours)
(PID.TID 0000.0001)     ;
(PID.TID 0000.0001)  globalFiles = /* write "global" (=not per tile) files */
(PID.TID 0000.0001)                   F
(PID.TID 0000.0001)     ;
(PID.TID 0000.0001)  useSingleCpuIO = /* only master MPI process does I/O */
(PID.TID 0000.0001)                   T
(PID.TID 0000.0001)     ;
(PID.TID 0000.0001)  useSingleCpuInput = /* only master process reads input */
(PID.TID 0000.0001)                   T
(PID.TID 0000.0001)     ;
(PID.TID 0000.0001) /* debLev[*]  : level of debug & auxiliary message printing */
(PID.TID 0000.0001) debLevZero =  0 ; /* level of disabled aux. msg printing */
(PID.TID 0000.0001)    debLevA =  1 ; /* level of minimum  aux. msg printing */
(PID.TID 0000.0001)    debLevB =  2 ; /* level of low aux. print (report read-file opening)*/
(PID.TID 0000.0001)    debLevC =  3 ; /* level of moderate debug prt (most pkgs debug msg) */
(PID.TID 0000.0001)    debLevD =  4 ; /* level of enhanced debug prt (add DEBUG_STATS prt) */
(PID.TID 0000.0001)    debLevE =  5 ; /* level of extensive debug printing */
(PID.TID 0000.0001) debugLevel =  /* select debug printing level */
(PID.TID 0000.0001)                       1
(PID.TID 0000.0001)     ;
(PID.TID 0000.0001)  plotLevel =  /* select PLOT_FIELD printing level */
(PID.TID 0000.0001)                       1
(PID.TID 0000.0001)     ;
(PID.TID 0000.0001) //
(PID.TID 0000.0001) // Elliptic solver(s) paramters ( PARM02 in namelist )
(PID.TID 0000.0001) //
(PID.TID 0000.0001) cg2dMaxIters =   /* Upper limit on 2d con. grad iterations  */
(PID.TID 0000.0001)                     500
(PID.TID 0000.0001)     ;
(PID.TID 0000.0001) cg2dMinItersNSA =   /* Minimum number of iterations of 2d con. grad solver  */
(PID.TID 0000.0001)                       0
(PID.TID 0000.0001)     ;
(PID.TID 0000.0001) cg2dUseMinResSol= /* use cg2d last-iter(=0) / min-resid.(=1) solution */
(PID.TID 0000.0001)                       0
(PID.TID 0000.0001)     ;
(PID.TID 0000.0001) cg2dTargetResidual =   /* 2d con. grad target residual  */
(PID.TID 0000.0001)                 1.000000000000000E-13
(PID.TID 0000.0001)     ;
(PID.TID 0000.0001) cg2dTargetResWunit =   /* CG2d target residual [W units] */
(PID.TID 0000.0001)                -1.000000000000000E+00
(PID.TID 0000.0001)     ;
(PID.TID 0000.0001) cg2dPreCondFreq =   /* Freq. for updating cg2d preconditioner */
(PID.TID 0000.0001)                       1
(PID.TID 0000.0001)     ;
(PID.TID 0000.0001) useSRCGSolver =  /* use single reduction CG solver(s) */
(PID.TID 0000.0001)                   F
(PID.TID 0000.0001)     ;
(PID.TID 0000.0001) useNSACGSolver =  /* use not-self-adjoint CG solver */
(PID.TID 0000.0001)                   F
(PID.TID 0000.0001)     ;
(PID.TID 0000.0001) printResidualFreq = /* Freq. for printing CG residual */
(PID.TID 0000.0001)                      -1
(PID.TID 0000.0001)     ;
(PID.TID 0000.0001) //
(PID.TID 0000.0001) // Time stepping paramters ( PARM03 in namelist )
(PID.TID 0000.0001) //
(PID.TID 0000.0001) deltaTMom =   /* Momentum equation timestep ( s ) */
(PID.TID 0000.0001)                 1.200000000000000E+03
(PID.TID 0000.0001)     ;
(PID.TID 0000.0001) deltaTFreeSurf = /* FreeSurface equation timestep ( s ) */
(PID.TID 0000.0001)                 4.320000000000000E+04
(PID.TID 0000.0001)     ;
(PID.TID 0000.0001) dTtracerLev =  /* Tracer equation timestep ( s ) */
(PID.TID 0000.0001)    15 @  4.320000000000000E+04              /* K =  1: 15 */
(PID.TID 0000.0001)     ;
(PID.TID 0000.0001) deltaTClock  =   /* Model clock timestep ( s ) */
(PID.TID 0000.0001)                 4.320000000000000E+04
(PID.TID 0000.0001)     ;
(PID.TID 0000.0001) cAdjFreq =   /* Convective adjustment interval ( s ) */
(PID.TID 0000.0001)                 0.000000000000000E+00
(PID.TID 0000.0001)     ;
(PID.TID 0000.0001) momForcingOutAB = /* =1: take Momentum Forcing out of Adams-Bash. stepping */
(PID.TID 0000.0001)                       0
(PID.TID 0000.0001)     ;
(PID.TID 0000.0001) tracForcingOutAB = /* =1: take T,S,pTr Forcing out of Adams-Bash. stepping */
(PID.TID 0000.0001)                       0
(PID.TID 0000.0001)     ;
(PID.TID 0000.0001) momDissip_In_AB = /* put Dissipation Tendency in Adams-Bash. stepping */
(PID.TID 0000.0001)                   T
(PID.TID 0000.0001)     ;
(PID.TID 0000.0001) doAB_onGtGs = /* apply AB on Tendencies (rather than on T,S)*/
(PID.TID 0000.0001)                   T
(PID.TID 0000.0001)     ;
(PID.TID 0000.0001) abEps =   /* Adams-Bashforth-2 stabilizing weight */
(PID.TID 0000.0001)                 1.000000000000000E-01
(PID.TID 0000.0001)     ;
(PID.TID 0000.0001) applyExchUV_early = /* Apply EXCH to U,V earlier in time-step */
(PID.TID 0000.0001)                   F
(PID.TID 0000.0001)     ;
(PID.TID 0000.0001) tauCD =   /* CD coupling time-scale ( s ) */
(PID.TID 0000.0001)                 3.214280000000000E+05
(PID.TID 0000.0001)     ;
(PID.TID 0000.0001) rCD =   /* Normalised CD coupling parameter */
(PID.TID 0000.0001)                 9.962666600296178E-01
(PID.TID 0000.0001)     ;
(PID.TID 0000.0001) epsAB_CD = /* AB-2 stabilizing weight for CD-scheme*/
(PID.TID 0000.0001)                 1.000000000000000E-01
(PID.TID 0000.0001)     ;
(PID.TID 0000.0001) pickupStrictlyMatch= /* stop if pickup do not strictly match */
(PID.TID 0000.0001)                   T
(PID.TID 0000.0001)     ;
(PID.TID 0000.0001) nIter0   =   /* Run starting timestep number */
(PID.TID 0000.0001)                       0
(PID.TID 0000.0001)     ;
(PID.TID 0000.0001) nTimeSteps = /* Number of timesteps */
(PID.TID 0000.0001)                      20
(PID.TID 0000.0001)     ;
(PID.TID 0000.0001) nEndIter =   /* Run ending timestep number */
(PID.TID 0000.0001)                      20
(PID.TID 0000.0001)     ;
(PID.TID 0000.0001) baseTime =   /* Model base time ( s ) */
(PID.TID 0000.0001)                 0.000000000000000E+00
(PID.TID 0000.0001)     ;
(PID.TID 0000.0001) startTime =  /* Run start time ( s ) */
(PID.TID 0000.0001)                 0.000000000000000E+00
(PID.TID 0000.0001)     ;
(PID.TID 0000.0001) endTime  =   /* Integration ending time ( s ) */
(PID.TID 0000.0001)                 8.640000000000000E+05
(PID.TID 0000.0001)     ;
(PID.TID 0000.0001) pChkPtFreq = /* Permanent restart/pickup file interval ( s ) */
(PID.TID 0000.0001)                 3.110400000000000E+08
(PID.TID 0000.0001)     ;
(PID.TID 0000.0001) chkPtFreq  = /* Rolling restart/pickup file interval ( s ) */
(PID.TID 0000.0001)                 0.000000000000000E+00
(PID.TID 0000.0001)     ;
(PID.TID 0000.0001) pickup_write_mdsio =   /* Model IO flag. */
(PID.TID 0000.0001)                   T
(PID.TID 0000.0001)     ;
(PID.TID 0000.0001) pickup_read_mdsio =   /* Model IO flag. */
(PID.TID 0000.0001)                   T
(PID.TID 0000.0001)     ;
(PID.TID 0000.0001) pickup_write_mnc =   /* Model IO flag. */
(PID.TID 0000.0001)                   F
(PID.TID 0000.0001)     ;
(PID.TID 0000.0001) pickup_read_mnc =   /* Model IO flag. */
(PID.TID 0000.0001)                   F
(PID.TID 0000.0001)     ;
(PID.TID 0000.0001) writePickupAtEnd =   /* Model IO flag. */
(PID.TID 0000.0001)                   T
(PID.TID 0000.0001)     ;
(PID.TID 0000.0001) dumpFreq =   /* Model state write out interval ( s ). */
(PID.TID 0000.0001)                 8.640000000000000E+05
(PID.TID 0000.0001)     ;
(PID.TID 0000.0001) dumpInitAndLast= /* write out Initial & Last iter. model state */
(PID.TID 0000.0001)                   T
(PID.TID 0000.0001)     ;
(PID.TID 0000.0001) snapshot_mdsio =   /* Model IO flag. */
(PID.TID 0000.0001)                   T
(PID.TID 0000.0001)     ;
(PID.TID 0000.0001) snapshot_mnc =   /* Model IO flag. */
(PID.TID 0000.0001)                   F
(PID.TID 0000.0001)     ;
(PID.TID 0000.0001) monitorFreq =   /* Monitor output interval ( s ). */
(PID.TID 0000.0001)                 8.640000000000000E+04
(PID.TID 0000.0001)     ;
(PID.TID 0000.0001) monitorSelect = /* select group of variables to monitor */
(PID.TID 0000.0001)                       3
(PID.TID 0000.0001)     ;
(PID.TID 0000.0001) monitor_stdio =   /* Model IO flag. */
(PID.TID 0000.0001)                   T
(PID.TID 0000.0001)     ;
(PID.TID 0000.0001) monitor_mnc =   /* Model IO flag. */
(PID.TID 0000.0001)                   F
(PID.TID 0000.0001)     ;
(PID.TID 0000.0001) externForcingPeriod =   /* forcing period (s) */
(PID.TID 0000.0001)                 0.000000000000000E+00
(PID.TID 0000.0001)     ;
(PID.TID 0000.0001) externForcingCycle =   /* period of the cyle (s). */
(PID.TID 0000.0001)                 0.000000000000000E+00
(PID.TID 0000.0001)     ;
(PID.TID 0000.0001) tauThetaClimRelax =   /* relaxation time scale (s) */
(PID.TID 0000.0001)                 5.184000000000000E+06
(PID.TID 0000.0001)     ;
(PID.TID 0000.0001) tauSaltClimRelax =   /* relaxation time scale (s) */
(PID.TID 0000.0001)                 1.555200000000000E+07
(PID.TID 0000.0001)     ;
(PID.TID 0000.0001) latBandClimRelax =   /* max. Lat. where relaxation */
(PID.TID 0000.0001)                 1.800000000000000E+02
(PID.TID 0000.0001)     ;
(PID.TID 0000.0001) //
(PID.TID 0000.0001) // Gridding paramters ( PARM04 in namelist )
(PID.TID 0000.0001) //
(PID.TID 0000.0001) usingCartesianGrid = /* Cartesian coordinates flag ( True/False ) */
(PID.TID 0000.0001)                   F
(PID.TID 0000.0001)     ;
(PID.TID 0000.0001) usingCylindricalGrid = /* Cylindrical coordinates flag ( True/False ) */
(PID.TID 0000.0001)                   F
(PID.TID 0000.0001)     ;
(PID.TID 0000.0001) usingSphericalPolarGrid = /* Spherical coordinates flag ( True/False ) */
(PID.TID 0000.0001)                   T
(PID.TID 0000.0001)     ;
(PID.TID 0000.0001) usingCurvilinearGrid = /* Curvilinear coordinates flag ( True/False ) */
(PID.TID 0000.0001)                   F
(PID.TID 0000.0001)     ;
(PID.TID 0000.0001) useMin4hFacEdges = /* set hFacW,S as minimum of adjacent hFacC factor */
(PID.TID 0000.0001)                   F
(PID.TID 0000.0001)     ;
(PID.TID 0000.0001) interViscAr_pCell = /* account for partial-cell in interior vert. viscosity */
(PID.TID 0000.0001)                   F
(PID.TID 0000.0001)     ;
(PID.TID 0000.0001) interDiffKr_pCell = /* account for partial-cell in interior vert. diffusion */
(PID.TID 0000.0001)                   F
(PID.TID 0000.0001)     ;
(PID.TID 0000.0001) pCellMix_select = /* option to enhance mixing near surface & bottom */
(PID.TID 0000.0001)                       0
(PID.TID 0000.0001)     ;
(PID.TID 0000.0001) selectSigmaCoord = /* Hybrid-Sigma Vert. Coordinate option */
(PID.TID 0000.0001)                       0
(PID.TID 0000.0001)     ;
(PID.TID 0000.0001) rSigmaBnd = /* r/sigma transition ( units of r ==  m ) */
(PID.TID 0000.0001)                 1.234567000000000E+05
(PID.TID 0000.0001)     ;
(PID.TID 0000.0001) rkSign =   /* index orientation relative to vertical coordinate */
(PID.TID 0000.0001)                -1.000000000000000E+00
(PID.TID 0000.0001)     ;
(PID.TID 0000.0001) gravitySign = /* gravity orientation relative to vertical coordinate */
(PID.TID 0000.0001)                -1.000000000000000E+00
(PID.TID 0000.0001)     ;
(PID.TID 0000.0001) seaLev_Z =  /* reference height of sea-level [m] */
(PID.TID 0000.0001)                 0.000000000000000E+00
(PID.TID 0000.0001)     ;
(PID.TID 0000.0001) top_Pres =  /* reference pressure at the top [Pa] */
(PID.TID 0000.0001)                 0.000000000000000E+00
(PID.TID 0000.0001)     ;
(PID.TID 0000.0001) mass2rUnit = /* convert mass per unit area [kg/m2] to r-units [m] */
(PID.TID 0000.0001)                 9.661835748792270E-04
(PID.TID 0000.0001)     ;
(PID.TID 0000.0001) rUnit2mass = /* convert r-units [m] to mass per unit area [kg/m2] */
(PID.TID 0000.0001)                 1.035000000000000E+03
(PID.TID 0000.0001)     ;
(PID.TID 0000.0001) drC =   /* C spacing ( units of r ) */
(PID.TID 0000.0001)                 2.500000000000000E+01,      /* K =  1 */
(PID.TID 0000.0001)                 6.000000000000000E+01,      /* K =  2 */
(PID.TID 0000.0001)                 8.500000000000000E+01,      /* K =  3 */
(PID.TID 0000.0001)                 1.200000000000000E+02,      /* K =  4 */
(PID.TID 0000.0001)                 1.650000000000000E+02,      /* K =  5 */
(PID.TID 0000.0001)                 2.150000000000000E+02,      /* K =  6 */
(PID.TID 0000.0001)                 2.650000000000000E+02,      /* K =  7 */
(PID.TID 0000.0001)                 3.150000000000000E+02,      /* K =  8 */
(PID.TID 0000.0001)                 3.650000000000000E+02,      /* K =  9 */
(PID.TID 0000.0001)                 4.150000000000000E+02,      /* K = 10 */
(PID.TID 0000.0001)                 4.650000000000000E+02,      /* K = 11 */
(PID.TID 0000.0001)                 5.150000000000000E+02,      /* K = 12 */
(PID.TID 0000.0001)                 5.650000000000000E+02,      /* K = 13 */
(PID.TID 0000.0001)                 6.150000000000000E+02,      /* K = 14 */
(PID.TID 0000.0001)                 6.650000000000000E+02,      /* K = 15 */
(PID.TID 0000.0001)                 3.450000000000000E+02       /* K = 16 */
(PID.TID 0000.0001)     ;
(PID.TID 0000.0001) drF =   /* W spacing ( units of r ) */
(PID.TID 0000.0001)                 5.000000000000000E+01,      /* K =  1 */
(PID.TID 0000.0001)                 7.000000000000000E+01,      /* K =  2 */
(PID.TID 0000.0001)                 1.000000000000000E+02,      /* K =  3 */
(PID.TID 0000.0001)                 1.400000000000000E+02,      /* K =  4 */
(PID.TID 0000.0001)                 1.900000000000000E+02,      /* K =  5 */
(PID.TID 0000.0001)                 2.400000000000000E+02,      /* K =  6 */
(PID.TID 0000.0001)                 2.900000000000000E+02,      /* K =  7 */
(PID.TID 0000.0001)                 3.400000000000000E+02,      /* K =  8 */
(PID.TID 0000.0001)                 3.900000000000000E+02,      /* K =  9 */
(PID.TID 0000.0001)                 4.400000000000000E+02,      /* K = 10 */
(PID.TID 0000.0001)                 4.900000000000000E+02,      /* K = 11 */
(PID.TID 0000.0001)                 5.400000000000000E+02,      /* K = 12 */
(PID.TID 0000.0001)                 5.900000000000000E+02,      /* K = 13 */
(PID.TID 0000.0001)                 6.400000000000000E+02,      /* K = 14 */
(PID.TID 0000.0001)                 6.900000000000000E+02       /* K = 15 */
(PID.TID 0000.0001)     ;
(PID.TID 0000.0001) delX = /* U spacing ( m - cartesian, degrees - spherical ) */
(PID.TID 0000.0001)    90 @  4.000000000000000E+00              /* I =  1: 90 */
(PID.TID 0000.0001)     ;
(PID.TID 0000.0001) delY = /* V spacing ( m - cartesian, degrees - spherical ) */
(PID.TID 0000.0001)    40 @  4.000000000000000E+00              /* J =  1: 40 */
(PID.TID 0000.0001)     ;
(PID.TID 0000.0001) xgOrigin = /* X-axis origin of West  edge (cartesian: m, lat-lon: deg) */
(PID.TID 0000.0001)                 0.000000000000000E+00
(PID.TID 0000.0001)     ;
(PID.TID 0000.0001) ygOrigin = /* Y-axis origin of South edge (cartesian: m, lat-lon: deg) */
(PID.TID 0000.0001)                -8.000000000000000E+01
(PID.TID 0000.0001)     ;
(PID.TID 0000.0001) rSphere =  /* Radius ( ignored - cartesian, m - spherical ) */
(PID.TID 0000.0001)                 6.370000000000000E+06
(PID.TID 0000.0001)     ;
(PID.TID 0000.0001) deepAtmosphere = /* Deep/Shallow Atmosphere flag (True/False) */
(PID.TID 0000.0001)                   F
(PID.TID 0000.0001)     ;
(PID.TID 0000.0001) xC =  /* xC(:,1,:,1) : P-point X coord ( deg. or m if cartesian) */
(PID.TID 0000.0001)                 2.000000000000000E+00,      /* I =  1 */
(PID.TID 0000.0001)                 6.000000000000000E+00,      /* I =  2 */
(PID.TID 0000.0001)                 1.000000000000000E+01,      /* I =  3 */
(PID.TID 0000.0001)      . . .
(PID.TID 0000.0001)                 8.200000000000000E+01,      /* I = 21 */
(PID.TID 0000.0001)                 8.600000000000000E+01,      /* I = 22 */
(PID.TID 0000.0001)                 9.000000000000000E+01,      /* I = 23 */
(PID.TID 0000.0001)                 9.400000000000000E+01,      /* I = 24 */
(PID.TID 0000.0001)                 9.800000000000000E+01,      /* I = 25 */
(PID.TID 0000.0001)                 1.020000000000000E+02,      /* I = 26 */
(PID.TID 0000.0001)      . . .
(PID.TID 0000.0001)                 1.700000000000000E+02,      /* I = 43 */
(PID.TID 0000.0001)                 1.740000000000000E+02,      /* I = 44 */
(PID.TID 0000.0001)                 1.780000000000000E+02,      /* I = 45 */
(PID.TID 0000.0001)                 1.820000000000000E+02,      /* I = 46 */
(PID.TID 0000.0001)                 1.860000000000000E+02,      /* I = 47 */
(PID.TID 0000.0001)                 1.900000000000000E+02,      /* I = 48 */
(PID.TID 0000.0001)      . . .
(PID.TID 0000.0001)                 2.580000000000000E+02,      /* I = 65 */
(PID.TID 0000.0001)                 2.620000000000000E+02,      /* I = 66 */
(PID.TID 0000.0001)                 2.660000000000000E+02,      /* I = 67 */
(PID.TID 0000.0001)                 2.700000000000000E+02,      /* I = 68 */
(PID.TID 0000.0001)                 2.740000000000000E+02,      /* I = 69 */
(PID.TID 0000.0001)                 2.780000000000000E+02,      /* I = 70 */
(PID.TID 0000.0001)      . . .
(PID.TID 0000.0001)                 3.500000000000000E+02,      /* I = 88 */
(PID.TID 0000.0001)                 3.540000000000000E+02,      /* I = 89 */
(PID.TID 0000.0001)                 3.580000000000000E+02       /* I = 90 */
(PID.TID 0000.0001)     ;
(PID.TID 0000.0001) yC =  /* yC(1,:,1,:) : P-point Y coord ( deg. or m if cartesian) */
(PID.TID 0000.0001)                -7.800000000000000E+01,      /* J =  1 */
(PID.TID 0000.0001)                -7.400000000000000E+01,      /* J =  2 */
(PID.TID 0000.0001)                -7.000000000000000E+01,      /* J =  3 */
(PID.TID 0000.0001)                -6.600000000000000E+01,      /* J =  4 */
(PID.TID 0000.0001)                -6.200000000000000E+01,      /* J =  5 */
(PID.TID 0000.0001)                -5.800000000000000E+01,      /* J =  6 */
(PID.TID 0000.0001)                -5.400000000000000E+01,      /* J =  7 */
(PID.TID 0000.0001)                -5.000000000000000E+01,      /* J =  8 */
(PID.TID 0000.0001)                -4.600000000000000E+01,      /* J =  9 */
(PID.TID 0000.0001)                -4.200000000000000E+01,      /* J = 10 */
(PID.TID 0000.0001)                -3.800000000000000E+01,      /* J = 11 */
(PID.TID 0000.0001)                -3.400000000000000E+01,      /* J = 12 */
(PID.TID 0000.0001)                -3.000000000000000E+01,      /* J = 13 */
(PID.TID 0000.0001)                -2.600000000000000E+01,      /* J = 14 */
(PID.TID 0000.0001)                -2.200000000000000E+01,      /* J = 15 */
(PID.TID 0000.0001)                -1.800000000000000E+01,      /* J = 16 */
(PID.TID 0000.0001)                -1.400000000000000E+01,      /* J = 17 */
(PID.TID 0000.0001)                -1.000000000000000E+01,      /* J = 18 */
(PID.TID 0000.0001)                -6.000000000000000E+00,      /* J = 19 */
(PID.TID 0000.0001)                -2.000000000000000E+00,      /* J = 20 */
(PID.TID 0000.0001)                 2.000000000000000E+00,      /* J = 21 */
(PID.TID 0000.0001)                 6.000000000000000E+00,      /* J = 22 */
(PID.TID 0000.0001)                 1.000000000000000E+01,      /* J = 23 */
(PID.TID 0000.0001)                 1.400000000000000E+01,      /* J = 24 */
(PID.TID 0000.0001)                 1.800000000000000E+01,      /* J = 25 */
(PID.TID 0000.0001)                 2.200000000000000E+01,      /* J = 26 */
(PID.TID 0000.0001)                 2.600000000000000E+01,      /* J = 27 */
(PID.TID 0000.0001)                 3.000000000000000E+01,      /* J = 28 */
(PID.TID 0000.0001)                 3.400000000000000E+01,      /* J = 29 */
(PID.TID 0000.0001)                 3.800000000000000E+01,      /* J = 30 */
(PID.TID 0000.0001)                 4.200000000000000E+01,      /* J = 31 */
(PID.TID 0000.0001)                 4.600000000000000E+01,      /* J = 32 */
(PID.TID 0000.0001)                 5.000000000000000E+01,      /* J = 33 */
(PID.TID 0000.0001)                 5.400000000000000E+01,      /* J = 34 */
(PID.TID 0000.0001)                 5.800000000000000E+01,      /* J = 35 */
(PID.TID 0000.0001)                 6.200000000000000E+01,      /* J = 36 */
(PID.TID 0000.0001)                 6.600000000000000E+01,      /* J = 37 */
(PID.TID 0000.0001)                 7.000000000000000E+01,      /* J = 38 */
(PID.TID 0000.0001)                 7.400000000000000E+01,      /* J = 39 */
(PID.TID 0000.0001)                 7.800000000000000E+01       /* J = 40 */
(PID.TID 0000.0001)     ;
(PID.TID 0000.0001) rcoord = /* P-point R coordinate (  units of r ) */
(PID.TID 0000.0001)                -2.500000000000000E+01,      /* K =  1 */
(PID.TID 0000.0001)                -8.500000000000000E+01,      /* K =  2 */
(PID.TID 0000.0001)                -1.700000000000000E+02,      /* K =  3 */
(PID.TID 0000.0001)                -2.900000000000000E+02,      /* K =  4 */
(PID.TID 0000.0001)                -4.550000000000000E+02,      /* K =  5 */
(PID.TID 0000.0001)                -6.700000000000000E+02,      /* K =  6 */
(PID.TID 0000.0001)                -9.350000000000000E+02,      /* K =  7 */
(PID.TID 0000.0001)                -1.250000000000000E+03,      /* K =  8 */
(PID.TID 0000.0001)                -1.615000000000000E+03,      /* K =  9 */
(PID.TID 0000.0001)                -2.030000000000000E+03,      /* K = 10 */
(PID.TID 0000.0001)                -2.495000000000000E+03,      /* K = 11 */
(PID.TID 0000.0001)                -3.010000000000000E+03,      /* K = 12 */
(PID.TID 0000.0001)                -3.575000000000000E+03,      /* K = 13 */
(PID.TID 0000.0001)                -4.190000000000000E+03,      /* K = 14 */
(PID.TID 0000.0001)                -4.855000000000000E+03       /* K = 15 */
(PID.TID 0000.0001)     ;
(PID.TID 0000.0001) rF =   /* W-Interf. R coordinate (  units of r ) */
(PID.TID 0000.0001)                 0.000000000000000E+00,      /* K =  1 */
(PID.TID 0000.0001)                -5.000000000000000E+01,      /* K =  2 */
(PID.TID 0000.0001)                -1.200000000000000E+02,      /* K =  3 */
(PID.TID 0000.0001)                -2.200000000000000E+02,      /* K =  4 */
(PID.TID 0000.0001)                -3.600000000000000E+02,      /* K =  5 */
(PID.TID 0000.0001)                -5.500000000000000E+02,      /* K =  6 */
(PID.TID 0000.0001)                -7.900000000000000E+02,      /* K =  7 */
(PID.TID 0000.0001)                -1.080000000000000E+03,      /* K =  8 */
(PID.TID 0000.0001)                -1.420000000000000E+03,      /* K =  9 */
(PID.TID 0000.0001)                -1.810000000000000E+03,      /* K = 10 */
(PID.TID 0000.0001)                -2.250000000000000E+03,      /* K = 11 */
(PID.TID 0000.0001)                -2.740000000000000E+03,      /* K = 12 */
(PID.TID 0000.0001)                -3.280000000000000E+03,      /* K = 13 */
(PID.TID 0000.0001)                -3.870000000000000E+03,      /* K = 14 */
(PID.TID 0000.0001)                -4.510000000000000E+03,      /* K = 15 */
(PID.TID 0000.0001)                -5.200000000000000E+03       /* K = 16 */
(PID.TID 0000.0001)     ;
(PID.TID 0000.0001) deepFacC = /* deep-model grid factor @ cell-Center (-) */
(PID.TID 0000.0001)    15 @  1.000000000000000E+00              /* K =  1: 15 */
(PID.TID 0000.0001)     ;
(PID.TID 0000.0001) deepFacF = /* deep-model grid factor @ W-Interface (-) */
(PID.TID 0000.0001)    16 @  1.000000000000000E+00              /* K =  1: 16 */
(PID.TID 0000.0001)     ;
(PID.TID 0000.0001) rotateGrid = /* use rotated grid ( True/False ) */
(PID.TID 0000.0001)                   F
(PID.TID 0000.0001)     ;
(PID.TID 0000.0001) phiEuler = /* Euler angle, rotation about original z-coordinate [rad] */
(PID.TID 0000.0001)                 0.000000000000000E+00
(PID.TID 0000.0001)     ;
(PID.TID 0000.0001) thetaEuler = /* Euler angle, rotation about new x-coordinate [rad] */
(PID.TID 0000.0001)                 0.000000000000000E+00
(PID.TID 0000.0001)     ;
(PID.TID 0000.0001) psiEuler = /* Euler angle, rotation about new z-coordinate [rad] */
(PID.TID 0000.0001)                 0.000000000000000E+00
(PID.TID 0000.0001)     ;
(PID.TID 0000.0001) dxF =  /* dxF(:,1,:,1) ( units: m ) */
(PID.TID 0000.0001)    90 @  9.246038586187513E+04              /* I =  1: 90 */
(PID.TID 0000.0001)     ;
(PID.TID 0000.0001) dxF =  /* dxF(1,:,1,:) ( units: m ) */
(PID.TID 0000.0001)                 9.246038586187513E+04,      /* J =  1 */
(PID.TID 0000.0001)                 1.225786591246834E+05,      /* J =  2 */
(PID.TID 0000.0001)                 1.520997414818001E+05,      /* J =  3 */
(PID.TID 0000.0001)                 1.808798091874300E+05,      /* J =  4 */
(PID.TID 0000.0001)                 2.087786486446736E+05,      /* J =  5 */
(PID.TID 0000.0001)                 2.356603395120765E+05,      /* J =  6 */
(PID.TID 0000.0001)                 2.613939168938713E+05,      /* J =  7 */
(PID.TID 0000.0001)                 2.858540093877838E+05,      /* J =  8 */
(PID.TID 0000.0001)                 3.089214498819034E+05,      /* J =  9 */
(PID.TID 0000.0001)                 3.304838561248741E+05,      /* J = 10 */
(PID.TID 0000.0001)                 3.504361782409254E+05,      /* J = 11 */
(PID.TID 0000.0001)                 3.686812105223083E+05,      /* J = 12 */
(PID.TID 0000.0001)                 3.851300650057323E+05,      /* J = 13 */
(PID.TID 0000.0001)                 3.997026045255871E+05,      /* J = 14 */
(PID.TID 0000.0001)                 4.123278331341585E+05,      /* J = 15 */
(PID.TID 0000.0001)                 4.229442419867491E+05,      /* J = 16 */
(PID.TID 0000.0001)                 4.315001090065870E+05,      /* J = 17 */
(PID.TID 0000.0001)                 4.379537508695838E+05,      /* J = 18 */
(PID.TID 0000.0001)                 4.422737260813012E+05,      /* J = 19 */
(PID.TID 0000.0001)     2 @  4.444389881567502E+05,             /* J = 20: 21 */
(PID.TID 0000.0001)                 4.422737260813012E+05,      /* J = 22 */
(PID.TID 0000.0001)                 4.379537508695838E+05,      /* J = 23 */
(PID.TID 0000.0001)                 4.315001090065870E+05,      /* J = 24 */
(PID.TID 0000.0001)                 4.229442419867491E+05,      /* J = 25 */
(PID.TID 0000.0001)                 4.123278331341585E+05,      /* J = 26 */
(PID.TID 0000.0001)                 3.997026045255871E+05,      /* J = 27 */
(PID.TID 0000.0001)                 3.851300650057323E+05,      /* J = 28 */
(PID.TID 0000.0001)                 3.686812105223083E+05,      /* J = 29 */
(PID.TID 0000.0001)                 3.504361782409254E+05,      /* J = 30 */
(PID.TID 0000.0001)                 3.304838561248741E+05,      /* J = 31 */
(PID.TID 0000.0001)                 3.089214498819034E+05,      /* J = 32 */
(PID.TID 0000.0001)                 2.858540093877838E+05,      /* J = 33 */
(PID.TID 0000.0001)                 2.613939168938713E+05,      /* J = 34 */
(PID.TID 0000.0001)                 2.356603395120765E+05,      /* J = 35 */
(PID.TID 0000.0001)                 2.087786486446736E+05,      /* J = 36 */
(PID.TID 0000.0001)                 1.808798091874300E+05,      /* J = 37 */
(PID.TID 0000.0001)                 1.520997414818001E+05,      /* J = 38 */
(PID.TID 0000.0001)                 1.225786591246834E+05,      /* J = 39 */
(PID.TID 0000.0001)                 9.246038586187513E+04       /* J = 40 */
(PID.TID 0000.0001)     ;
(PID.TID 0000.0001) dyF =  /* dyF(:,1,:,1) ( units: m ) */
(PID.TID 0000.0001)    90 @  4.447098934081552E+05              /* I =  1: 90 */
(PID.TID 0000.0001)     ;
(PID.TID 0000.0001) dyF =  /* dyF(1,:,1,:) ( units: m ) */
(PID.TID 0000.0001)    40 @  4.447098934081552E+05              /* J =  1: 40 */
(PID.TID 0000.0001)     ;
(PID.TID 0000.0001) dxG =  /* dxG(:,1,:,1) ( units: m ) */
(PID.TID 0000.0001)    90 @  7.722306258078101E+04              /* I =  1: 90 */
(PID.TID 0000.0001)     ;
(PID.TID 0000.0001) dxG =  /* dxG(1,:,1,:) ( units: m ) */
(PID.TID 0000.0001)                 7.722306258078101E+04,      /* J =  1 */
(PID.TID 0000.0001)                 1.075850604052271E+05,      /* J =  2 */
(PID.TID 0000.0001)                 1.374229146297914E+05,      /* J =  3 */
(PID.TID 0000.0001)                 1.665912582279823E+05,      /* J =  4 */
(PID.TID 0000.0001)                 1.949479859617814E+05,      /* J =  5 */
(PID.TID 0000.0001)                 2.223549467040777E+05,      /* J =  6 */
(PID.TID 0000.0001)                 2.486786164970726E+05,      /* J =  7 */
(PID.TID 0000.0001)                 2.737907490675810E+05,      /* J =  8 */
(PID.TID 0000.0001)                 2.975690006299821E+05,      /* J =  9 */
(PID.TID 0000.0001)                 3.198975259328452E+05,      /* J = 10 */
(PID.TID 0000.0001)                 3.406675426453503E+05,      /* J = 11 */
(PID.TID 0000.0001)                 3.597778613338690E+05,      /* J = 12 */
(PID.TID 0000.0001)                 3.771353784467131E+05,      /* J = 13 */
(PID.TID 0000.0001)                 3.926555299052806E+05,      /* J = 14 */
(PID.TID 0000.0001)                 4.062627030917454E+05,      /* J = 15 */
(PID.TID 0000.0001)                 4.178906052261313E+05,      /* J = 16 */
(PID.TID 0000.0001)                 4.274825863380723E+05,      /* J = 17 */
(PID.TID 0000.0001)                 4.349919152597734E+05,      /* J = 18 */
(PID.TID 0000.0001)                 4.403820072955634E+05,      /* J = 19 */
(PID.TID 0000.0001)                 4.436266024588540E+05,      /* J = 20 */
(PID.TID 0000.0001)                 4.447098934081552E+05,      /* J = 21 */
(PID.TID 0000.0001)                 4.436266024588540E+05,      /* J = 22 */
(PID.TID 0000.0001)                 4.403820072955634E+05,      /* J = 23 */
(PID.TID 0000.0001)                 4.349919152597734E+05,      /* J = 24 */
(PID.TID 0000.0001)                 4.274825863380723E+05,      /* J = 25 */
(PID.TID 0000.0001)                 4.178906052261313E+05,      /* J = 26 */
(PID.TID 0000.0001)                 4.062627030917454E+05,      /* J = 27 */
(PID.TID 0000.0001)                 3.926555299052806E+05,      /* J = 28 */
(PID.TID 0000.0001)                 3.771353784467131E+05,      /* J = 29 */
(PID.TID 0000.0001)                 3.597778613338690E+05,      /* J = 30 */
(PID.TID 0000.0001)                 3.406675426453503E+05,      /* J = 31 */
(PID.TID 0000.0001)                 3.198975259328452E+05,      /* J = 32 */
(PID.TID 0000.0001)                 2.975690006299821E+05,      /* J = 33 */
(PID.TID 0000.0001)                 2.737907490675810E+05,      /* J = 34 */
(PID.TID 0000.0001)                 2.486786164970726E+05,      /* J = 35 */
(PID.TID 0000.0001)                 2.223549467040777E+05,      /* J = 36 */
(PID.TID 0000.0001)                 1.949479859617814E+05,      /* J = 37 */
(PID.TID 0000.0001)                 1.665912582279823E+05,      /* J = 38 */
(PID.TID 0000.0001)                 1.374229146297914E+05,      /* J = 39 */
(PID.TID 0000.0001)                 1.075850604052271E+05       /* J = 40 */
(PID.TID 0000.0001)     ;
(PID.TID 0000.0001) dyG =  /* dyG(:,1,:,1) ( units: m ) */
(PID.TID 0000.0001)    90 @  4.447098934081552E+05              /* I =  1: 90 */
(PID.TID 0000.0001)     ;
(PID.TID 0000.0001) dyG =  /* dyG(1,:,1,:) ( units: m ) */
(PID.TID 0000.0001)    40 @  4.447098934081552E+05              /* J =  1: 40 */
(PID.TID 0000.0001)     ;
(PID.TID 0000.0001) dxC =  /* dxC(:,1,:,1) ( units: m ) */
(PID.TID 0000.0001)    90 @  9.246038586187513E+04              /* I =  1: 90 */
(PID.TID 0000.0001)     ;
(PID.TID 0000.0001) dxC =  /* dxC(1,:,1,:) ( units: m ) */
(PID.TID 0000.0001)                 9.246038586187513E+04,      /* J =  1 */
(PID.TID 0000.0001)                 1.225786591246834E+05,      /* J =  2 */
(PID.TID 0000.0001)                 1.520997414818001E+05,      /* J =  3 */
(PID.TID 0000.0001)                 1.808798091874300E+05,      /* J =  4 */
(PID.TID 0000.0001)                 2.087786486446736E+05,      /* J =  5 */
(PID.TID 0000.0001)                 2.356603395120765E+05,      /* J =  6 */
(PID.TID 0000.0001)                 2.613939168938713E+05,      /* J =  7 */
(PID.TID 0000.0001)                 2.858540093877838E+05,      /* J =  8 */
(PID.TID 0000.0001)                 3.089214498819034E+05,      /* J =  9 */
(PID.TID 0000.0001)                 3.304838561248741E+05,      /* J = 10 */
(PID.TID 0000.0001)                 3.504361782409254E+05,      /* J = 11 */
(PID.TID 0000.0001)                 3.686812105223083E+05,      /* J = 12 */
(PID.TID 0000.0001)                 3.851300650057323E+05,      /* J = 13 */
(PID.TID 0000.0001)                 3.997026045255871E+05,      /* J = 14 */
(PID.TID 0000.0001)                 4.123278331341585E+05,      /* J = 15 */
(PID.TID 0000.0001)                 4.229442419867491E+05,      /* J = 16 */
(PID.TID 0000.0001)                 4.315001090065870E+05,      /* J = 17 */
(PID.TID 0000.0001)                 4.379537508695838E+05,      /* J = 18 */
(PID.TID 0000.0001)                 4.422737260813012E+05,      /* J = 19 */
(PID.TID 0000.0001)     2 @  4.444389881567502E+05,             /* J = 20: 21 */
(PID.TID 0000.0001)                 4.422737260813012E+05,      /* J = 22 */
(PID.TID 0000.0001)                 4.379537508695838E+05,      /* J = 23 */
(PID.TID 0000.0001)                 4.315001090065870E+05,      /* J = 24 */
(PID.TID 0000.0001)                 4.229442419867491E+05,      /* J = 25 */
(PID.TID 0000.0001)                 4.123278331341585E+05,      /* J = 26 */
(PID.TID 0000.0001)                 3.997026045255871E+05,      /* J = 27 */
(PID.TID 0000.0001)                 3.851300650057323E+05,      /* J = 28 */
(PID.TID 0000.0001)                 3.686812105223083E+05,      /* J = 29 */
(PID.TID 0000.0001)                 3.504361782409254E+05,      /* J = 30 */
(PID.TID 0000.0001)                 3.304838561248741E+05,      /* J = 31 */
(PID.TID 0000.0001)                 3.089214498819034E+05,      /* J = 32 */
(PID.TID 0000.0001)                 2.858540093877838E+05,      /* J = 33 */
(PID.TID 0000.0001)                 2.613939168938713E+05,      /* J = 34 */
(PID.TID 0000.0001)                 2.356603395120765E+05,      /* J = 35 */
(PID.TID 0000.0001)                 2.087786486446736E+05,      /* J = 36 */
(PID.TID 0000.0001)                 1.808798091874300E+05,      /* J = 37 */
(PID.TID 0000.0001)                 1.520997414818001E+05,      /* J = 38 */
(PID.TID 0000.0001)                 1.225786591246834E+05,      /* J = 39 */
(PID.TID 0000.0001)                 9.246038586187513E+04       /* J = 40 */
(PID.TID 0000.0001)     ;
(PID.TID 0000.0001) dyC =  /* dyC(:,1,:,1) ( units: m ) */
(PID.TID 0000.0001)    90 @  4.447098934081552E+05              /* I =  1: 90 */
(PID.TID 0000.0001)     ;
(PID.TID 0000.0001) dyC =  /* dyC(1,:,1,:) ( units: m ) */
(PID.TID 0000.0001)    40 @  4.447098934081552E+05              /* J =  1: 40 */
(PID.TID 0000.0001)     ;
(PID.TID 0000.0001) dxV =  /* dxV(:,1,:,1) ( units: m ) */
(PID.TID 0000.0001)    90 @  7.722306258078101E+04              /* I =  1: 90 */
(PID.TID 0000.0001)     ;
(PID.TID 0000.0001) dxV =  /* dxV(1,:,1,:) ( units: m ) */
(PID.TID 0000.0001)                 7.722306258078101E+04,      /* J =  1 */
(PID.TID 0000.0001)                 1.075850604052271E+05,      /* J =  2 */
(PID.TID 0000.0001)                 1.374229146297914E+05,      /* J =  3 */
(PID.TID 0000.0001)                 1.665912582279823E+05,      /* J =  4 */
(PID.TID 0000.0001)                 1.949479859617814E+05,      /* J =  5 */
(PID.TID 0000.0001)                 2.223549467040777E+05,      /* J =  6 */
(PID.TID 0000.0001)                 2.486786164970726E+05,      /* J =  7 */
(PID.TID 0000.0001)                 2.737907490675810E+05,      /* J =  8 */
(PID.TID 0000.0001)                 2.975690006299821E+05,      /* J =  9 */
(PID.TID 0000.0001)                 3.198975259328452E+05,      /* J = 10 */
(PID.TID 0000.0001)                 3.406675426453503E+05,      /* J = 11 */
(PID.TID 0000.0001)                 3.597778613338690E+05,      /* J = 12 */
(PID.TID 0000.0001)                 3.771353784467131E+05,      /* J = 13 */
(PID.TID 0000.0001)                 3.926555299052806E+05,      /* J = 14 */
(PID.TID 0000.0001)                 4.062627030917454E+05,      /* J = 15 */
(PID.TID 0000.0001)                 4.178906052261313E+05,      /* J = 16 */
(PID.TID 0000.0001)                 4.274825863380723E+05,      /* J = 17 */
(PID.TID 0000.0001)                 4.349919152597734E+05,      /* J = 18 */
(PID.TID 0000.0001)                 4.403820072955634E+05,      /* J = 19 */
(PID.TID 0000.0001)                 4.436266024588540E+05,      /* J = 20 */
(PID.TID 0000.0001)                 4.447098934081552E+05,      /* J = 21 */
(PID.TID 0000.0001)                 4.436266024588540E+05,      /* J = 22 */
(PID.TID 0000.0001)                 4.403820072955634E+05,      /* J = 23 */
(PID.TID 0000.0001)                 4.349919152597734E+05,      /* J = 24 */
(PID.TID 0000.0001)                 4.274825863380723E+05,      /* J = 25 */
(PID.TID 0000.0001)                 4.178906052261313E+05,      /* J = 26 */
(PID.TID 0000.0001)                 4.062627030917454E+05,      /* J = 27 */
(PID.TID 0000.0001)                 3.926555299052806E+05,      /* J = 28 */
(PID.TID 0000.0001)                 3.771353784467131E+05,      /* J = 29 */
(PID.TID 0000.0001)                 3.597778613338690E+05,      /* J = 30 */
(PID.TID 0000.0001)                 3.406675426453503E+05,      /* J = 31 */
(PID.TID 0000.0001)                 3.198975259328452E+05,      /* J = 32 */
(PID.TID 0000.0001)                 2.975690006299821E+05,      /* J = 33 */
(PID.TID 0000.0001)                 2.737907490675810E+05,      /* J = 34 */
(PID.TID 0000.0001)                 2.486786164970726E+05,      /* J = 35 */
(PID.TID 0000.0001)                 2.223549467040777E+05,      /* J = 36 */
(PID.TID 0000.0001)                 1.949479859617814E+05,      /* J = 37 */
(PID.TID 0000.0001)                 1.665912582279823E+05,      /* J = 38 */
(PID.TID 0000.0001)                 1.374229146297914E+05,      /* J = 39 */
(PID.TID 0000.0001)                 1.075850604052271E+05       /* J = 40 */
(PID.TID 0000.0001)     ;
(PID.TID 0000.0001) dyU =  /* dyU(:,1,:,1) ( units: m ) */
(PID.TID 0000.0001)    90 @  4.447098934081552E+05              /* I =  1: 90 */
(PID.TID 0000.0001)     ;
(PID.TID 0000.0001) dyU =  /* dyU(1,:,1,:) ( units: m ) */
(PID.TID 0000.0001)    40 @  4.447098934081552E+05              /* J =  1: 40 */
(PID.TID 0000.0001)     ;
(PID.TID 0000.0001) rA  =  /* rA (:,1,:,1) ( units: m^2 ) */
(PID.TID 0000.0001)    90 @  4.110969866729047E+10              /* I =  1: 90 */
(PID.TID 0000.0001)     ;
(PID.TID 0000.0001) rA  =  /* rA (1,:,1,:) ( units: m^2 ) */
(PID.TID 0000.0001)                 4.110969866729047E+10,      /* J =  1 */
(PID.TID 0000.0001)                 5.450087291636665E+10,      /* J =  2 */
(PID.TID 0000.0001)                 6.762652439100235E+10,      /* J =  3 */
(PID.TID 0000.0001)                 8.042270623660028E+10,      /* J =  4 */
(PID.TID 0000.0001)                 9.282707674147493E+10,      /* J =  5 */
(PID.TID 0000.0001)                 1.047792030594103E+11,      /* J =  6 */
(PID.TID 0000.0001)                 1.162208556324093E+11,      /* J =  7 */
(PID.TID 0000.0001)                 1.270962918792468E+11,      /* J =  8 */
(PID.TID 0000.0001)                 1.373525277677229E+11,      /* J =  9 */
(PID.TID 0000.0001)                 1.469395959475426E+11,      /* J = 10 */
(PID.TID 0000.0001)                 1.558107891862220E+11,      /* J = 11 */
(PID.TID 0000.0001)                 1.639228879220326E+11,      /* J = 12 */
(PID.TID 0000.0001)                 1.712363708253573E+11,      /* J = 13 */
(PID.TID 0000.0001)                 1.777156073426415E+11,      /* J = 14 */
(PID.TID 0000.0001)                 1.833290312848623E+11,      /* J = 15 */
(PID.TID 0000.0001)                 1.880492946148330E+11,      /* J = 16 */
(PID.TID 0000.0001)                 1.918534006840893E+11,      /* J = 17 */
(PID.TID 0000.0001)                 1.947228162702492E+11,      /* J = 18 */
(PID.TID 0000.0001)                 1.966435618690094E+11,      /* J = 19 */
(PID.TID 0000.0001)     2 @  1.976062798008856E+11,             /* J = 20: 21 */
(PID.TID 0000.0001)                 1.966435618690094E+11,      /* J = 22 */
(PID.TID 0000.0001)                 1.947228162702492E+11,      /* J = 23 */
(PID.TID 0000.0001)                 1.918534006840893E+11,      /* J = 24 */
(PID.TID 0000.0001)                 1.880492946148330E+11,      /* J = 25 */
(PID.TID 0000.0001)                 1.833290312848623E+11,      /* J = 26 */
(PID.TID 0000.0001)                 1.777156073426415E+11,      /* J = 27 */
(PID.TID 0000.0001)                 1.712363708253573E+11,      /* J = 28 */
(PID.TID 0000.0001)                 1.639228879220326E+11,      /* J = 29 */
(PID.TID 0000.0001)                 1.558107891862220E+11,      /* J = 30 */
(PID.TID 0000.0001)                 1.469395959475426E+11,      /* J = 31 */
(PID.TID 0000.0001)                 1.373525277677229E+11,      /* J = 32 */
(PID.TID 0000.0001)                 1.270962918792468E+11,      /* J = 33 */
(PID.TID 0000.0001)                 1.162208556324093E+11,      /* J = 34 */
(PID.TID 0000.0001)                 1.047792030594103E+11,      /* J = 35 */
(PID.TID 0000.0001)                 9.282707674147493E+10,      /* J = 36 */
(PID.TID 0000.0001)                 8.042270623660028E+10,      /* J = 37 */
(PID.TID 0000.0001)                 6.762652439100235E+10,      /* J = 38 */
(PID.TID 0000.0001)                 5.450087291636665E+10,      /* J = 39 */
(PID.TID 0000.0001)                 4.110969866729047E+10       /* J = 40 */
(PID.TID 0000.0001)     ;
(PID.TID 0000.0001) rAw =  /* rAw(:,1,:,1) ( units: m^2 ) */
(PID.TID 0000.0001)    90 @  4.110969866729047E+10              /* I =  1: 90 */
(PID.TID 0000.0001)     ;
(PID.TID 0000.0001) rAw =  /* rAw(1,:,1,:) ( units: m^2 ) */
(PID.TID 0000.0001)                 4.110969866729047E+10,      /* J =  1 */
(PID.TID 0000.0001)                 5.450087291636665E+10,      /* J =  2 */
(PID.TID 0000.0001)                 6.762652439100235E+10,      /* J =  3 */
(PID.TID 0000.0001)                 8.042270623660028E+10,      /* J =  4 */
(PID.TID 0000.0001)                 9.282707674147493E+10,      /* J =  5 */
(PID.TID 0000.0001)                 1.047792030594103E+11,      /* J =  6 */
(PID.TID 0000.0001)                 1.162208556324093E+11,      /* J =  7 */
(PID.TID 0000.0001)                 1.270962918792468E+11,      /* J =  8 */
(PID.TID 0000.0001)                 1.373525277677229E+11,      /* J =  9 */
(PID.TID 0000.0001)                 1.469395959475426E+11,      /* J = 10 */
(PID.TID 0000.0001)                 1.558107891862220E+11,      /* J = 11 */
(PID.TID 0000.0001)                 1.639228879220326E+11,      /* J = 12 */
(PID.TID 0000.0001)                 1.712363708253573E+11,      /* J = 13 */
(PID.TID 0000.0001)                 1.777156073426415E+11,      /* J = 14 */
(PID.TID 0000.0001)                 1.833290312848623E+11,      /* J = 15 */
(PID.TID 0000.0001)                 1.880492946148330E+11,      /* J = 16 */
(PID.TID 0000.0001)                 1.918534006840893E+11,      /* J = 17 */
(PID.TID 0000.0001)                 1.947228162702492E+11,      /* J = 18 */
(PID.TID 0000.0001)                 1.966435618690094E+11,      /* J = 19 */
(PID.TID 0000.0001)     2 @  1.976062798008856E+11,             /* J = 20: 21 */
(PID.TID 0000.0001)                 1.966435618690094E+11,      /* J = 22 */
(PID.TID 0000.0001)                 1.947228162702492E+11,      /* J = 23 */
(PID.TID 0000.0001)                 1.918534006840893E+11,      /* J = 24 */
(PID.TID 0000.0001)                 1.880492946148330E+11,      /* J = 25 */
(PID.TID 0000.0001)                 1.833290312848623E+11,      /* J = 26 */
(PID.TID 0000.0001)                 1.777156073426415E+11,      /* J = 27 */
(PID.TID 0000.0001)                 1.712363708253573E+11,      /* J = 28 */
(PID.TID 0000.0001)                 1.639228879220326E+11,      /* J = 29 */
(PID.TID 0000.0001)                 1.558107891862220E+11,      /* J = 30 */
(PID.TID 0000.0001)                 1.469395959475426E+11,      /* J = 31 */
(PID.TID 0000.0001)                 1.373525277677229E+11,      /* J = 32 */
(PID.TID 0000.0001)                 1.270962918792468E+11,      /* J = 33 */
(PID.TID 0000.0001)                 1.162208556324093E+11,      /* J = 34 */
(PID.TID 0000.0001)                 1.047792030594103E+11,      /* J = 35 */
(PID.TID 0000.0001)                 9.282707674147493E+10,      /* J = 36 */
(PID.TID 0000.0001)                 8.042270623660028E+10,      /* J = 37 */
(PID.TID 0000.0001)                 6.762652439100235E+10,      /* J = 38 */
(PID.TID 0000.0001)                 5.450087291636665E+10,      /* J = 39 */
(PID.TID 0000.0001)                 4.110969866729047E+10       /* J = 40 */
(PID.TID 0000.0001)     ;
(PID.TID 0000.0001) rAs =  /* rAs(:,1,:,1) ( units: m^2 ) */
(PID.TID 0000.0001)    90 @  3.433488626798250E+10              /* I =  1: 90 */
(PID.TID 0000.0001)     ;
(PID.TID 0000.0001) rAs =  /* rAs(1,:,1,:) ( units: m^2 ) */
(PID.TID 0000.0001)                 3.433488626798250E+10,      /* J =  1 */
(PID.TID 0000.0001)                 4.783442523123625E+10,      /* J =  2 */
(PID.TID 0000.0001)                 6.110091968306414E+10,      /* J =  3 */
(PID.TID 0000.0001)                 7.406973659603818E+10,      /* J =  4 */
(PID.TID 0000.0001)                 8.667769319778079E+10,      /* J =  5 */
(PID.TID 0000.0001)                 9.886336479107463E+10,      /* J =  6 */
(PID.TID 0000.0001)                 1.105673840088173E+11,      /* J =  7 */
(PID.TID 0000.0001)                 1.217327300458638E+11,      /* J =  8 */
(PID.TID 0000.0001)                 1.323050064586578E+11,      /* J =  9 */
(PID.TID 0000.0001)                 1.422327061792377E+11,      /* J = 10 */
(PID.TID 0000.0001)                 1.514674624524945E+11,      /* J = 11 */
(PID.TID 0000.0001)                 1.599642844741385E+11,      /* J = 12 */
(PID.TID 0000.0001)                 1.676817765813788E+11,      /* J = 13 */
(PID.TID 0000.0001)                 1.745823399284267E+11,      /* J = 14 */
(PID.TID 0000.0001)                 1.806323556642998E+11,      /* J = 15 */
(PID.TID 0000.0001)                 1.858023487204767E+11,      /* J = 16 */
(PID.TID 0000.0001)                 1.900671314104743E+11,      /* J = 17 */
(PID.TID 0000.0001)                 1.934059261417216E+11,      /* J = 18 */
(PID.TID 0000.0001)                 1.958024666419019E+11,      /* J = 19 */
(PID.TID 0000.0001)                 1.972450772065981E+11,      /* J = 20 */
(PID.TID 0000.0001)                 1.977267295821495E+11,      /* J = 21 */
(PID.TID 0000.0001)                 1.972450772065981E+11,      /* J = 22 */
(PID.TID 0000.0001)                 1.958024666419019E+11,      /* J = 23 */
(PID.TID 0000.0001)                 1.934059261417216E+11,      /* J = 24 */
(PID.TID 0000.0001)                 1.900671314104743E+11,      /* J = 25 */
(PID.TID 0000.0001)                 1.858023487204767E+11,      /* J = 26 */
(PID.TID 0000.0001)                 1.806323556642998E+11,      /* J = 27 */
(PID.TID 0000.0001)                 1.745823399284267E+11,      /* J = 28 */
(PID.TID 0000.0001)                 1.676817765813788E+11,      /* J = 29 */
(PID.TID 0000.0001)                 1.599642844741385E+11,      /* J = 30 */
(PID.TID 0000.0001)                 1.514674624524945E+11,      /* J = 31 */
(PID.TID 0000.0001)                 1.422327061792377E+11,      /* J = 32 */
(PID.TID 0000.0001)                 1.323050064586578E+11,      /* J = 33 */
(PID.TID 0000.0001)                 1.217327300458638E+11,      /* J = 34 */
(PID.TID 0000.0001)                 1.105673840088173E+11,      /* J = 35 */
(PID.TID 0000.0001)                 9.886336479107463E+10,      /* J = 36 */
(PID.TID 0000.0001)                 8.667769319778079E+10,      /* J = 37 */
(PID.TID 0000.0001)                 7.406973659603818E+10,      /* J = 38 */
(PID.TID 0000.0001)                 6.110091968306414E+10,      /* J = 39 */
(PID.TID 0000.0001)                 4.783442523123625E+10       /* J = 40 */
(PID.TID 0000.0001)     ;
(PID.TID 0000.0001) globalArea = /* Integrated horizontal Area (m^2) */
(PID.TID 0000.0001)                 3.335490855875281E+14
(PID.TID 0000.0001)     ;
(PID.TID 0000.0001) // =======================================================
(PID.TID 0000.0001) // End of Model config. summary
(PID.TID 0000.0001) // =======================================================
(PID.TID 0000.0001) 
(PID.TID 0000.0001) == Packages configuration : Check & print summary ==
(PID.TID 0000.0001) 
(PID.TID 0000.0001) GMREDI_CHECK: #define GMREDI
(PID.TID 0000.0001) GM_AdvForm =     /* if FALSE => use SkewFlux Form */
(PID.TID 0000.0001)                   F
(PID.TID 0000.0001)     ;
(PID.TID 0000.0001) GM_InMomAsStress = /* if TRUE => apply as Eddy Stress */
(PID.TID 0000.0001)                   F
(PID.TID 0000.0001)     ;
(PID.TID 0000.0001) GM_AdvSeparate = /* Calc Bolus & Euler Adv. separately */
(PID.TID 0000.0001)                   F
(PID.TID 0000.0001)     ;
(PID.TID 0000.0001) GM_ExtraDiag =   /* Tensor Extra Diag (line 1&2) non 0 */
(PID.TID 0000.0001)                   T
(PID.TID 0000.0001)     ;
(PID.TID 0000.0001) GM_isopycK =    /* Background Isopyc. Diffusivity [m^2/s] */
(PID.TID 0000.0001)                 1.000000000000000E+03
(PID.TID 0000.0001)     ;
(PID.TID 0000.0001) GM_advec*K =    /* Backg. GM-Advec(=Bolus) Diffusivity [m^2/s] */
(PID.TID 0000.0001)                 0.000000000000000E+00
(PID.TID 0000.0001)     ;
(PID.TID 0000.0001) GM_skewflx*K =  /* Background GM_SkewFlx Diffusivity [m^2/s] */
(PID.TID 0000.0001)                 1.000000000000000E+03
(PID.TID 0000.0001)     ;
(PID.TID 0000.0001) GM_isoFac_calcK = /* Fraction of dynamic K added to Redi tensor */
(PID.TID 0000.0001)                 1.000000000000000E+00
(PID.TID 0000.0001)     ;
(PID.TID 0000.0001) GM_Kmin_horiz = /* Minimum Horizontal Diffusivity [m^2/s] */
(PID.TID 0000.0001)                 5.000000000000000E+01
(PID.TID 0000.0001)     ;
(PID.TID 0000.0001) GM_Visbeck_alpha = /* Visbeck alpha coeff. [-] */
(PID.TID 0000.0001)                 0.000000000000000E+00
(PID.TID 0000.0001)     ;
(PID.TID 0000.0001) GM_Small_Number =  /* epsilon used in slope calc */
(PID.TID 0000.0001)                 9.999999999999999E-21
(PID.TID 0000.0001)     ;
(PID.TID 0000.0001) GM_slopeSqCutoff = /* Slope^2 cut-off value */
(PID.TID 0000.0001)                 1.000000000000000E+48
(PID.TID 0000.0001)     ;
(PID.TID 0000.0001) GM_taper_scheme =  /* Type of Tapering/Clipping scheme */
(PID.TID 0000.0001)               'gkw91                                   '
(PID.TID 0000.0001)     ;
(PID.TID 0000.0001) GM_maxSlope =  /* Maximum Slope (Tapering/Clipping) */
(PID.TID 0000.0001)                 1.000000000000000E-02
(PID.TID 0000.0001)     ;
(PID.TID 0000.0001) GM_facTrL2dz = /* Minimum Trans.Layer Thick. (factor of dz) */
(PID.TID 0000.0001)                 1.000000000000000E+00
(PID.TID 0000.0001)     ;
(PID.TID 0000.0001) GM_facTrL2ML = /* Max.Trans.Layer Thick. (factor of MxL Depth)*/
(PID.TID 0000.0001)                 5.000000000000000E+00
(PID.TID 0000.0001)     ;
(PID.TID 0000.0001) GM_maxTransLay = /* Maximum Transition Layer Thickness [m] */
(PID.TID 0000.0001)                 5.000000000000000E+02
(PID.TID 0000.0001)     ;
(PID.TID 0000.0001) GM_UseBVP = /* if TRUE => use bvp a la Ferrari et al. (2010) */
(PID.TID 0000.0001)                   F
(PID.TID 0000.0001)     ;
(PID.TID 0000.0001) GM_BVP_ModeNumber = /* Vertical mode number for BVP wave speed */
(PID.TID 0000.0001)                       1
(PID.TID 0000.0001)     ;
(PID.TID 0000.0001) GM_BVP_cMin = /* Minimum wave speed for BVP [m/s] */
(PID.TID 0000.0001)                 1.000000000000000E-01
(PID.TID 0000.0001)     ;
(PID.TID 0000.0001) GM_useSubMeso = /* if TRUE => use Sub-Meso param. (B.Fox-Kemper) */
(PID.TID 0000.0001)                   F
(PID.TID 0000.0001)     ;
(PID.TID 0000.0001) subMeso_Ceff = /* efficiency coeff. of Mixed-Layer Eddies [-] */
(PID.TID 0000.0001)                 7.000000000000001E-02
(PID.TID 0000.0001)     ;
(PID.TID 0000.0001) subMeso_invTau = /* inverse of Sub-Meso mixing time-scale [/s] */
(PID.TID 0000.0001)                 2.000000000000000E-06
(PID.TID 0000.0001)     ;
(PID.TID 0000.0001) subMeso_LfMin = /* minimum length-scale "Lf" [m] */
(PID.TID 0000.0001)                 1.000000000000000E+03
(PID.TID 0000.0001)     ;
(PID.TID 0000.0001) subMeso_Lmax = /* maximum grid-scale length [m] */
(PID.TID 0000.0001)                 1.100000000000000E+05
(PID.TID 0000.0001)     ;
(PID.TID 0000.0001) GM_useLeithQG = /* if TRUE => add QG Leith viscosity to GMRedi tensor */
(PID.TID 0000.0001)                   F
(PID.TID 0000.0001)     ;
(PID.TID 0000.0001) GM_useGEOM = /* using GEOMETRIC */
(PID.TID 0000.0001)                   F
(PID.TID 0000.0001)     ;
(PID.TID 0000.0001) CTRL_CHECK:  --> Starts to check CTRL set-up
(PID.TID 0000.0001) CTRL_CHECK:  <-- Ends Normally
(PID.TID 0000.0001) 
(PID.TID 0000.0001) COST_CHECK: #define ALLOW_COST
(PID.TID 0000.0001) GRDCHK_CHECK: grdchk package
(PID.TID 0000.0001) 
(PID.TID 0000.0001) // =======================================================
(PID.TID 0000.0001) // Gradient check configuration  >>> START <<<
(PID.TID 0000.0001) // =======================================================
(PID.TID 0000.0001) 
(PID.TID 0000.0001)   grdchkvarindex :                      1
(PID.TID 0000.0001)   matching CTRL xx_file:       "xx_theta"
(PID.TID 0000.0001)   eps =                         1.000E-02
(PID.TID 0000.0001)   First location:                       1
(PID.TID 0000.0001)   Last location:                        2
(PID.TID 0000.0001)   Increment:                            1
(PID.TID 0000.0001)   grdchkWhichProc:                      0
(PID.TID 0000.0001)   iLocTile =      1 ,   jLocTile =      1
(PID.TID 0000.0001) 
(PID.TID 0000.0001) // =======================================================
(PID.TID 0000.0001) // Gradient check configuration  >>> END <<<
(PID.TID 0000.0001) // =======================================================
(PID.TID 0000.0001) 
(PID.TID 0000.0001) GAD_CHECK: #define ALLOW_GENERIC_ADVDIFF
(PID.TID 0000.0001) // =======================================================
(PID.TID 0000.0001) // Check Model config. (CONFIG_CHECK):
(PID.TID 0000.0001) // CONFIG_CHECK : Normal End
(PID.TID 0000.0001) // =======================================================
(PID.TID 0000.0001) 
(PID.TID 0000.0001) Start initial hydrostatic pressure computation
(PID.TID 0000.0001) Pressure is predetermined for buoyancyRelation OCEANIC
(PID.TID 0000.0001) 
(PID.TID 0000.0001) // =======================================================
(PID.TID 0000.0001) // Begin MONITOR dynamic field statistics
(PID.TID 0000.0001) // =======================================================
(PID.TID 0000.0001) %MON time_tsnumber                =                     0
(PID.TID 0000.0001) %MON time_secondsf                =   0.0000000000000E+00
(PID.TID 0000.0001) %MON dynstat_eta_max              =   0.0000000000000E+00
(PID.TID 0000.0001) %MON dynstat_eta_min              =   0.0000000000000E+00
(PID.TID 0000.0001) %MON dynstat_eta_mean             =   0.0000000000000E+00
(PID.TID 0000.0001) %MON dynstat_eta_sd               =   0.0000000000000E+00
(PID.TID 0000.0001) %MON dynstat_eta_del2             =   0.0000000000000E+00
(PID.TID 0000.0001) %MON dynstat_uvel_max             =   0.0000000000000E+00
(PID.TID 0000.0001) %MON dynstat_uvel_min             =   0.0000000000000E+00
(PID.TID 0000.0001) %MON dynstat_uvel_mean            =   0.0000000000000E+00
(PID.TID 0000.0001) %MON dynstat_uvel_sd              =   0.0000000000000E+00
(PID.TID 0000.0001) %MON dynstat_uvel_del2            =   0.0000000000000E+00
(PID.TID 0000.0001) %MON dynstat_vvel_max             =   0.0000000000000E+00
(PID.TID 0000.0001) %MON dynstat_vvel_min             =   0.0000000000000E+00
(PID.TID 0000.0001) %MON dynstat_vvel_mean            =   0.0000000000000E+00
(PID.TID 0000.0001) %MON dynstat_vvel_sd              =   0.0000000000000E+00
(PID.TID 0000.0001) %MON dynstat_vvel_del2            =   0.0000000000000E+00
(PID.TID 0000.0001) %MON dynstat_wvel_max             =  -0.0000000000000E+00
(PID.TID 0000.0001) %MON dynstat_wvel_min             =  -0.0000000000000E+00
(PID.TID 0000.0001) %MON dynstat_wvel_mean            =   0.0000000000000E+00
(PID.TID 0000.0001) %MON dynstat_wvel_sd              =   0.0000000000000E+00
(PID.TID 0000.0001) %MON dynstat_wvel_del2            =   0.0000000000000E+00
(PID.TID 0000.0001) %MON dynstat_theta_max            =   2.9329580307007E+01
(PID.TID 0000.0001) %MON dynstat_theta_min            =  -1.8507585525513E+00
(PID.TID 0000.0001) %MON dynstat_theta_mean           =   3.4385862740247E+00
(PID.TID 0000.0001) %MON dynstat_theta_sd             =   4.1126810597649E+00
(PID.TID 0000.0001) %MON dynstat_theta_del2           =   5.2167403232001E-03
(PID.TID 0000.0001) %MON dynstat_salt_max             =   3.7439460754395E+01
(PID.TID 0000.0001) %MON dynstat_salt_min             =   3.1028352737427E+01
(PID.TID 0000.0001) %MON dynstat_salt_mean            =   3.4715046474652E+01
(PID.TID 0000.0001) %MON dynstat_salt_sd              =   2.7634376761931E-01
(PID.TID 0000.0001) %MON dynstat_salt_del2            =   8.6201567836572E-04
(PID.TID 0000.0001) %MON forcing_qnet_max             =   0.0000000000000E+00
(PID.TID 0000.0001) %MON forcing_qnet_min             =   0.0000000000000E+00
(PID.TID 0000.0001) %MON forcing_qnet_mean            =   0.0000000000000E+00
(PID.TID 0000.0001) %MON forcing_qnet_sd              =   0.0000000000000E+00
(PID.TID 0000.0001) %MON forcing_qnet_del2            =   0.0000000000000E+00
(PID.TID 0000.0001) %MON forcing_qsw_max              =   0.0000000000000E+00
(PID.TID 0000.0001) %MON forcing_qsw_min              =   0.0000000000000E+00
(PID.TID 0000.0001) %MON forcing_qsw_mean             =   0.0000000000000E+00
(PID.TID 0000.0001) %MON forcing_qsw_sd               =   0.0000000000000E+00
(PID.TID 0000.0001) %MON forcing_qsw_del2             =   0.0000000000000E+00
(PID.TID 0000.0001) %MON forcing_empmr_max            =   0.0000000000000E+00
(PID.TID 0000.0001) %MON forcing_empmr_min            =   0.0000000000000E+00
(PID.TID 0000.0001) %MON forcing_empmr_mean           =   0.0000000000000E+00
(PID.TID 0000.0001) %MON forcing_empmr_sd             =   0.0000000000000E+00
(PID.TID 0000.0001) %MON forcing_empmr_del2           =   0.0000000000000E+00
(PID.TID 0000.0001) %MON forcing_fu_max               =   1.6004334390163E-01
(PID.TID 0000.0001) %MON forcing_fu_min               =  -1.0329221189022E-01
(PID.TID 0000.0001) %MON forcing_fu_mean              =   4.1280488583042E-03
(PID.TID 0000.0001) %MON forcing_fu_sd                =   5.5800359441598E-02
(PID.TID 0000.0001) %MON forcing_fu_del2              =   3.2370368543277E-04
(PID.TID 0000.0001) %MON forcing_fv_max               =   8.4633164107800E-02
(PID.TID 0000.0001) %MON forcing_fv_min               =  -7.0490099489689E-02
(PID.TID 0000.0001) %MON forcing_fv_mean              =   2.8803575798275E-03
(PID.TID 0000.0001) %MON forcing_fv_sd                =   2.2193297771215E-02
(PID.TID 0000.0001) %MON forcing_fv_del2              =   2.1170835219132E-04
(PID.TID 0000.0001) %MON trAdv_CFL_u_max              =   0.0000000000000E+00
(PID.TID 0000.0001) %MON trAdv_CFL_v_max              =   0.0000000000000E+00
(PID.TID 0000.0001) %MON trAdv_CFL_w_max              =   0.0000000000000E+00
(PID.TID 0000.0001) %MON advcfl_uvel_max              =   0.0000000000000E+00
(PID.TID 0000.0001) %MON advcfl_vvel_max              =   0.0000000000000E+00
(PID.TID 0000.0001) %MON advcfl_wvel_max              =   0.0000000000000E+00
(PID.TID 0000.0001) %MON advcfl_W_hf_max              =   0.0000000000000E+00
(PID.TID 0000.0001) %MON pe_b_mean                    =   0.0000000000000E+00
(PID.TID 0000.0001) %MON ke_max                       =   0.0000000000000E+00
(PID.TID 0000.0001) %MON ke_mean                      =   0.0000000000000E+00
(PID.TID 0000.0001) %MON ke_vol                       =   1.4101703507225E+18
(PID.TID 0000.0001) %MON vort_r_min                   =   0.0000000000000E+00
(PID.TID 0000.0001) %MON vort_r_max                   =   0.0000000000000E+00
(PID.TID 0000.0001) %MON vort_a_mean                  =  -1.9976608796704E-05
(PID.TID 0000.0001) %MON vort_a_sd                    =   7.3718720794773E-05
(PID.TID 0000.0001) %MON vort_p_mean                  =  -2.3730263022063E-05
(PID.TID 0000.0001) %MON vort_p_sd                    =   1.0369776513329E-04
(PID.TID 0000.0001) %MON surfExpan_theta_mean         =   0.0000000000000E+00
(PID.TID 0000.0001) %MON surfExpan_salt_mean          =   0.0000000000000E+00
(PID.TID 0000.0001) // =======================================================
(PID.TID 0000.0001) // End MONITOR dynamic field statistics
(PID.TID 0000.0001) // =======================================================
(PID.TID 0000.0001) whio : write lev 3 rec   1
 SH   5.2213892178558012        23.296536408581801     
 NH   10.477982531836687        25.564398561832434     
 SH   5.2213892178558012        23.296536408581801     
 NH   10.477982531836687        25.564398561832434     
 SH   5.2213892178558012        23.296536408581801     
 NH   10.477982531836687        25.564398561832434     
 SH   5.2213892178558012        23.296536408581801     
 NH   10.477982531836687        25.564398561832434     
(PID.TID 0000.0001) SOLVE_FOR_PRESSURE: putPmEinXvector =    F
 cg2d: Sum(rhs),rhsMax =  -1.77635683940025E-15  7.56835956534411E+00
 SH   5.2201194813001734        23.297498110483730     
 NH   10.466538306882399        25.565240031177950     
 SH   5.2201194813001734        23.297498110483730     
 NH   10.466538306882399        25.565240031177950     
 SH   5.2201194813001734        23.297498110483730     
 NH   10.466538306882399        25.565240031177950     
 SH   5.2201194813001734        23.297498110483730     
 NH   10.466538306882399        25.565240031177950     
 cg2d: Sum(rhs),rhsMax =   1.52100554373646E-14  8.72165931292916E+00
(PID.TID 0000.0001)      cg2d_init_res =   4.86126453564965E-01
(PID.TID 0000.0001)      cg2d_iters(min,last) =      -1      92
(PID.TID 0000.0001)      cg2d_last_res =   8.47641589720883E-14
(PID.TID 0000.0001) // =======================================================
(PID.TID 0000.0001) // Begin MONITOR dynamic field statistics
(PID.TID 0000.0001) // =======================================================
(PID.TID 0000.0001) %MON time_tsnumber                =                     2
(PID.TID 0000.0001) %MON time_secondsf                =   8.6400000000000E+04
(PID.TID 0000.0001) %MON dynstat_eta_max              =   1.5126275690628E+00
(PID.TID 0000.0001) %MON dynstat_eta_min              =  -1.0180169091251E+00
(PID.TID 0000.0001) %MON dynstat_eta_mean             =  -1.4901292537634E-15
(PID.TID 0000.0001) %MON dynstat_eta_sd               =   3.4174197506648E-01
(PID.TID 0000.0001) %MON dynstat_eta_del2             =   2.8002821315206E-03
(PID.TID 0000.0001) %MON dynstat_uvel_max             =   6.2204758853547E-02
(PID.TID 0000.0001) %MON dynstat_uvel_min             =  -9.9963741418482E-02
(PID.TID 0000.0001) %MON dynstat_uvel_mean            =  -5.8694274473780E-04
(PID.TID 0000.0001) %MON dynstat_uvel_sd              =   2.1028338403834E-03
(PID.TID 0000.0001) %MON dynstat_uvel_del2            =   2.7356177585215E-05
(PID.TID 0000.0001) %MON dynstat_vvel_max             =   8.8299781628572E-02
(PID.TID 0000.0001) %MON dynstat_vvel_min             =  -1.3507563411258E-01
(PID.TID 0000.0001) %MON dynstat_vvel_mean            =   1.0298327884956E-03
(PID.TID 0000.0001) %MON dynstat_vvel_sd              =   3.7685046553259E-03
(PID.TID 0000.0001) %MON dynstat_vvel_del2            =   3.2048404274770E-05
(PID.TID 0000.0001) %MON dynstat_wvel_max             =   3.9757014518178E-04
(PID.TID 0000.0001) %MON dynstat_wvel_min             =  -2.5062891861617E-04
(PID.TID 0000.0001) %MON dynstat_wvel_mean            =   1.9035305918297E-22
(PID.TID 0000.0001) %MON dynstat_wvel_sd              =   1.4282749580779E-05
(PID.TID 0000.0001) %MON dynstat_wvel_del2            =   1.8630582225626E-07
(PID.TID 0000.0001) %MON dynstat_theta_max            =   2.9294050165785E+01
(PID.TID 0000.0001) %MON dynstat_theta_min            =  -1.8498031274074E+00
(PID.TID 0000.0001) %MON dynstat_theta_mean           =   3.4381866703958E+00
(PID.TID 0000.0001) %MON dynstat_theta_sd             =   4.1115896246372E+00
(PID.TID 0000.0001) %MON dynstat_theta_del2           =   5.1931334320423E-03
(PID.TID 0000.0001) %MON dynstat_salt_max             =   3.7440184208913E+01
(PID.TID 0000.0001) %MON dynstat_salt_min             =   3.1028967454739E+01
(PID.TID 0000.0001) %MON dynstat_salt_mean            =   3.4715016947887E+01
(PID.TID 0000.0001) %MON dynstat_salt_sd              =   2.7634364484275E-01
(PID.TID 0000.0001) %MON dynstat_salt_del2            =   8.6065344033530E-04
(PID.TID 0000.0001) %MON forcing_qnet_max             =   1.3078311401276E+02
(PID.TID 0000.0001) %MON forcing_qnet_min             =  -3.5027305383591E+01
(PID.TID 0000.0001) %MON forcing_qnet_mean            =  -6.9821893006722E-01
(PID.TID 0000.0001) %MON forcing_qnet_sd              =   2.2554382928799E+01
(PID.TID 0000.0001) %MON forcing_qnet_del2            =   1.1211932913852E-01
(PID.TID 0000.0001) %MON forcing_qsw_max              =   0.0000000000000E+00
(PID.TID 0000.0001) %MON forcing_qsw_min              =   0.0000000000000E+00
(PID.TID 0000.0001) %MON forcing_qsw_mean             =   0.0000000000000E+00
(PID.TID 0000.0001) %MON forcing_qsw_sd               =   0.0000000000000E+00
(PID.TID 0000.0001) %MON forcing_qsw_del2             =   0.0000000000000E+00
(PID.TID 0000.0001) %MON forcing_empmr_max            =   3.7600374110707E-05
(PID.TID 0000.0001) %MON forcing_empmr_min            =  -2.9685016686068E-05
(PID.TID 0000.0001) %MON forcing_empmr_mean           =   1.4208375872388E-06
(PID.TID 0000.0001) %MON forcing_empmr_sd             =   1.1923373923198E-05
(PID.TID 0000.0001) %MON forcing_empmr_del2           =   7.4400852469101E-08
(PID.TID 0000.0001) %MON forcing_fu_max               =   1.6004334390163E-01
(PID.TID 0000.0001) %MON forcing_fu_min               =  -1.0329221189022E-01
(PID.TID 0000.0001) %MON forcing_fu_mean              =   4.1280488583042E-03
(PID.TID 0000.0001) %MON forcing_fu_sd                =   5.5800359441598E-02
(PID.TID 0000.0001) %MON forcing_fu_del2              =   3.2370368543277E-04
(PID.TID 0000.0001) %MON forcing_fv_max               =   8.4633164107800E-02
(PID.TID 0000.0001) %MON forcing_fv_min               =  -7.0490099489689E-02
(PID.TID 0000.0001) %MON forcing_fv_mean              =   2.8803575798275E-03
(PID.TID 0000.0001) %MON forcing_fv_sd                =   2.2193297771215E-02
(PID.TID 0000.0001) %MON forcing_fv_del2              =   2.1170835219132E-04
(PID.TID 0000.0001) %MON trAdv_CFL_u_max              =   5.1003128132327E-03
(PID.TID 0000.0001) %MON trAdv_CFL_v_max              =   6.9709537024494E-03
(PID.TID 0000.0001) %MON trAdv_CFL_w_max              =   2.3469309944654E-02
(PID.TID 0000.0001) %MON advcfl_uvel_max              =   9.8604786937066E-03
(PID.TID 0000.0001) %MON advcfl_vvel_max              =   1.3121514677677E-02
(PID.TID 0000.0001) %MON advcfl_wvel_max              =   4.3746577888600E-02
(PID.TID 0000.0001) %MON advcfl_W_hf_max              =   4.6963238027467E-02
(PID.TID 0000.0001) %MON pe_b_mean                    =   1.3549517711409E-04
(PID.TID 0000.0001) %MON ke_max                       =   5.0348519694252E-03
(PID.TID 0000.0001) %MON ke_mean                      =   9.1444214084939E-06
(PID.TID 0000.0001) %MON ke_vol                       =   1.4101703507225E+18
(PID.TID 0000.0001) %MON vort_r_min                   =  -3.1660122918879E-07
(PID.TID 0000.0001) %MON vort_r_max                   =   3.0090840032579E-07
(PID.TID 0000.0001) %MON vort_a_mean                  =  -1.9976608796704E-05
(PID.TID 0000.0001) %MON vort_a_sd                    =   7.3718593544515E-05
(PID.TID 0000.0001) %MON vort_p_mean                  =  -2.3730263022063E-05
(PID.TID 0000.0001) %MON vort_p_sd                    =   1.0369751208862E-04
(PID.TID 0000.0001) %MON surfExpan_theta_mean         =   3.0682640002619E-05
(PID.TID 0000.0001) %MON surfExpan_salt_mean          =   2.0489048488692E-06
(PID.TID 0000.0001) // =======================================================
(PID.TID 0000.0001) // End MONITOR dynamic field statistics
(PID.TID 0000.0001) // =======================================================
 SH   5.2213217366822278        23.295110541783401     
 NH   10.461108876579829        25.564424809914442     
 SH   5.2213217366822278        23.295110541783401     
 NH   10.461108876579829        25.564424809914442     
 SH   5.2213217366822278        23.295110541783401     
 NH   10.461108876579829        25.564424809914442     
 SH   5.2213217366822278        23.295110541783401     
 NH   10.461108876579829        25.564424809914442     
 cg2d: Sum(rhs),rhsMax =   1.03805852802452E-13  8.58467838119716E+00
 SH   5.2239548196113788        23.292351282764514     
 NH   10.454518373730536        25.562867117108681     
 SH   5.2239548196113788        23.292351282764514     
 NH   10.454518373730536        25.562867117108681     
 SH   5.2239548196113788        23.292351282764514     
 NH   10.454518373730536        25.562867117108681     
 SH   5.2239548196113788        23.292351282764514     
 NH   10.454518373730536        25.562867117108681     
 cg2d: Sum(rhs),rhsMax =   1.52058921010223E-13  8.57272615646466E+00
(PID.TID 0000.0001)      cg2d_init_res =   2.06185252095040E-01
(PID.TID 0000.0001)      cg2d_iters(min,last) =      -1      91
(PID.TID 0000.0001)      cg2d_last_res =   8.70037122830685E-14
(PID.TID 0000.0001) // =======================================================
(PID.TID 0000.0001) // Begin MONITOR dynamic field statistics
(PID.TID 0000.0001) // =======================================================
(PID.TID 0000.0001) %MON time_tsnumber                =                     4
(PID.TID 0000.0001) %MON time_secondsf                =   1.7280000000000E+05
(PID.TID 0000.0001) %MON dynstat_eta_max              =   1.8341141957271E+00
(PID.TID 0000.0001) %MON dynstat_eta_min              =  -1.6694970415343E+00
(PID.TID 0000.0001) %MON dynstat_eta_mean             =  -1.4044034903435E-15
(PID.TID 0000.0001) %MON dynstat_eta_sd               =   5.2405153268206E-01
(PID.TID 0000.0001) %MON dynstat_eta_del2             =   2.6515861821312E-03
(PID.TID 0000.0001) %MON dynstat_uvel_max             =   1.2175387275467E-01
(PID.TID 0000.0001) %MON dynstat_uvel_min             =  -1.9190999272522E-01
(PID.TID 0000.0001) %MON dynstat_uvel_mean            =  -8.2505369904483E-04
(PID.TID 0000.0001) %MON dynstat_uvel_sd              =   4.0987387243279E-03
(PID.TID 0000.0001) %MON dynstat_uvel_del2            =   5.2379471026678E-05
(PID.TID 0000.0001) %MON dynstat_vvel_max             =   1.7158518957379E-01
(PID.TID 0000.0001) %MON dynstat_vvel_min             =  -2.5992128908818E-01
(PID.TID 0000.0001) %MON dynstat_vvel_mean            =   1.1551142172201E-03
(PID.TID 0000.0001) %MON dynstat_vvel_sd              =   6.5550168092973E-03
(PID.TID 0000.0001) %MON dynstat_vvel_del2            =   6.0420738655804E-05
(PID.TID 0000.0001) %MON dynstat_wvel_max             =   7.8773210675719E-04
(PID.TID 0000.0001) %MON dynstat_wvel_min             =  -4.9670765048131E-04
(PID.TID 0000.0001) %MON dynstat_wvel_mean            =   3.7502393749481E-22
(PID.TID 0000.0001) %MON dynstat_wvel_sd              =   2.6485209855305E-05
(PID.TID 0000.0001) %MON dynstat_wvel_del2            =   3.5300625371747E-07
(PID.TID 0000.0001) %MON dynstat_theta_max            =   2.9256027018484E+01
(PID.TID 0000.0001) %MON dynstat_theta_min            =  -1.8518350606693E+00
(PID.TID 0000.0001) %MON dynstat_theta_mean           =   3.4375898361121E+00
(PID.TID 0000.0001) %MON dynstat_theta_sd             =   4.1098496391451E+00
(PID.TID 0000.0001) %MON dynstat_theta_del2           =   5.1579260390544E-03
(PID.TID 0000.0001) %MON dynstat_salt_max             =   3.7440879610793E+01
(PID.TID 0000.0001) %MON dynstat_salt_min             =   3.1029055129951E+01
(PID.TID 0000.0001) %MON dynstat_salt_mean            =   3.4714984323984E+01
(PID.TID 0000.0001) %MON dynstat_salt_sd              =   2.7633463334057E-01
(PID.TID 0000.0001) %MON dynstat_salt_del2            =   8.5860233263434E-04
(PID.TID 0000.0001) %MON forcing_qnet_max             =   1.2981527666927E+02
(PID.TID 0000.0001) %MON forcing_qnet_min             =  -3.5123551913038E+01
(PID.TID 0000.0001) %MON forcing_qnet_mean            =  -7.2429523592867E-01
(PID.TID 0000.0001) %MON forcing_qnet_sd              =   2.2473930431955E+01
(PID.TID 0000.0001) %MON forcing_qnet_del2            =   1.1197428310889E-01
(PID.TID 0000.0001) %MON forcing_qsw_max              =   0.0000000000000E+00
(PID.TID 0000.0001) %MON forcing_qsw_min              =   0.0000000000000E+00
(PID.TID 0000.0001) %MON forcing_qsw_mean             =   0.0000000000000E+00
(PID.TID 0000.0001) %MON forcing_qsw_sd               =   0.0000000000000E+00
(PID.TID 0000.0001) %MON forcing_qsw_del2             =   0.0000000000000E+00
(PID.TID 0000.0001) %MON forcing_empmr_max            =   3.7600374110707E-05
(PID.TID 0000.0001) %MON forcing_empmr_min            =  -2.9685016686068E-05
(PID.TID 0000.0001) %MON forcing_empmr_mean           =   1.4208375872388E-06
(PID.TID 0000.0001) %MON forcing_empmr_sd             =   1.1923373923198E-05
(PID.TID 0000.0001) %MON forcing_empmr_del2           =   7.4400852469101E-08
(PID.TID 0000.0001) %MON forcing_fu_max               =   1.6004334390163E-01
(PID.TID 0000.0001) %MON forcing_fu_min               =  -1.0329221189022E-01
(PID.TID 0000.0001) %MON forcing_fu_mean              =   4.1280488583042E-03
(PID.TID 0000.0001) %MON forcing_fu_sd                =   5.5800359441598E-02
(PID.TID 0000.0001) %MON forcing_fu_del2              =   3.2370368543277E-04
(PID.TID 0000.0001) %MON forcing_fv_max               =   8.4633164107800E-02
(PID.TID 0000.0001) %MON forcing_fv_min               =  -7.0490099489689E-02
(PID.TID 0000.0001) %MON forcing_fv_mean              =   2.8803575798275E-03
(PID.TID 0000.0001) %MON forcing_fv_sd                =   2.2193297771215E-02
(PID.TID 0000.0001) %MON forcing_fv_del2              =   2.1170835219132E-04
(PID.TID 0000.0001) %MON trAdv_CFL_u_max              =   1.3668022575539E-02
(PID.TID 0000.0001) %MON trAdv_CFL_v_max              =   1.9418311873258E-02
(PID.TID 0000.0001) %MON trAdv_CFL_w_max              =   6.1225549661040E-02
(PID.TID 0000.0001) %MON advcfl_uvel_max              =   1.8930107732308E-02
(PID.TID 0000.0001) %MON advcfl_vvel_max              =   2.5249268916767E-02
(PID.TID 0000.0001) %MON advcfl_wvel_max              =   8.7185870665308E-02
(PID.TID 0000.0001) %MON advcfl_W_hf_max              =   9.3596596449522E-02
(PID.TID 0000.0001) %MON pe_b_mean                    =   3.1862157334758E-04
(PID.TID 0000.0001) %MON ke_max                       =   1.8525840222814E-02
(PID.TID 0000.0001) %MON ke_mean                      =   2.8226546121652E-05
(PID.TID 0000.0001) %MON ke_vol                       =   1.4101703507225E+18
(PID.TID 0000.0001) %MON vort_r_min                   =  -6.0340335021058E-07
(PID.TID 0000.0001) %MON vort_r_max                   =   5.7665849326451E-07
(PID.TID 0000.0001) %MON vort_a_mean                  =  -1.9976608796704E-05
(PID.TID 0000.0001) %MON vort_a_sd                    =   7.3718545354966E-05
(PID.TID 0000.0001) %MON vort_p_mean                  =  -2.3730263022063E-05
(PID.TID 0000.0001) %MON vort_p_sd                    =   1.0369744153611E-04
(PID.TID 0000.0001) %MON surfExpan_theta_mean         =   1.8843869779124E-05
(PID.TID 0000.0001) %MON surfExpan_salt_mean          =   7.2113025115452E-07
(PID.TID 0000.0001) // =======================================================
(PID.TID 0000.0001) // End MONITOR dynamic field statistics
(PID.TID 0000.0001) // =======================================================
 SH   5.2277116867621203        23.291073068687240     
 NH   10.447008314152868        25.560610499763470     
 SH   5.2277116867621203        23.291073068687240     
 NH   10.447008314152868        25.560610499763470     
 SH   5.2277116867621203        23.291073068687240     
 NH   10.447008314152868        25.560610499763470     
 SH   5.2277116867621203        23.291073068687240     
 NH   10.447008314152868        25.560610499763470     
 cg2d: Sum(rhs),rhsMax =   8.75965966429249E-14  8.54161341749473E+00
 SH   5.2321875937556115        23.291719510717655     
 NH   10.438635636720335        25.558184972604181     
 SH   5.2321875937556115        23.291719510717655     
 NH   10.438635636720335        25.558184972604181     
 SH   5.2321875937556115        23.291719510717655     
 NH   10.438635636720335        25.558184972604181     
 SH   5.2321875937556115        23.291719510717655     
 NH   10.438635636720335        25.558184972604181     
 cg2d: Sum(rhs),rhsMax =   3.68149954965702E-13  8.39950932313246E+00
(PID.TID 0000.0001)      cg2d_init_res =   1.77764625464905E-01
(PID.TID 0000.0001)      cg2d_iters(min,last) =      -1      91
(PID.TID 0000.0001)      cg2d_last_res =   9.51018146126278E-14
(PID.TID 0000.0001) // =======================================================
(PID.TID 0000.0001) // Begin MONITOR dynamic field statistics
(PID.TID 0000.0001) // =======================================================
(PID.TID 0000.0001) %MON time_tsnumber                =                     6
(PID.TID 0000.0001) %MON time_secondsf                =   2.5920000000000E+05
(PID.TID 0000.0001) %MON dynstat_eta_max              =   2.1086806524208E+00
(PID.TID 0000.0001) %MON dynstat_eta_min              =  -1.6413060303838E+00
(PID.TID 0000.0001) %MON dynstat_eta_mean             =  -4.5907785875137E-15
(PID.TID 0000.0001) %MON dynstat_eta_sd               =   5.7263322792008E-01
(PID.TID 0000.0001) %MON dynstat_eta_del2             =   2.5264719035464E-03
(PID.TID 0000.0001) %MON dynstat_uvel_max             =   1.7630850862248E-01
(PID.TID 0000.0001) %MON dynstat_uvel_min             =  -2.7676271863358E-01
(PID.TID 0000.0001) %MON dynstat_uvel_mean            =  -7.4597854691095E-04
(PID.TID 0000.0001) %MON dynstat_uvel_sd              =   6.0917850094345E-03
(PID.TID 0000.0001) %MON dynstat_uvel_del2            =   7.4712154846997E-05
(PID.TID 0000.0001) %MON dynstat_vvel_max             =   2.5139772444672E-01
(PID.TID 0000.0001) %MON dynstat_vvel_min             =  -3.7680712911917E-01
(PID.TID 0000.0001) %MON dynstat_vvel_mean            =   9.0718212479280E-04
(PID.TID 0000.0001) %MON dynstat_vvel_sd              =   9.2378003358048E-03
(PID.TID 0000.0001) %MON dynstat_vvel_del2            =   8.4274261200817E-05
(PID.TID 0000.0001) %MON dynstat_wvel_max             =   1.1616764250299E-03
(PID.TID 0000.0001) %MON dynstat_wvel_min             =  -7.3200631556972E-04
(PID.TID 0000.0001) %MON dynstat_wvel_mean            =  -1.3637234090720E-21
(PID.TID 0000.0001) %MON dynstat_wvel_sd              =   3.7839934364730E-05
(PID.TID 0000.0001) %MON dynstat_wvel_del2            =   4.9983731296323E-07
(PID.TID 0000.0001) %MON dynstat_theta_max            =   2.9221151017288E+01
(PID.TID 0000.0001) %MON dynstat_theta_min            =  -1.8536241703649E+00
(PID.TID 0000.0001) %MON dynstat_theta_mean           =   3.4373941902348E+00
(PID.TID 0000.0001) %MON dynstat_theta_sd             =   4.1090526423537E+00
(PID.TID 0000.0001) %MON dynstat_theta_del2           =   5.1083259012650E-03
(PID.TID 0000.0001) %MON dynstat_salt_max             =   3.7441599117796E+01
(PID.TID 0000.0001) %MON dynstat_salt_min             =   3.1032913754179E+01
(PID.TID 0000.0001) %MON dynstat_salt_mean            =   3.4714985611766E+01
(PID.TID 0000.0001) %MON dynstat_salt_sd              =   2.7631923933891E-01
(PID.TID 0000.0001) %MON dynstat_salt_del2            =   8.5634323624133E-04
(PID.TID 0000.0001) %MON forcing_qnet_max             =   1.2868183386305E+02
(PID.TID 0000.0001) %MON forcing_qnet_min             =  -3.5196098703317E+01
(PID.TID 0000.0001) %MON forcing_qnet_mean            =  -7.4709728079387E-01
(PID.TID 0000.0001) %MON forcing_qnet_sd              =   2.2374343514244E+01
(PID.TID 0000.0001) %MON forcing_qnet_del2            =   1.1169831789174E-01
(PID.TID 0000.0001) %MON forcing_qsw_max              =   0.0000000000000E+00
(PID.TID 0000.0001) %MON forcing_qsw_min              =   0.0000000000000E+00
(PID.TID 0000.0001) %MON forcing_qsw_mean             =   0.0000000000000E+00
(PID.TID 0000.0001) %MON forcing_qsw_sd               =   0.0000000000000E+00
(PID.TID 0000.0001) %MON forcing_qsw_del2             =   0.0000000000000E+00
(PID.TID 0000.0001) %MON forcing_empmr_max            =   3.7600374110707E-05
(PID.TID 0000.0001) %MON forcing_empmr_min            =  -2.9685016686068E-05
(PID.TID 0000.0001) %MON forcing_empmr_mean           =   1.4208375872388E-06
(PID.TID 0000.0001) %MON forcing_empmr_sd             =   1.1923373923198E-05
(PID.TID 0000.0001) %MON forcing_empmr_del2           =   7.4400852469101E-08
(PID.TID 0000.0001) %MON forcing_fu_max               =   1.6004334390163E-01
(PID.TID 0000.0001) %MON forcing_fu_min               =  -1.0329221189022E-01
(PID.TID 0000.0001) %MON forcing_fu_mean              =   4.1280488583042E-03
(PID.TID 0000.0001) %MON forcing_fu_sd                =   5.5800359441598E-02
(PID.TID 0000.0001) %MON forcing_fu_del2              =   3.2370368543277E-04
(PID.TID 0000.0001) %MON forcing_fv_max               =   8.4633164107800E-02
(PID.TID 0000.0001) %MON forcing_fv_min               =  -7.0490099489689E-02
(PID.TID 0000.0001) %MON forcing_fv_mean              =   2.8803575798275E-03
(PID.TID 0000.0001) %MON forcing_fv_sd                =   2.2193297771215E-02
(PID.TID 0000.0001) %MON forcing_fv_del2              =   2.1170835219132E-04
(PID.TID 0000.0001) %MON trAdv_CFL_u_max              =   2.0205580550490E-02
(PID.TID 0000.0001) %MON trAdv_CFL_v_max              =   3.1285348090982E-02
(PID.TID 0000.0001) %MON trAdv_CFL_w_max              =   1.0145021601233E-01
(PID.TID 0000.0001) %MON advcfl_uvel_max              =   2.7300027505715E-02
(PID.TID 0000.0001) %MON advcfl_vvel_max              =   3.6603790964030E-02
(PID.TID 0000.0001) %MON advcfl_wvel_max              =   1.2900627849880E-01
(PID.TID 0000.0001) %MON advcfl_W_hf_max              =   1.3849203427077E-01
(PID.TID 0000.0001) %MON pe_b_mean                    =   3.8043483506213E-04
(PID.TID 0000.0001) %MON ke_max                       =   3.8872789305375E-02
(PID.TID 0000.0001) %MON ke_mean                      =   5.6589547757715E-05
(PID.TID 0000.0001) %MON ke_vol                       =   1.4101703507225E+18
(PID.TID 0000.0001) %MON vort_r_min                   =  -8.6557347521907E-07
(PID.TID 0000.0001) %MON vort_r_max                   =   8.3972131037184E-07
(PID.TID 0000.0001) %MON vort_a_mean                  =  -1.9976608796704E-05
(PID.TID 0000.0001) %MON vort_a_sd                    =   7.3718562870349E-05
(PID.TID 0000.0001) %MON vort_p_mean                  =  -2.3730263022063E-05
(PID.TID 0000.0001) %MON vort_p_sd                    =   1.0369747033169E-04
(PID.TID 0000.0001) %MON surfExpan_theta_mean         =   3.5852367284050E-06
(PID.TID 0000.0001) %MON surfExpan_salt_mean          =  -3.4812210451388E-07
(PID.TID 0000.0001) // =======================================================
(PID.TID 0000.0001) // End MONITOR dynamic field statistics
(PID.TID 0000.0001) // =======================================================
 SH   5.2371050854720806        23.293890821341904     
 NH   10.429513952025786        25.556431314590327     
 SH   5.2371050854720806        23.293890821341904     
 NH   10.429513952025786        25.556431314590327     
 SH   5.2371050854720806        23.293890821341904     
 NH   10.429513952025786        25.556431314590327     
 SH   5.2371050854720806        23.293890821341904     
 NH   10.429513952025786        25.556431314590327     
 cg2d: Sum(rhs),rhsMax =   3.27737836869346E-13  8.14948256898594E+00
 SH   5.2423054480736937        23.296903213232156     
 NH   10.420007771941528        25.555926924928599     
 SH   5.2423054480736937        23.296903213232156     
 NH   10.420007771941528        25.555926924928599     
 SH   5.2423054480736937        23.296903213232156     
 NH   10.420007771941528        25.555926924928599     
 SH   5.2423054480736937        23.296903213232156     
 NH   10.420007771941528        25.555926924928599     
 cg2d: Sum(rhs),rhsMax =   3.99236199655206E-13  7.83154430788592E+00
(PID.TID 0000.0001)      cg2d_init_res =   1.90651458998562E-01
(PID.TID 0000.0001)      cg2d_iters(min,last) =      -1      91
(PID.TID 0000.0001)      cg2d_last_res =   9.17717796871146E-14
(PID.TID 0000.0001) // =======================================================
(PID.TID 0000.0001) // Begin MONITOR dynamic field statistics
(PID.TID 0000.0001) // =======================================================
(PID.TID 0000.0001) %MON time_tsnumber                =                     8
(PID.TID 0000.0001) %MON time_secondsf                =   3.4560000000000E+05
(PID.TID 0000.0001) %MON dynstat_eta_max              =   2.1809045910466E+00
(PID.TID 0000.0001) %MON dynstat_eta_min              =  -1.5233687746218E+00
(PID.TID 0000.0001) %MON dynstat_eta_mean             =  -5.9661383765892E-15
(PID.TID 0000.0001) %MON dynstat_eta_sd               =   5.6819425065606E-01
(PID.TID 0000.0001) %MON dynstat_eta_del2             =   2.3777646950856E-03
(PID.TID 0000.0001) %MON dynstat_uvel_max             =   2.2485957671495E-01
(PID.TID 0000.0001) %MON dynstat_uvel_min             =  -3.5387183339631E-01
(PID.TID 0000.0001) %MON dynstat_uvel_mean            =  -5.3037024092609E-04
(PID.TID 0000.0001) %MON dynstat_uvel_sd              =   8.1776496140734E-03
(PID.TID 0000.0001) %MON dynstat_uvel_del2            =   9.3936463334930E-05
(PID.TID 0000.0001) %MON dynstat_vvel_max             =   3.2652852839061E-01
(PID.TID 0000.0001) %MON dynstat_vvel_min             =  -4.8528777164924E-01
(PID.TID 0000.0001) %MON dynstat_vvel_mean            =   4.1823351578922E-04
(PID.TID 0000.0001) %MON dynstat_vvel_sd              =   1.1565778559172E-02
(PID.TID 0000.0001) %MON dynstat_vvel_del2            =   1.0261271641822E-04
(PID.TID 0000.0001) %MON dynstat_wvel_max             =   1.5111490627482E-03
(PID.TID 0000.0001) %MON dynstat_wvel_min             =  -9.5245693612418E-04
(PID.TID 0000.0001) %MON dynstat_wvel_mean            =  -3.9775266097934E-22
(PID.TID 0000.0001) %MON dynstat_wvel_sd              =   4.7775184743847E-05
(PID.TID 0000.0001) %MON dynstat_wvel_del2            =   6.2234935495215E-07
(PID.TID 0000.0001) %MON dynstat_theta_max            =   2.9190572663431E+01
(PID.TID 0000.0001) %MON dynstat_theta_min            =  -1.8550805826520E+00
(PID.TID 0000.0001) %MON dynstat_theta_mean           =   3.4374432658827E+00
(PID.TID 0000.0001) %MON dynstat_theta_sd             =   4.1090727883470E+00
(PID.TID 0000.0001) %MON dynstat_theta_del2           =   5.0555768723727E-03
(PID.TID 0000.0001) %MON dynstat_salt_max             =   3.7442415990117E+01
(PID.TID 0000.0001) %MON dynstat_salt_min             =   3.1037406452358E+01
(PID.TID 0000.0001) %MON dynstat_salt_mean            =   3.4714999608851E+01
(PID.TID 0000.0001) %MON dynstat_salt_sd              =   2.7630897646974E-01
(PID.TID 0000.0001) %MON dynstat_salt_del2            =   8.5403571359786E-04
(PID.TID 0000.0001) %MON forcing_qnet_max             =   1.2704401926394E+02
(PID.TID 0000.0001) %MON forcing_qnet_min             =  -3.5208613955376E+01
(PID.TID 0000.0001) %MON forcing_qnet_mean            =  -7.5777038098343E-01
(PID.TID 0000.0001) %MON forcing_qnet_sd              =   2.2207955834188E+01
(PID.TID 0000.0001) %MON forcing_qnet_del2            =   1.1115595454899E-01
(PID.TID 0000.0001) %MON forcing_qsw_max              =   0.0000000000000E+00
(PID.TID 0000.0001) %MON forcing_qsw_min              =   0.0000000000000E+00
(PID.TID 0000.0001) %MON forcing_qsw_mean             =   0.0000000000000E+00
(PID.TID 0000.0001) %MON forcing_qsw_sd               =   0.0000000000000E+00
(PID.TID 0000.0001) %MON forcing_qsw_del2             =   0.0000000000000E+00
(PID.TID 0000.0001) %MON forcing_empmr_max            =   3.7600374110707E-05
(PID.TID 0000.0001) %MON forcing_empmr_min            =  -2.9685016686068E-05
(PID.TID 0000.0001) %MON forcing_empmr_mean           =   1.4208375872388E-06
(PID.TID 0000.0001) %MON forcing_empmr_sd             =   1.1923373923198E-05
(PID.TID 0000.0001) %MON forcing_empmr_del2           =   7.4400852469101E-08
(PID.TID 0000.0001) %MON forcing_fu_max               =   1.6004334390163E-01
(PID.TID 0000.0001) %MON forcing_fu_min               =  -1.0329221189022E-01
(PID.TID 0000.0001) %MON forcing_fu_mean              =   4.1280488583042E-03
(PID.TID 0000.0001) %MON forcing_fu_sd                =   5.5800359441598E-02
(PID.TID 0000.0001) %MON forcing_fu_del2              =   3.2370368543277E-04
(PID.TID 0000.0001) %MON forcing_fv_max               =   8.4633164107800E-02
(PID.TID 0000.0001) %MON forcing_fv_min               =  -7.0490099489689E-02
(PID.TID 0000.0001) %MON forcing_fv_mean              =   2.8803575798275E-03
(PID.TID 0000.0001) %MON forcing_fv_sd                =   2.2193297771215E-02
(PID.TID 0000.0001) %MON forcing_fv_del2              =   2.1170835219132E-04
(PID.TID 0000.0001) %MON trAdv_CFL_u_max              =   2.4065951117015E-02
(PID.TID 0000.0001) %MON trAdv_CFL_v_max              =   4.2326373493659E-02
(PID.TID 0000.0001) %MON trAdv_CFL_w_max              =   1.3936215126770E-01
(PID.TID 0000.0001) %MON advcfl_uvel_max              =   3.4906113196581E-02
(PID.TID 0000.0001) %MON advcfl_vvel_max              =   4.7141815475659E-02
(PID.TID 0000.0001) %MON advcfl_wvel_max              =   1.6805452953221E-01
(PID.TID 0000.0001) %MON advcfl_W_hf_max              =   1.8041148023311E-01
(PID.TID 0000.0001) %MON pe_b_mean                    =   3.7455953460717E-04
(PID.TID 0000.0001) %MON ke_max                       =   6.4499149513660E-02
(PID.TID 0000.0001) %MON ke_mean                      =   9.1942756441150E-05
(PID.TID 0000.0001) %MON ke_vol                       =   1.4101703507225E+18
(PID.TID 0000.0001) %MON vort_r_min                   =  -1.1019871618687E-06
(PID.TID 0000.0001) %MON vort_r_max                   =   1.0883629142922E-06
(PID.TID 0000.0001) %MON vort_a_mean                  =  -1.9976608796704E-05
(PID.TID 0000.0001) %MON vort_a_sd                    =   7.3718610401738E-05
(PID.TID 0000.0001) %MON vort_p_mean                  =  -2.3730263022063E-05
(PID.TID 0000.0001) %MON vort_p_sd                    =   1.0369750128726E-04
(PID.TID 0000.0001) %MON surfExpan_theta_mean         =  -3.6107945970116E-06
(PID.TID 0000.0001) %MON surfExpan_salt_mean          =  -5.9167647871484E-07
(PID.TID 0000.0001) // =======================================================
(PID.TID 0000.0001) // End MONITOR dynamic field statistics
(PID.TID 0000.0001) // =======================================================
 SH   5.2476929483124763        23.300138585340278     
 NH   10.410640674681588        25.556726797072145     
 SH   5.2476929483124763        23.300138585340278     
 NH   10.410640674681588        25.556726797072145     
 SH   5.2476929483124763        23.300138585340278     
 NH   10.410640674681588        25.556726797072145     
 SH   5.2476929483124763        23.300138585340278     
 NH   10.410640674681588        25.556726797072145     
 cg2d: Sum(rhs),rhsMax =   4.45865566689463E-13  7.51067684218438E+00
 SH   5.2531878806361760        23.303203626487402     
 NH   10.401900613434748        25.558463681810963     
 SH   5.2531878806361760        23.303203626487402     
 NH   10.401900613434748        25.558463681810963     
 SH   5.2531878806361760        23.303203626487402     
 NH   10.401900613434748        25.558463681810963     
 SH   5.2531878806361760        23.303203626487402     
 NH   10.401900613434748        25.558463681810963     
 cg2d: Sum(rhs),rhsMax =   4.61408689034215E-13  7.13991401158280E+00
(PID.TID 0000.0001)      cg2d_init_res =   2.15490811726396E-01
(PID.TID 0000.0001)      cg2d_iters(min,last) =      -1      90
(PID.TID 0000.0001)      cg2d_last_res =   8.98286414158485E-14
(PID.TID 0000.0001) // =======================================================
(PID.TID 0000.0001) // Begin MONITOR dynamic field statistics
(PID.TID 0000.0001) // =======================================================
(PID.TID 0000.0001) %MON time_tsnumber                =                    10
(PID.TID 0000.0001) %MON time_secondsf                =   4.3200000000000E+05
(PID.TID 0000.0001) %MON dynstat_eta_max              =   2.1167876456326E+00
(PID.TID 0000.0001) %MON dynstat_eta_min              =  -1.4906182908485E+00
(PID.TID 0000.0001) %MON dynstat_eta_mean             =  -6.5057890840194E-15
(PID.TID 0000.0001) %MON dynstat_eta_sd               =   5.4852339104166E-01
(PID.TID 0000.0001) %MON dynstat_eta_del2             =   2.2487730517924E-03
(PID.TID 0000.0001) %MON dynstat_uvel_max             =   2.6709725616640E-01
(PID.TID 0000.0001) %MON dynstat_uvel_min             =  -4.2287894822996E-01
(PID.TID 0000.0001) %MON dynstat_uvel_mean            =  -2.5011407542702E-04
(PID.TID 0000.0001) %MON dynstat_uvel_sd              =   1.0315206634159E-02
(PID.TID 0000.0001) %MON dynstat_uvel_del2            =   1.1009453622288E-04
(PID.TID 0000.0001) %MON dynstat_vvel_max             =   3.9628043170466E-01
(PID.TID 0000.0001) %MON dynstat_vvel_min             =  -5.8372841122829E-01
(PID.TID 0000.0001) %MON dynstat_vvel_mean            =  -1.0985772466697E-04
(PID.TID 0000.0001) %MON dynstat_vvel_sd              =   1.3432586558444E-02
(PID.TID 0000.0001) %MON dynstat_vvel_del2            =   1.1501192190852E-04
(PID.TID 0000.0001) %MON dynstat_wvel_max             =   1.8338505259012E-03
(PID.TID 0000.0001) %MON dynstat_wvel_min             =  -1.1528014368381E-03
(PID.TID 0000.0001) %MON dynstat_wvel_mean            =  -5.5117154449994E-22
(PID.TID 0000.0001) %MON dynstat_wvel_sd              =   5.6073283733303E-05
(PID.TID 0000.0001) %MON dynstat_wvel_del2            =   7.1867204903587E-07
(PID.TID 0000.0001) %MON dynstat_theta_max            =   2.9160261609237E+01
(PID.TID 0000.0001) %MON dynstat_theta_min            =  -1.8561639864327E+00
(PID.TID 0000.0001) %MON dynstat_theta_mean           =   3.4375493211355E+00
(PID.TID 0000.0001) %MON dynstat_theta_sd             =   4.1093163284213E+00
(PID.TID 0000.0001) %MON dynstat_theta_del2           =   5.0085669769179E-03
(PID.TID 0000.0001) %MON dynstat_salt_max             =   3.7443412400829E+01
(PID.TID 0000.0001) %MON dynstat_salt_min             =   3.1040493153781E+01
(PID.TID 0000.0001) %MON dynstat_salt_mean            =   3.4715011437999E+01
(PID.TID 0000.0001) %MON dynstat_salt_sd              =   2.7631016817266E-01
(PID.TID 0000.0001) %MON dynstat_salt_del2            =   8.5200113743391E-04
(PID.TID 0000.0001) %MON forcing_qnet_max             =   1.2499902019849E+02
(PID.TID 0000.0001) %MON forcing_qnet_min             =  -3.5212749685810E+01
(PID.TID 0000.0001) %MON forcing_qnet_mean            =  -7.6091816677996E-01
(PID.TID 0000.0001) %MON forcing_qnet_sd              =   2.1995912423463E+01
(PID.TID 0000.0001) %MON forcing_qnet_del2            =   1.1053679501746E-01
(PID.TID 0000.0001) %MON forcing_qsw_max              =   0.0000000000000E+00
(PID.TID 0000.0001) %MON forcing_qsw_min              =   0.0000000000000E+00
(PID.TID 0000.0001) %MON forcing_qsw_mean             =   0.0000000000000E+00
(PID.TID 0000.0001) %MON forcing_qsw_sd               =   0.0000000000000E+00
(PID.TID 0000.0001) %MON forcing_qsw_del2             =   0.0000000000000E+00
(PID.TID 0000.0001) %MON forcing_empmr_max            =   3.7600374110707E-05
(PID.TID 0000.0001) %MON forcing_empmr_min            =  -2.9685016686068E-05
(PID.TID 0000.0001) %MON forcing_empmr_mean           =   1.4208375872388E-06
(PID.TID 0000.0001) %MON forcing_empmr_sd             =   1.1923373923198E-05
(PID.TID 0000.0001) %MON forcing_empmr_del2           =   7.4400852469101E-08
(PID.TID 0000.0001) %MON forcing_fu_max               =   1.6004334390163E-01
(PID.TID 0000.0001) %MON forcing_fu_min               =  -1.0329221189022E-01
(PID.TID 0000.0001) %MON forcing_fu_mean              =   4.1280488583042E-03
(PID.TID 0000.0001) %MON forcing_fu_sd                =   5.5800359441598E-02
(PID.TID 0000.0001) %MON forcing_fu_del2              =   3.2370368543277E-04
(PID.TID 0000.0001) %MON forcing_fv_max               =   8.4633164107800E-02
(PID.TID 0000.0001) %MON forcing_fv_min               =  -7.0490099489689E-02
(PID.TID 0000.0001) %MON forcing_fv_mean              =   2.8803575798275E-03
(PID.TID 0000.0001) %MON forcing_fv_sd                =   2.2193297771215E-02
(PID.TID 0000.0001) %MON forcing_fv_del2              =   2.1170835219132E-04
(PID.TID 0000.0001) %MON trAdv_CFL_u_max              =   3.0091743798458E-02
(PID.TID 0000.0001) %MON trAdv_CFL_v_max              =   5.2489422001188E-02
(PID.TID 0000.0001) %MON trAdv_CFL_w_max              =   1.7455194060537E-01
(PID.TID 0000.0001) %MON advcfl_uvel_max              =   4.1713013137257E-02
(PID.TID 0000.0001) %MON advcfl_vvel_max              =   5.6704534211741E-02
(PID.TID 0000.0001) %MON advcfl_wvel_max              =   2.0416640217243E-01
(PID.TID 0000.0001) %MON advcfl_W_hf_max              =   2.1917863762628E-01
(PID.TID 0000.0001) %MON pe_b_mean                    =   3.4907399092003E-04
(PID.TID 0000.0001) %MON ke_max                       =   9.3494454112708E-02
(PID.TID 0000.0001) %MON ke_mean                      =   1.3124855113765E-04
(PID.TID 0000.0001) %MON ke_vol                       =   1.4101703507225E+18
(PID.TID 0000.0001) %MON vort_r_min                   =  -1.3091950453908E-06
(PID.TID 0000.0001) %MON vort_r_max                   =   1.3212741537932E-06
(PID.TID 0000.0001) %MON vort_a_mean                  =  -1.9976608796704E-05
(PID.TID 0000.0001) %MON vort_a_sd                    =   7.3718672961905E-05
(PID.TID 0000.0001) %MON vort_p_mean                  =  -2.3730263022063E-05
(PID.TID 0000.0001) %MON vort_p_sd                    =   1.0369753857199E-04
(PID.TID 0000.0001) %MON surfExpan_theta_mean         =  -4.0508511782742E-06
(PID.TID 0000.0001) %MON surfExpan_salt_mean          =  -3.7757387779288E-07
(PID.TID 0000.0001) // =======================================================
(PID.TID 0000.0001) // End MONITOR dynamic field statistics
(PID.TID 0000.0001) // =======================================================
 SH   5.2586995871249655        23.305928747577809     
 NH   10.394075511948188        25.560599855912074     
 SH   5.2586995871249655        23.305928747577809     
 NH   10.394075511948188        25.560599855912074     
 SH   5.2586995871249655        23.305928747577809     
 NH   10.394075511948188        25.560599855912074     
 SH   5.2586995871249655        23.305928747577809     
 NH   10.394075511948188        25.560599855912074     
 cg2d: Sum(rhs),rhsMax =   5.79536418854332E-13  6.73068188232495E+00
 SH   5.2641184274083912        23.308293909893109     
 NH   10.387186104211764        25.562659908622095     
 SH   5.2641184274083912        23.308293909893109     
 NH   10.387186104211764        25.562659908622095     
 SH   5.2641184274083912        23.308293909893109     
 NH   10.387186104211764        25.562659908622095     
 SH   5.2641184274083912        23.308293909893109     
 NH   10.387186104211764        25.562659908622095     
 cg2d: Sum(rhs),rhsMax =   3.23296944770846E-13  6.29818143407533E+00
(PID.TID 0000.0001)      cg2d_init_res =   2.56933414250367E-01
(PID.TID 0000.0001)      cg2d_iters(min,last) =      -1      92
(PID.TID 0000.0001)      cg2d_last_res =   7.08006239657904E-14
(PID.TID 0000.0001) // =======================================================
(PID.TID 0000.0001) // Begin MONITOR dynamic field statistics
(PID.TID 0000.0001) // =======================================================
(PID.TID 0000.0001) %MON time_tsnumber                =                    12
(PID.TID 0000.0001) %MON time_secondsf                =   5.1840000000000E+05
(PID.TID 0000.0001) %MON dynstat_eta_max              =   1.9915537203578E+00
(PID.TID 0000.0001) %MON dynstat_eta_min              =  -1.4426491926158E+00
(PID.TID 0000.0001) %MON dynstat_eta_mean             =  -2.8556516601514E-15
(PID.TID 0000.0001) %MON dynstat_eta_sd               =   5.2718510646545E-01
(PID.TID 0000.0001) %MON dynstat_eta_del2             =   2.1370979858938E-03
(PID.TID 0000.0001) %MON dynstat_uvel_max             =   3.0177628815506E-01
(PID.TID 0000.0001) %MON dynstat_uvel_min             =  -4.8310544578697E-01
(PID.TID 0000.0001) %MON dynstat_uvel_mean            =   3.6521547261887E-05
(PID.TID 0000.0001) %MON dynstat_uvel_sd              =   1.2425047401461E-02
(PID.TID 0000.0001) %MON dynstat_uvel_del2            =   1.2345594144062E-04
(PID.TID 0000.0001) %MON dynstat_vvel_max             =   4.6013051709231E-01
(PID.TID 0000.0001) %MON dynstat_vvel_min             =  -6.7019877338496E-01
(PID.TID 0000.0001) %MON dynstat_vvel_mean            =  -4.5143558877903E-04
(PID.TID 0000.0001) %MON dynstat_vvel_sd              =   1.4840313080787E-02
(PID.TID 0000.0001) %MON dynstat_vvel_del2            =   1.2165664259729E-04
(PID.TID 0000.0001) %MON dynstat_wvel_max             =   2.1246438854818E-03
(PID.TID 0000.0001) %MON dynstat_wvel_min             =  -1.3270557154428E-03
(PID.TID 0000.0001) %MON dynstat_wvel_mean            =   5.2276064014428E-22
(PID.TID 0000.0001) %MON dynstat_wvel_sd              =   6.2725288006543E-05
(PID.TID 0000.0001) %MON dynstat_wvel_del2            =   7.8898685064927E-07
(PID.TID 0000.0001) %MON dynstat_theta_max            =   2.9128946581006E+01
(PID.TID 0000.0001) %MON dynstat_theta_min            =  -1.8569541827143E+00
(PID.TID 0000.0001) %MON dynstat_theta_mean           =   3.4376181218350E+00
(PID.TID 0000.0001) %MON dynstat_theta_sd             =   4.1094357028550E+00
(PID.TID 0000.0001) %MON dynstat_theta_del2           =   4.9714821422421E-03
(PID.TID 0000.0001) %MON dynstat_salt_max             =   3.7444530579598E+01
(PID.TID 0000.0001) %MON dynstat_salt_min             =   3.1041965198525E+01
(PID.TID 0000.0001) %MON dynstat_salt_mean            =   3.4715016713278E+01
(PID.TID 0000.0001) %MON dynstat_salt_sd              =   2.7632190980761E-01
(PID.TID 0000.0001) %MON dynstat_salt_del2            =   8.5045164558234E-04
(PID.TID 0000.0001) %MON forcing_qnet_max             =   1.2313015709187E+02
(PID.TID 0000.0001) %MON forcing_qnet_min             =  -3.5232797547520E+01
(PID.TID 0000.0001) %MON forcing_qnet_mean            =  -7.6172356791651E-01
(PID.TID 0000.0001) %MON forcing_qnet_sd              =   2.1807113289960E+01
(PID.TID 0000.0001) %MON forcing_qnet_del2            =   1.1005188087071E-01
(PID.TID 0000.0001) %MON forcing_qsw_max              =   0.0000000000000E+00
(PID.TID 0000.0001) %MON forcing_qsw_min              =   0.0000000000000E+00
(PID.TID 0000.0001) %MON forcing_qsw_mean             =   0.0000000000000E+00
(PID.TID 0000.0001) %MON forcing_qsw_sd               =   0.0000000000000E+00
(PID.TID 0000.0001) %MON forcing_qsw_del2             =   0.0000000000000E+00
(PID.TID 0000.0001) %MON forcing_empmr_max            =   3.7600374110707E-05
(PID.TID 0000.0001) %MON forcing_empmr_min            =  -2.9685016686068E-05
(PID.TID 0000.0001) %MON forcing_empmr_mean           =   1.4208375872388E-06
(PID.TID 0000.0001) %MON forcing_empmr_sd             =   1.1923373923198E-05
(PID.TID 0000.0001) %MON forcing_empmr_del2           =   7.4400852469101E-08
(PID.TID 0000.0001) %MON forcing_fu_max               =   1.6004334390163E-01
(PID.TID 0000.0001) %MON forcing_fu_min               =  -1.0329221189022E-01
(PID.TID 0000.0001) %MON forcing_fu_mean              =   4.1280488583042E-03
(PID.TID 0000.0001) %MON forcing_fu_sd                =   5.5800359441598E-02
(PID.TID 0000.0001) %MON forcing_fu_del2              =   3.2370368543277E-04
(PID.TID 0000.0001) %MON forcing_fv_max               =   8.4633164107800E-02
(PID.TID 0000.0001) %MON forcing_fv_min               =  -7.0490099489689E-02
(PID.TID 0000.0001) %MON forcing_fv_mean              =   2.8803575798275E-03
(PID.TID 0000.0001) %MON forcing_fv_sd                =   2.2193297771215E-02
(PID.TID 0000.0001) %MON forcing_fv_del2              =   2.1170835219132E-04
(PID.TID 0000.0001) %MON trAdv_CFL_u_max              =   3.5883182379742E-02
(PID.TID 0000.0001) %MON trAdv_CFL_v_max              =   6.1567752825274E-02
(PID.TID 0000.0001) %MON trAdv_CFL_w_max              =   2.0680527383473E-01
(PID.TID 0000.0001) %MON advcfl_uvel_max              =   4.7653788137579E-02
(PID.TID 0000.0001) %MON advcfl_vvel_max              =   6.5104436486322E-02
(PID.TID 0000.0001) %MON advcfl_wvel_max              =   2.3679419404959E-01
(PID.TID 0000.0001) %MON advcfl_W_hf_max              =   2.5420553184736E-01
(PID.TID 0000.0001) %MON pe_b_mean                    =   3.2244337022317E-04
(PID.TID 0000.0001) %MON ke_max                       =   1.2369112810221E-01
(PID.TID 0000.0001) %MON ke_mean                      =   1.7156430878693E-04
(PID.TID 0000.0001) %MON ke_vol                       =   1.4101703507225E+18
(PID.TID 0000.0001) %MON vort_r_min                   =  -1.4836032526676E-06
(PID.TID 0000.0001) %MON vort_r_max                   =   1.5370271049700E-06
(PID.TID 0000.0001) %MON vort_a_mean                  =  -1.9976608796704E-05
(PID.TID 0000.0001) %MON vort_a_sd                    =   7.3718735651459E-05
(PID.TID 0000.0001) %MON vort_p_mean                  =  -2.3730263022063E-05
(PID.TID 0000.0001) %MON vort_p_sd                    =   1.0369756379725E-04
(PID.TID 0000.0001) %MON surfExpan_theta_mean         =  -2.0136616478656E-06
(PID.TID 0000.0001) %MON surfExpan_salt_mean          =  -1.1138074394018E-07
(PID.TID 0000.0001) // =======================================================
(PID.TID 0000.0001) // End MONITOR dynamic field statistics
(PID.TID 0000.0001) // =======================================================
 SH   5.2693193189402336        23.310354082637446     
 NH   10.381017188552335        25.564349821711858     
 SH   5.2693193189402336        23.310354082637446     
 NH   10.381017188552335        25.564349821711858     
 SH   5.2693193189402336        23.310354082637446     
 NH   10.381017188552335        25.564349821711858     
 SH   5.2693193189402336        23.310354082637446     
 NH   10.381017188552335        25.564349821711858     
 cg2d: Sum(rhs),rhsMax =   2.98427949019242E-13  5.83429776107427E+00
 SH   5.2741697973401642        23.312192001417259     
 NH   10.375210599910019        25.565563411061703     
 SH   5.2741697973401642        23.312192001417259     
 NH   10.375210599910019        25.565563411061703     
 SH   5.2741697973401642        23.312192001417259     
 NH   10.375210599910019        25.565563411061703     
 SH   5.2741697973401642        23.312192001417259     
 NH   10.375210599910019        25.565563411061703     
 cg2d: Sum(rhs),rhsMax =   2.68562949656825E-13  5.34109689590950E+00
(PID.TID 0000.0001)      cg2d_init_res =   3.10911653092360E-01
(PID.TID 0000.0001)      cg2d_iters(min,last) =      -1      92
(PID.TID 0000.0001)      cg2d_last_res =   6.79818590838226E-14
(PID.TID 0000.0001) // =======================================================
(PID.TID 0000.0001) // Begin MONITOR dynamic field statistics
(PID.TID 0000.0001) // =======================================================
(PID.TID 0000.0001) %MON time_tsnumber                =                    14
(PID.TID 0000.0001) %MON time_secondsf                =   6.0480000000000E+05
(PID.TID 0000.0001) %MON dynstat_eta_max              =   1.8615692486200E+00
(PID.TID 0000.0001) %MON dynstat_eta_min              =  -1.3925401144583E+00
(PID.TID 0000.0001) %MON dynstat_eta_mean             =  -2.8387875755442E-15
(PID.TID 0000.0001) %MON dynstat_eta_sd               =   5.1372987409050E-01
(PID.TID 0000.0001) %MON dynstat_eta_del2             =   2.0367449912997E-03
(PID.TID 0000.0001) %MON dynstat_uvel_max             =   3.3193392471290E-01
(PID.TID 0000.0001) %MON dynstat_uvel_min             =  -5.3360532756072E-01
(PID.TID 0000.0001) %MON dynstat_uvel_mean            =   2.7272238176370E-04
(PID.TID 0000.0001) %MON dynstat_uvel_sd              =   1.4421702319970E-02
(PID.TID 0000.0001) %MON dynstat_uvel_del2            =   1.3435993746465E-04
(PID.TID 0000.0001) %MON dynstat_vvel_max             =   5.1723257045820E-01
(PID.TID 0000.0001) %MON dynstat_vvel_min             =  -7.4309692847326E-01
(PID.TID 0000.0001) %MON dynstat_vvel_mean            =  -5.3235187683955E-04
(PID.TID 0000.0001) %MON dynstat_vvel_sd              =   1.5821555898540E-02
(PID.TID 0000.0001) %MON dynstat_vvel_del2            =   1.2327199055033E-04
(PID.TID 0000.0001) %MON dynstat_wvel_max             =   2.3771714648219E-03
(PID.TID 0000.0001) %MON dynstat_wvel_min             =  -1.4690750016029E-03
(PID.TID 0000.0001) %MON dynstat_wvel_mean            =   7.9550532195868E-22
(PID.TID 0000.0001) %MON dynstat_wvel_sd              =   6.7800652157556E-05
(PID.TID 0000.0001) %MON dynstat_wvel_del2            =   8.3487505209223E-07
(PID.TID 0000.0001) %MON dynstat_theta_max            =   2.9098058981269E+01
(PID.TID 0000.0001) %MON dynstat_theta_min            =  -1.8575204105766E+00
(PID.TID 0000.0001) %MON dynstat_theta_mean           =   3.4376414305222E+00
(PID.TID 0000.0001) %MON dynstat_theta_sd             =   4.1094109715044E+00
(PID.TID 0000.0001) %MON dynstat_theta_del2           =   4.9467941248602E-03
(PID.TID 0000.0001) %MON dynstat_salt_max             =   3.7445672942142E+01
(PID.TID 0000.0001) %MON dynstat_salt_min             =   3.1042527523572E+01
(PID.TID 0000.0001) %MON dynstat_salt_mean            =   3.4715017659631E+01
(PID.TID 0000.0001) %MON dynstat_salt_sd              =   2.7633592121949E-01
(PID.TID 0000.0001) %MON dynstat_salt_del2            =   8.4940040741974E-04
(PID.TID 0000.0001) %MON forcing_qnet_max             =   1.2165532092723E+02
(PID.TID 0000.0001) %MON forcing_qnet_min             =  -3.5261270425814E+01
(PID.TID 0000.0001) %MON forcing_qnet_mean            =  -7.6355234683309E-01
(PID.TID 0000.0001) %MON forcing_qnet_sd              =   2.1663054326529E+01
(PID.TID 0000.0001) %MON forcing_qnet_del2            =   1.0970812878544E-01
(PID.TID 0000.0001) %MON forcing_qsw_max              =   0.0000000000000E+00
(PID.TID 0000.0001) %MON forcing_qsw_min              =   0.0000000000000E+00
(PID.TID 0000.0001) %MON forcing_qsw_mean             =   0.0000000000000E+00
(PID.TID 0000.0001) %MON forcing_qsw_sd               =   0.0000000000000E+00
(PID.TID 0000.0001) %MON forcing_qsw_del2             =   0.0000000000000E+00
(PID.TID 0000.0001) %MON forcing_empmr_max            =   3.7600374110707E-05
(PID.TID 0000.0001) %MON forcing_empmr_min            =  -2.9685016686068E-05
(PID.TID 0000.0001) %MON forcing_empmr_mean           =   1.4208375872388E-06
(PID.TID 0000.0001) %MON forcing_empmr_sd             =   1.1923373923198E-05
(PID.TID 0000.0001) %MON forcing_empmr_del2           =   7.4400852469101E-08
(PID.TID 0000.0001) %MON forcing_fu_max               =   1.6004334390163E-01
(PID.TID 0000.0001) %MON forcing_fu_min               =  -1.0329221189022E-01
(PID.TID 0000.0001) %MON forcing_fu_mean              =   4.1280488583042E-03
(PID.TID 0000.0001) %MON forcing_fu_sd                =   5.5800359441598E-02
(PID.TID 0000.0001) %MON forcing_fu_del2              =   3.2370368543277E-04
(PID.TID 0000.0001) %MON forcing_fv_max               =   8.4633164107800E-02
(PID.TID 0000.0001) %MON forcing_fv_min               =  -7.0490099489689E-02
(PID.TID 0000.0001) %MON forcing_fv_mean              =   2.8803575798275E-03
(PID.TID 0000.0001) %MON forcing_fv_sd                =   2.2193297771215E-02
(PID.TID 0000.0001) %MON forcing_fv_del2              =   2.1170835219132E-04
(PID.TID 0000.0001) %MON trAdv_CFL_u_max              =   4.1193147305392E-02
(PID.TID 0000.0001) %MON trAdv_CFL_v_max              =   6.9388835549141E-02
(PID.TID 0000.0001) %MON trAdv_CFL_w_max              =   2.3544684012978E-01
(PID.TID 0000.0001) %MON advcfl_uvel_max              =   5.2635124382089E-02
(PID.TID 0000.0001) %MON advcfl_vvel_max              =   7.2185907680227E-02
(PID.TID 0000.0001) %MON advcfl_wvel_max              =   2.6521821528106E-01
(PID.TID 0000.0001) %MON advcfl_W_hf_max              =   2.8471955463996E-01
(PID.TID 0000.0001) %MON pe_b_mean                    =   3.0619410796183E-04
(PID.TID 0000.0001) %MON ke_max                       =   1.5399602987495E-01
(PID.TID 0000.0001) %MON ke_mean                      =   2.1006818934514E-04
(PID.TID 0000.0001) %MON ke_vol                       =   1.4101703507225E+18
(PID.TID 0000.0001) %MON vort_r_min                   =  -1.6231676357853E-06
(PID.TID 0000.0001) %MON vort_r_max                   =   1.7321849254626E-06
(PID.TID 0000.0001) %MON vort_a_mean                  =  -1.9976608796704E-05
(PID.TID 0000.0001) %MON vort_a_sd                    =   7.3718783937529E-05
(PID.TID 0000.0001) %MON vort_p_mean                  =  -2.3730263022063E-05
(PID.TID 0000.0001) %MON vort_p_sd                    =   1.0369754616393E-04
(PID.TID 0000.0001) %MON surfExpan_theta_mean         =  -4.9026544081385E-07
(PID.TID 0000.0001) %MON surfExpan_salt_mean          =   1.9976254120578E-09
(PID.TID 0000.0001) // =======================================================
(PID.TID 0000.0001) // End MONITOR dynamic field statistics
(PID.TID 0000.0001) // =======================================================
 SH   5.2785384096246162        23.313894785753973     
 NH   10.369372797473488        25.566322707492816     
 SH   5.2785384096246162        23.313894785753973     
 NH   10.369372797473488        25.566322707492816     
 SH   5.2785384096246162        23.313894785753973     
 NH   10.369372797473488        25.566322707492816     
 SH   5.2785384096246162        23.313894785753973     
 NH   10.369372797473488        25.566322707492816     
 cg2d: Sum(rhs),rhsMax =   3.14775983056848E-13  4.82974109115867E+00
 SH   5.2823017785090087        23.315542036205329     
 NH   10.363161182604188        25.566704399899947     
 SH   5.2823017785090087        23.315542036205329     
 NH   10.363161182604188        25.566704399899947     
 SH   5.2823017785090087        23.315542036205329     
 NH   10.363161182604188        25.566704399899947     
 SH   5.2823017785090087        23.315542036205329     
 NH   10.363161182604188        25.566704399899947     
 cg2d: Sum(rhs),rhsMax =   4.39315250844174E-13  4.29698968495844E+00
(PID.TID 0000.0001)      cg2d_init_res =   3.72609708931995E-01
(PID.TID 0000.0001)      cg2d_iters(min,last) =      -1      90
(PID.TID 0000.0001)      cg2d_last_res =   8.35483837430593E-14
(PID.TID 0000.0001) // =======================================================
(PID.TID 0000.0001) // Begin MONITOR dynamic field statistics
(PID.TID 0000.0001) // =======================================================
(PID.TID 0000.0001) %MON time_tsnumber                =                    16
(PID.TID 0000.0001) %MON time_secondsf                =   6.9120000000000E+05
(PID.TID 0000.0001) %MON dynstat_eta_max              =   1.9918333703199E+00
(PID.TID 0000.0001) %MON dynstat_eta_min              =  -1.3718687856189E+00
(PID.TID 0000.0001) %MON dynstat_eta_mean             =  -2.8719301862653E-15
(PID.TID 0000.0001) %MON dynstat_eta_sd               =   5.1036802121317E-01
(PID.TID 0000.0001) %MON dynstat_eta_del2             =   1.9681316345605E-03
(PID.TID 0000.0001) %MON dynstat_uvel_max             =   3.5526329447179E-01
(PID.TID 0000.0001) %MON dynstat_uvel_min             =  -5.7354988885421E-01
(PID.TID 0000.0001) %MON dynstat_uvel_mean            =   4.2932274929904E-04
(PID.TID 0000.0001) %MON dynstat_uvel_sd              =   1.6217372464259E-02
(PID.TID 0000.0001) %MON dynstat_uvel_del2            =   1.4306188327840E-04
(PID.TID 0000.0001) %MON dynstat_vvel_max             =   5.6664333202033E-01
(PID.TID 0000.0001) %MON dynstat_vvel_min             =  -8.0108213700292E-01
(PID.TID 0000.0001) %MON dynstat_vvel_mean            =  -4.2024277989726E-04
(PID.TID 0000.0001) %MON dynstat_vvel_sd              =   1.6437403537901E-02
(PID.TID 0000.0001) %MON dynstat_vvel_del2            =   1.2108064851364E-04
(PID.TID 0000.0001) %MON dynstat_wvel_max             =   2.5851836004230E-03
(PID.TID 0000.0001) %MON dynstat_wvel_min             =  -1.5726627794093E-03
(PID.TID 0000.0001) %MON dynstat_wvel_mean            =  -8.9778457763908E-22
(PID.TID 0000.0001) %MON dynstat_wvel_sd              =   7.1399934123986E-05
(PID.TID 0000.0001) %MON dynstat_wvel_del2            =   8.5861411788581E-07
(PID.TID 0000.0001) %MON dynstat_theta_max            =   2.9068839770646E+01
(PID.TID 0000.0001) %MON dynstat_theta_min            =  -1.8579650630320E+00
(PID.TID 0000.0001) %MON dynstat_theta_mean           =   3.4376465098597E+00
(PID.TID 0000.0001) %MON dynstat_theta_sd             =   4.1093418030113E+00
(PID.TID 0000.0001) %MON dynstat_theta_del2           =   4.9285081050419E-03
(PID.TID 0000.0001) %MON dynstat_salt_max             =   3.7446782998852E+01
(PID.TID 0000.0001) %MON dynstat_salt_min             =   3.1043171500963E+01
(PID.TID 0000.0001) %MON dynstat_salt_mean            =   3.4715018143008E+01
(PID.TID 0000.0001) %MON dynstat_salt_sd              =   2.7634482680821E-01
(PID.TID 0000.0001) %MON dynstat_salt_del2            =   8.4871770362439E-04
(PID.TID 0000.0001) %MON forcing_qnet_max             =   1.2033967149204E+02
(PID.TID 0000.0001) %MON forcing_qnet_min             =  -3.5281772538644E+01
(PID.TID 0000.0001) %MON forcing_qnet_mean            =  -7.6814718197732E-01
(PID.TID 0000.0001) %MON forcing_qnet_sd              =   2.1534071242649E+01
(PID.TID 0000.0001) %MON forcing_qnet_del2            =   1.0938109247134E-01
(PID.TID 0000.0001) %MON forcing_qsw_max              =   0.0000000000000E+00
(PID.TID 0000.0001) %MON forcing_qsw_min              =   0.0000000000000E+00
(PID.TID 0000.0001) %MON forcing_qsw_mean             =   0.0000000000000E+00
(PID.TID 0000.0001) %MON forcing_qsw_sd               =   0.0000000000000E+00
(PID.TID 0000.0001) %MON forcing_qsw_del2             =   0.0000000000000E+00
(PID.TID 0000.0001) %MON forcing_empmr_max            =   3.7600374110707E-05
(PID.TID 0000.0001) %MON forcing_empmr_min            =  -2.9685016686068E-05
(PID.TID 0000.0001) %MON forcing_empmr_mean           =   1.4208375872388E-06
(PID.TID 0000.0001) %MON forcing_empmr_sd             =   1.1923373923198E-05
(PID.TID 0000.0001) %MON forcing_empmr_del2           =   7.4400852469101E-08
(PID.TID 0000.0001) %MON forcing_fu_max               =   1.6004334390163E-01
(PID.TID 0000.0001) %MON forcing_fu_min               =  -1.0329221189022E-01
(PID.TID 0000.0001) %MON forcing_fu_mean              =   4.1280488583042E-03
(PID.TID 0000.0001) %MON forcing_fu_sd                =   5.5800359441598E-02
(PID.TID 0000.0001) %MON forcing_fu_del2              =   3.2370368543277E-04
(PID.TID 0000.0001) %MON forcing_fv_max               =   8.4633164107800E-02
(PID.TID 0000.0001) %MON forcing_fv_min               =  -7.0490099489689E-02
(PID.TID 0000.0001) %MON forcing_fv_mean              =   2.8803575798275E-03
(PID.TID 0000.0001) %MON forcing_fv_sd                =   2.2193297771215E-02
(PID.TID 0000.0001) %MON forcing_fv_del2              =   2.1170835219132E-04
(PID.TID 0000.0001) %MON trAdv_CFL_u_max              =   4.5953981081381E-02
(PID.TID 0000.0001) %MON trAdv_CFL_v_max              =   7.5815615611179E-02
(PID.TID 0000.0001) %MON trAdv_CFL_w_max              =   2.5983327956320E-01
(PID.TID 0000.0001) %MON advcfl_uvel_max              =   5.6575277981533E-02
(PID.TID 0000.0001) %MON advcfl_vvel_max              =   7.7818705703415E-02
(PID.TID 0000.0001) %MON advcfl_wvel_max              =   2.8871236705309E-01
(PID.TID 0000.0001) %MON advcfl_W_hf_max              =   3.0994121757170E-01
(PID.TID 0000.0001) %MON pe_b_mean                    =   3.0219974648836E-04
(PID.TID 0000.0001) %MON ke_max                       =   1.8192542901126E-01
(PID.TID 0000.0001) %MON ke_mean                      =   2.4450697035071E-04
(PID.TID 0000.0001) %MON ke_vol                       =   1.4101703507225E+18
(PID.TID 0000.0001) %MON vort_r_min                   =  -1.7269609591941E-06
(PID.TID 0000.0001) %MON vort_r_max                   =   1.9024907763817E-06
(PID.TID 0000.0001) %MON vort_a_mean                  =  -1.9976608796704E-05
(PID.TID 0000.0001) %MON vort_a_sd                    =   7.3718811024112E-05
(PID.TID 0000.0001) %MON vort_p_mean                  =  -2.3730263022063E-05
(PID.TID 0000.0001) %MON vort_p_sd                    =   1.0369747477715E-04
(PID.TID 0000.0001) %MON surfExpan_theta_mean         =  -8.6281967729385E-08
(PID.TID 0000.0001) %MON surfExpan_salt_mean          =  -3.0339171276423E-08
(PID.TID 0000.0001) // =======================================================
(PID.TID 0000.0001) // End MONITOR dynamic field statistics
(PID.TID 0000.0001) // =======================================================
 SH   5.2853498032580433        23.317197499595977     
 NH   10.356332145529791        25.566786233455730     
 SH   5.2853498032580433        23.317197499595977     
 NH   10.356332145529791        25.566786233455730     
 SH   5.2853498032580433        23.317197499595977     
 NH   10.356332145529791        25.566786233455730     
 SH   5.2853498032580433        23.317197499595977     
 NH   10.356332145529791        25.566786233455730     
 cg2d: Sum(rhs),rhsMax =   4.05897537802957E-13  4.05871006441368E+00
 SH   5.2875889908265208        23.318903019773472     
 NH   10.348752588362231        25.566623168522369     
 SH   5.2875889908265208        23.318903019773472     
 NH   10.348752588362231        25.566623168522369     
 SH   5.2875889908265208        23.318903019773472     
 NH   10.348752588362231        25.566623168522369     
 SH   5.2875889908265208        23.318903019773472     
 NH   10.348752588362231        25.566623168522369     
 cg2d: Sum(rhs),rhsMax =   3.39950290140223E-13  4.66966123963030E+00
(PID.TID 0000.0001)      cg2d_init_res =   3.18055976880693E-01
(PID.TID 0000.0001)      cg2d_iters(min,last) =      -1      91
(PID.TID 0000.0001)      cg2d_last_res =   6.46992849337047E-14
(PID.TID 0000.0001) // =======================================================
(PID.TID 0000.0001) // Begin MONITOR dynamic field statistics
(PID.TID 0000.0001) // =======================================================
(PID.TID 0000.0001) %MON time_tsnumber                =                    18
(PID.TID 0000.0001) %MON time_secondsf                =   7.7760000000000E+05
(PID.TID 0000.0001) %MON dynstat_eta_max              =   1.8562546899735E+00
(PID.TID 0000.0001) %MON dynstat_eta_min              =  -1.3525097521354E+00
(PID.TID 0000.0001) %MON dynstat_eta_mean             =  -2.8687681704014E-15
(PID.TID 0000.0001) %MON dynstat_eta_sd               =   5.1457186563337E-01
(PID.TID 0000.0001) %MON dynstat_eta_del2             =   1.9404386276641E-03
(PID.TID 0000.0001) %MON dynstat_uvel_max             =   3.7208811441576E-01
(PID.TID 0000.0001) %MON dynstat_uvel_min             =  -6.0257422599568E-01
(PID.TID 0000.0001) %MON dynstat_uvel_mean            =   5.0205909216451E-04
(PID.TID 0000.0001) %MON dynstat_uvel_sd              =   1.7729911773611E-02
(PID.TID 0000.0001) %MON dynstat_uvel_del2            =   1.4959597748637E-04
(PID.TID 0000.0001) %MON dynstat_vvel_max             =   6.0766516452996E-01
(PID.TID 0000.0001) %MON dynstat_vvel_min             =  -8.4267689081162E-01
(PID.TID 0000.0001) %MON dynstat_vvel_mean            =  -2.2615247403699E-04
(PID.TID 0000.0001) %MON dynstat_vvel_sd              =   1.6771224800036E-02
(PID.TID 0000.0001) %MON dynstat_vvel_del2            =   1.1671927528021E-04
(PID.TID 0000.0001) %MON dynstat_wvel_max             =   2.7412643315516E-03
(PID.TID 0000.0001) %MON dynstat_wvel_min             =  -1.6313861111389E-03
(PID.TID 0000.0001) %MON dynstat_wvel_mean            =  -1.3353125047164E-22
(PID.TID 0000.0001) %MON dynstat_wvel_sd              =   7.3616583955249E-05
(PID.TID 0000.0001) %MON dynstat_wvel_del2            =   8.6237665454379E-07
(PID.TID 0000.0001) %MON dynstat_theta_max            =   2.9041191518956E+01
(PID.TID 0000.0001) %MON dynstat_theta_min            =  -1.9239604287381E+00
(PID.TID 0000.0001) %MON dynstat_theta_mean           =   3.4376513482463E+00
(PID.TID 0000.0001) %MON dynstat_theta_sd             =   4.1092847336876E+00
(PID.TID 0000.0001) %MON dynstat_theta_del2           =   4.9127490509766E-03
(PID.TID 0000.0001) %MON dynstat_salt_max             =   3.7447847098879E+01
(PID.TID 0000.0001) %MON dynstat_salt_min             =   3.1044442353080E+01
(PID.TID 0000.0001) %MON dynstat_salt_mean            =   3.4715020174137E+01
(PID.TID 0000.0001) %MON dynstat_salt_sd              =   2.7634764728640E-01
(PID.TID 0000.0001) %MON dynstat_salt_del2            =   8.4830270187805E-04
(PID.TID 0000.0001) %MON forcing_qnet_max             =   1.1890290962694E+02
(PID.TID 0000.0001) %MON forcing_qnet_min             =  -3.5279914248920E+01
(PID.TID 0000.0001) %MON forcing_qnet_mean            =  -7.7594948788850E-01
(PID.TID 0000.0001) %MON forcing_qnet_sd              =   2.1386274510837E+01
(PID.TID 0000.0001) %MON forcing_qnet_del2            =   1.0895655912444E-01
(PID.TID 0000.0001) %MON forcing_qsw_max              =   0.0000000000000E+00
(PID.TID 0000.0001) %MON forcing_qsw_min              =   0.0000000000000E+00
(PID.TID 0000.0001) %MON forcing_qsw_mean             =   0.0000000000000E+00
(PID.TID 0000.0001) %MON forcing_qsw_sd               =   0.0000000000000E+00
(PID.TID 0000.0001) %MON forcing_qsw_del2             =   0.0000000000000E+00
(PID.TID 0000.0001) %MON forcing_empmr_max            =   3.7600374110707E-05
(PID.TID 0000.0001) %MON forcing_empmr_min            =  -2.9685016686068E-05
(PID.TID 0000.0001) %MON forcing_empmr_mean           =   1.4208375872388E-06
(PID.TID 0000.0001) %MON forcing_empmr_sd             =   1.1923373923198E-05
(PID.TID 0000.0001) %MON forcing_empmr_del2           =   7.4400852469101E-08
(PID.TID 0000.0001) %MON forcing_fu_max               =   1.6004334390163E-01
(PID.TID 0000.0001) %MON forcing_fu_min               =  -1.0329221189022E-01
(PID.TID 0000.0001) %MON forcing_fu_mean              =   4.1280488583042E-03
(PID.TID 0000.0001) %MON forcing_fu_sd                =   5.5800359441598E-02
(PID.TID 0000.0001) %MON forcing_fu_del2              =   3.2370368543277E-04
(PID.TID 0000.0001) %MON forcing_fv_max               =   8.4633164107800E-02
(PID.TID 0000.0001) %MON forcing_fv_min               =  -7.0490099489689E-02
(PID.TID 0000.0001) %MON forcing_fv_mean              =   2.8803575798275E-03
(PID.TID 0000.0001) %MON forcing_fv_sd                =   2.2193297771215E-02
(PID.TID 0000.0001) %MON forcing_fv_del2              =   2.1170835219132E-04
(PID.TID 0000.0001) %MON trAdv_CFL_u_max              =   5.0003436505577E-02
(PID.TID 0000.0001) %MON trAdv_CFL_v_max              =   8.0708382874620E-02
(PID.TID 0000.0001) %MON trAdv_CFL_w_max              =   2.7915381948715E-01
(PID.TID 0000.0001) %MON advcfl_uvel_max              =   5.9438254636081E-02
(PID.TID 0000.0001) %MON advcfl_vvel_max              =   8.1859302486106E-02
(PID.TID 0000.0001) %MON advcfl_wvel_max              =   3.0631390039133E-01
(PID.TID 0000.0001) %MON advcfl_W_hf_max              =   3.2883698130246E-01
(PID.TID 0000.0001) %MON pe_b_mean                    =   3.0719862078883E-04
(PID.TID 0000.0001) %MON ke_max                       =   2.0570120424330E-01
(PID.TID 0000.0001) %MON ke_mean                      =   2.7322792879330E-04
(PID.TID 0000.0001) %MON ke_vol                       =   1.4101703507225E+18
(PID.TID 0000.0001) %MON vort_r_min                   =  -1.7937490131228E-06
(PID.TID 0000.0001) %MON vort_r_max                   =   2.0445510960643E-06
(PID.TID 0000.0001) %MON vort_a_mean                  =  -1.9976608796704E-05
(PID.TID 0000.0001) %MON vort_a_sd                    =   7.3718816834586E-05
(PID.TID 0000.0001) %MON vort_p_mean                  =  -2.3730263022063E-05
(PID.TID 0000.0001) %MON vort_p_sd                    =   1.0369735953734E-04
(PID.TID 0000.0001) %MON surfExpan_theta_mean         =  -5.3382022423450E-08
(PID.TID 0000.0001) %MON surfExpan_salt_mean          =  -1.0166534118023E-07
(PID.TID 0000.0001) // =======================================================
(PID.TID 0000.0001) // End MONITOR dynamic field statistics
(PID.TID 0000.0001) // =======================================================
 SH   5.2889441428935697        23.320676513655542     
 NH   10.340383266703554        25.566250030427909     
 SH   5.2889441428935697        23.320676513655542     
 NH   10.340383266703554        25.566250030427909     
 SH   5.2889441428935697        23.320676513655542     
 NH   10.340383266703554        25.566250030427909     
 SH   5.2889441428935697        23.320676513655542     
 NH   10.340383266703554        25.566250030427909     
 cg2d: Sum(rhs),rhsMax =   3.19522186487120E-13  5.21311960442291E+00
 SH   5.2893588071834188        23.322514947028196     
 NH   10.331249551267319        25.565687592377344     
 SH   5.2893588071834188        23.322514947028196     
 NH   10.331249551267319        25.565687592377344     
 SH   5.2893588071834188        23.322514947028196     
 NH   10.331249551267319        25.565687592377344     
 SH   5.2893588071834188        23.322514947028196     
 NH   10.331249551267319        25.565687592377344     
 cg2d: Sum(rhs),rhsMax =   3.09752223870419E-13  5.68011097647498E+00
(PID.TID 0000.0001)      cg2d_init_res =   2.34404754535256E-01
(PID.TID 0000.0001)      cg2d_iters(min,last) =      -1      90
(PID.TID 0000.0001)      cg2d_last_res =   7.23088557690103E-14
(PID.TID 0000.0001) // =======================================================
(PID.TID 0000.0001) // Begin MONITOR dynamic field statistics
(PID.TID 0000.0001) // =======================================================
(PID.TID 0000.0001) %MON time_tsnumber                =                    20
(PID.TID 0000.0001) %MON time_secondsf                =   8.6400000000000E+05
(PID.TID 0000.0001) %MON dynstat_eta_max              =   1.4919956143691E+00
(PID.TID 0000.0001) %MON dynstat_eta_min              =  -1.3525226518286E+00
(PID.TID 0000.0001) %MON dynstat_eta_mean             =  -2.0480493861847E-15
(PID.TID 0000.0001) %MON dynstat_eta_sd               =   5.2431463910724E-01
(PID.TID 0000.0001) %MON dynstat_eta_del2             =   1.9363570626827E-03
(PID.TID 0000.0001) %MON dynstat_uvel_max             =   3.8677669089224E-01
(PID.TID 0000.0001) %MON dynstat_uvel_min             =  -6.2081705379137E-01
(PID.TID 0000.0001) %MON dynstat_uvel_mean            =   5.0662556231180E-04
(PID.TID 0000.0001) %MON dynstat_uvel_sd              =   1.8899577645222E-02
(PID.TID 0000.0001) %MON dynstat_uvel_del2            =   1.5399092730682E-04
(PID.TID 0000.0001) %MON dynstat_vvel_max             =   6.3997487421892E-01
(PID.TID 0000.0001) %MON dynstat_vvel_min             =  -8.6700804386198E-01
(PID.TID 0000.0001) %MON dynstat_vvel_mean            =  -3.8920364494635E-05
(PID.TID 0000.0001) %MON dynstat_vvel_sd              =   1.6920605705060E-02
(PID.TID 0000.0001) %MON dynstat_vvel_del2            =   1.1209456041298E-04
(PID.TID 0000.0001) %MON dynstat_wvel_max             =   2.8428847059060E-03
(PID.TID 0000.0001) %MON dynstat_wvel_min             =  -1.6412134491548E-03
(PID.TID 0000.0001) %MON dynstat_wvel_mean            =   7.9550532195868E-23
(PID.TID 0000.0001) %MON dynstat_wvel_sd              =   7.4585246588765E-05
(PID.TID 0000.0001) %MON dynstat_wvel_del2            =   8.4891683155566E-07
(PID.TID 0000.0001) %MON dynstat_theta_max            =   2.9014365737001E+01
(PID.TID 0000.0001) %MON dynstat_theta_min            =  -1.9851332983092E+00
(PID.TID 0000.0001) %MON dynstat_theta_mean           =   3.4376547344834E+00
(PID.TID 0000.0001) %MON dynstat_theta_sd             =   4.1092277449379E+00
(PID.TID 0000.0001) %MON dynstat_theta_del2           =   4.8996349165601E-03
(PID.TID 0000.0001) %MON dynstat_salt_max             =   3.7448868433280E+01
(PID.TID 0000.0001) %MON dynstat_salt_min             =   3.1046202792626E+01
(PID.TID 0000.0001) %MON dynstat_salt_mean            =   3.4715023418572E+01
(PID.TID 0000.0001) %MON dynstat_salt_sd              =   2.7634725135435E-01
(PID.TID 0000.0001) %MON dynstat_salt_del2            =   8.4802519459550E-04
(PID.TID 0000.0001) %MON forcing_qnet_max             =   1.1723539542836E+02
(PID.TID 0000.0001) %MON forcing_qnet_min             =  -3.5247368558079E+01
(PID.TID 0000.0001) %MON forcing_qnet_mean            =  -7.8674178456776E-01
(PID.TID 0000.0001) %MON forcing_qnet_sd              =   2.1205667675130E+01
(PID.TID 0000.0001) %MON forcing_qnet_del2            =   1.0838711977999E-01
(PID.TID 0000.0001) %MON forcing_qsw_max              =   0.0000000000000E+00
(PID.TID 0000.0001) %MON forcing_qsw_min              =   0.0000000000000E+00
(PID.TID 0000.0001) %MON forcing_qsw_mean             =   0.0000000000000E+00
(PID.TID 0000.0001) %MON forcing_qsw_sd               =   0.0000000000000E+00
(PID.TID 0000.0001) %MON forcing_qsw_del2             =   0.0000000000000E+00
(PID.TID 0000.0001) %MON forcing_empmr_max            =   3.7600374110707E-05
(PID.TID 0000.0001) %MON forcing_empmr_min            =  -2.9685016686068E-05
(PID.TID 0000.0001) %MON forcing_empmr_mean           =   1.4208375872388E-06
(PID.TID 0000.0001) %MON forcing_empmr_sd             =   1.1923373923198E-05
(PID.TID 0000.0001) %MON forcing_empmr_del2           =   7.4400852469101E-08
(PID.TID 0000.0001) %MON forcing_fu_max               =   1.6004334390163E-01
(PID.TID 0000.0001) %MON forcing_fu_min               =  -1.0329221189022E-01
(PID.TID 0000.0001) %MON forcing_fu_mean              =   4.1280488583042E-03
(PID.TID 0000.0001) %MON forcing_fu_sd                =   5.5800359441598E-02
(PID.TID 0000.0001) %MON forcing_fu_del2              =   3.2370368543277E-04
(PID.TID 0000.0001) %MON forcing_fv_max               =   8.4633164107800E-02
(PID.TID 0000.0001) %MON forcing_fv_min               =  -7.0490099489689E-02
(PID.TID 0000.0001) %MON forcing_fv_mean              =   2.8803575798275E-03
(PID.TID 0000.0001) %MON forcing_fv_sd                =   2.2193297771215E-02
(PID.TID 0000.0001) %MON forcing_fv_del2              =   2.1170835219132E-04
(PID.TID 0000.0001) %MON trAdv_CFL_u_max              =   5.3132845177009E-02
(PID.TID 0000.0001) %MON trAdv_CFL_v_max              =   8.3945176552176E-02
(PID.TID 0000.0001) %MON trAdv_CFL_w_max              =   2.9274698042307E-01
(PID.TID 0000.0001) %MON advcfl_uvel_max              =   6.1237737250876E-02
(PID.TID 0000.0001) %MON advcfl_vvel_max              =   8.4222878892558E-02
(PID.TID 0000.0001) %MON advcfl_wvel_max              =   3.1769751502719E-01
(PID.TID 0000.0001) %MON advcfl_W_hf_max              =   3.4105762642625E-01
(PID.TID 0000.0001) %MON pe_b_mean                    =   3.1894158930861E-04
(PID.TID 0000.0001) %MON ke_max                       =   2.2411877845691E-01
(PID.TID 0000.0001) %MON ke_mean                      =   2.9527537856996E-04
(PID.TID 0000.0001) %MON ke_vol                       =   1.4101703507225E+18
(PID.TID 0000.0001) %MON vort_r_min                   =  -1.8235242694508E-06
(PID.TID 0000.0001) %MON vort_r_max                   =   2.1574309662744E-06
(PID.TID 0000.0001) %MON vort_a_mean                  =  -1.9976608796704E-05
(PID.TID 0000.0001) %MON vort_a_sd                    =   7.3718806210062E-05
(PID.TID 0000.0001) %MON vort_p_mean                  =  -2.3730263022063E-05
(PID.TID 0000.0001) %MON vort_p_sd                    =   1.0369722556150E-04
(PID.TID 0000.0001) %MON surfExpan_theta_mean         =   1.9469528642986E-07
(PID.TID 0000.0001) %MON surfExpan_salt_mean          =  -1.3237067807521E-07
(PID.TID 0000.0001) // =======================================================
(PID.TID 0000.0001) // End MONITOR dynamic field statistics
(PID.TID 0000.0001) // =======================================================
(PID.TID 0000.0001) %CHECKPOINT        20 ckptA
(PID.TID 0000.0001)   early fc =  0.000000000000000D+00
 --> objf_test(bi,bj)        =  0.183284997065725D+06
 --> objf_atl(bi,bj)       =  0.000000000000000D+00
 --> objf_test(bi,bj)        =  0.201731660562800D+06
 --> objf_atl(bi,bj)       =  0.000000000000000D+00
 --> objf_test(bi,bj)        =  0.160077340957881D+06
 --> objf_atl(bi,bj)       =  0.000000000000000D+00
 --> objf_test(bi,bj)        =  0.236780858939403D+06
 --> objf_atl(bi,bj)       = -0.363146015736456D-01
(PID.TID 0000.0001)   local fc = -0.363146015736456D-01
(PID.TID 0000.0001)  global fc = -0.363146015736456D-01
(PID.TID 0000.0001) whio : write lev 2 rec   1
 SH   5.2213892178558012        23.296536408581801     
 NH   10.477982531836687        25.564398561832434     
 SH   5.2213892178558012        23.296536408581801     
 NH   10.477982531836687        25.564398561832434     
 SH   5.2213892178558012        23.296536408581801     
 NH   10.477982531836687        25.564398561832434     
 SH   5.2213892178558012        23.296536408581801     
 NH   10.477982531836687        25.564398561832434     
(PID.TID 0000.0001) SOLVE_FOR_PRESSURE: putPmEinXvector =    F
 cg2d: Sum(rhs),rhsMax =  -1.77635683940025E-15  7.56835956534411E+00
 SH   5.2201194813001734        23.297498110483730     
 NH   10.466538306882399        25.565240031177950     
 SH   5.2201194813001734        23.297498110483730     
 NH   10.466538306882399        25.565240031177950     
 SH   5.2201194813001734        23.297498110483730     
 NH   10.466538306882399        25.565240031177950     
 SH   5.2201194813001734        23.297498110483730     
 NH   10.466538306882399        25.565240031177950     
 cg2d: Sum(rhs),rhsMax =   1.52100554373646E-14  8.72165931292916E+00
 SH   5.2213217366822278        23.295110541783401     
 NH   10.461108876579829        25.564424809914442     
 SH   5.2213217366822278        23.295110541783401     
 NH   10.461108876579829        25.564424809914442     
 SH   5.2213217366822278        23.295110541783401     
 NH   10.461108876579829        25.564424809914442     
 SH   5.2213217366822278        23.295110541783401     
 NH   10.461108876579829        25.564424809914442     
 cg2d: Sum(rhs),rhsMax =   1.03805852802452E-13  8.58467838119716E+00
(PID.TID 0000.0001) whio : write lev 2 rec   2
 SH   5.2239548196113788        23.292351282764514     
 NH   10.454518373730536        25.562867117108681     
 SH   5.2239548196113788        23.292351282764514     
 NH   10.454518373730536        25.562867117108681     
 SH   5.2239548196113788        23.292351282764514     
 NH   10.454518373730536        25.562867117108681     
 SH   5.2239548196113788        23.292351282764514     
 NH   10.454518373730536        25.562867117108681     
 cg2d: Sum(rhs),rhsMax =   1.52058921010223E-13  8.57272615646466E+00
 SH   5.2277116867621203        23.291073068687240     
 NH   10.447008314152868        25.560610499763470     
 SH   5.2277116867621203        23.291073068687240     
 NH   10.447008314152868        25.560610499763470     
 SH   5.2277116867621203        23.291073068687240     
 NH   10.447008314152868        25.560610499763470     
 SH   5.2277116867621203        23.291073068687240     
 NH   10.447008314152868        25.560610499763470     
 cg2d: Sum(rhs),rhsMax =   8.75965966429249E-14  8.54161341749473E+00
 SH   5.2321875937556115        23.291719510717655     
 NH   10.438635636720335        25.558184972604181     
 SH   5.2321875937556115        23.291719510717655     
 NH   10.438635636720335        25.558184972604181     
 SH   5.2321875937556115        23.291719510717655     
 NH   10.438635636720335        25.558184972604181     
 SH   5.2321875937556115        23.291719510717655     
 NH   10.438635636720335        25.558184972604181     
 cg2d: Sum(rhs),rhsMax =   3.68149954965702E-13  8.39950932313246E+00
(PID.TID 0000.0001) whio : write lev 2 rec   3
 SH   5.2371050854720806        23.293890821341904     
 NH   10.429513952025786        25.556431314590327     
 SH   5.2371050854720806        23.293890821341904     
 NH   10.429513952025786        25.556431314590327     
 SH   5.2371050854720806        23.293890821341904     
 NH   10.429513952025786        25.556431314590327     
 SH   5.2371050854720806        23.293890821341904     
 NH   10.429513952025786        25.556431314590327     
 cg2d: Sum(rhs),rhsMax =   3.27737836869346E-13  8.14948256898594E+00
 SH   5.2423054480736937        23.296903213232156     
 NH   10.420007771941528        25.555926924928599     
 SH   5.2423054480736937        23.296903213232156     
 NH   10.420007771941528        25.555926924928599     
 SH   5.2423054480736937        23.296903213232156     
 NH   10.420007771941528        25.555926924928599     
 SH   5.2423054480736937        23.296903213232156     
 NH   10.420007771941528        25.555926924928599     
 cg2d: Sum(rhs),rhsMax =   3.99236199655206E-13  7.83154430788592E+00
 SH   5.2476929483124763        23.300138585340278     
 NH   10.410640674681588        25.556726797072145     
 SH   5.2476929483124763        23.300138585340278     
 NH   10.410640674681588        25.556726797072145     
 SH   5.2476929483124763        23.300138585340278     
 NH   10.410640674681588        25.556726797072145     
 SH   5.2476929483124763        23.300138585340278     
 NH   10.410640674681588        25.556726797072145     
 cg2d: Sum(rhs),rhsMax =   4.45865566689463E-13  7.51067684218438E+00
(PID.TID 0000.0001) whio : write lev 2 rec   4
 SH   5.2531878806361760        23.303203626487402     
 NH   10.401900613434748        25.558463681810963     
 SH   5.2531878806361760        23.303203626487402     
 NH   10.401900613434748        25.558463681810963     
 SH   5.2531878806361760        23.303203626487402     
 NH   10.401900613434748        25.558463681810963     
 SH   5.2531878806361760        23.303203626487402     
 NH   10.401900613434748        25.558463681810963     
 cg2d: Sum(rhs),rhsMax =   4.61408689034215E-13  7.13991401158280E+00
 SH   5.2586995871249655        23.305928747577809     
 NH   10.394075511948188        25.560599855912074     
 SH   5.2586995871249655        23.305928747577809     
 NH   10.394075511948188        25.560599855912074     
 SH   5.2586995871249655        23.305928747577809     
 NH   10.394075511948188        25.560599855912074     
 SH   5.2586995871249655        23.305928747577809     
 NH   10.394075511948188        25.560599855912074     
 cg2d: Sum(rhs),rhsMax =   5.79536418854332E-13  6.73068188232495E+00
 SH   5.2641184274083912        23.308293909893109     
 NH   10.387186104211764        25.562659908622095     
 SH   5.2641184274083912        23.308293909893109     
 NH   10.387186104211764        25.562659908622095     
 SH   5.2641184274083912        23.308293909893109     
 NH   10.387186104211764        25.562659908622095     
 SH   5.2641184274083912        23.308293909893109     
 NH   10.387186104211764        25.562659908622095     
 cg2d: Sum(rhs),rhsMax =   3.23296944770846E-13  6.29818143407533E+00
(PID.TID 0000.0001) whio : write lev 2 rec   5
 SH   5.2693193189402336        23.310354082637446     
 NH   10.381017188552335        25.564349821711858     
 SH   5.2693193189402336        23.310354082637446     
 NH   10.381017188552335        25.564349821711858     
 SH   5.2693193189402336        23.310354082637446     
 NH   10.381017188552335        25.564349821711858     
 SH   5.2693193189402336        23.310354082637446     
 NH   10.381017188552335        25.564349821711858     
 cg2d: Sum(rhs),rhsMax =   2.98427949019242E-13  5.83429776107427E+00
 SH   5.2741697973401642        23.312192001417259     
 NH   10.375210599910019        25.565563411061703     
 SH   5.2741697973401642        23.312192001417259     
 NH   10.375210599910019        25.565563411061703     
 SH   5.2741697973401642        23.312192001417259     
 NH   10.375210599910019        25.565563411061703     
 SH   5.2741697973401642        23.312192001417259     
 NH   10.375210599910019        25.565563411061703     
 cg2d: Sum(rhs),rhsMax =   2.68562949656825E-13  5.34109689590950E+00
 SH   5.2785384096246162        23.313894785753973     
 NH   10.369372797473488        25.566322707492816     
 SH   5.2785384096246162        23.313894785753973     
 NH   10.369372797473488        25.566322707492816     
 SH   5.2785384096246162        23.313894785753973     
 NH   10.369372797473488        25.566322707492816     
 SH   5.2785384096246162        23.313894785753973     
 NH   10.369372797473488        25.566322707492816     
 cg2d: Sum(rhs),rhsMax =   3.14775983056848E-13  4.82974109115867E+00
(PID.TID 0000.0001) whio : write lev 2 rec   6
 SH   5.2823017785090087        23.315542036205329     
 NH   10.363161182604188        25.566704399899947     
 SH   5.2823017785090087        23.315542036205329     
 NH   10.363161182604188        25.566704399899947     
 SH   5.2823017785090087        23.315542036205329     
 NH   10.363161182604188        25.566704399899947     
 SH   5.2823017785090087        23.315542036205329     
 NH   10.363161182604188        25.566704399899947     
 cg2d: Sum(rhs),rhsMax =   4.39315250844174E-13  4.29698968495844E+00
 SH   5.2853498032580433        23.317197499595977     
 NH   10.356332145529791        25.566786233455730     
 SH   5.2853498032580433        23.317197499595977     
 NH   10.356332145529791        25.566786233455730     
 SH   5.2853498032580433        23.317197499595977     
 NH   10.356332145529791        25.566786233455730     
 SH   5.2853498032580433        23.317197499595977     
 NH   10.356332145529791        25.566786233455730     
 cg2d: Sum(rhs),rhsMax =   4.05897537802957E-13  4.05871006441368E+00
 SH   5.2875889908265208        23.318903019773472     
 NH   10.348752588362231        25.566623168522369     
 SH   5.2875889908265208        23.318903019773472     
 NH   10.348752588362231        25.566623168522369     
 SH   5.2875889908265208        23.318903019773472     
 NH   10.348752588362231        25.566623168522369     
 SH   5.2875889908265208        23.318903019773472     
 NH   10.348752588362231        25.566623168522369     
 cg2d: Sum(rhs),rhsMax =   3.39950290140223E-13  4.66966123963030E+00
(PID.TID 0000.0001) whio : write lev 2 rec   7
 SH   5.2889441428935697        23.320676513655542     
 NH   10.340383266703554        25.566250030427909     
 SH   5.2889441428935697        23.320676513655542     
 NH   10.340383266703554        25.566250030427909     
 SH   5.2889441428935697        23.320676513655542     
 NH   10.340383266703554        25.566250030427909     
 SH   5.2889441428935697        23.320676513655542     
 NH   10.340383266703554        25.566250030427909     
 cg2d: Sum(rhs),rhsMax =   3.19522186487120E-13  5.21311960442291E+00
 SH   5.2893588071834188        23.322514947028196     
 NH   10.331249551267319        25.565687592377344     
 SH   5.2893588071834188        23.322514947028196     
 NH   10.331249551267319        25.565687592377344     
 SH   5.2893588071834188        23.322514947028196     
 NH   10.331249551267319        25.565687592377344     
 SH   5.2893588071834188        23.322514947028196     
 NH   10.331249551267319        25.565687592377344     
 cg2d: Sum(rhs),rhsMax =   3.09752223870419E-13  5.68011097647498E+00
(PID.TID 0000.0001) Did not write pickup because writePickupAtEnd = FALSE
 cg2d: Sum(rhs),rhsMax =   3.19522186487120E-13  5.21311960442291E+00
 cg2d: Sum(rhs),rhsMax =   3.09752223870419E-13  5.68011097647498E+00
(PID.TID 0000.0001) Did not write pickup because writePickupAtEnd = FALSE
(PID.TID 0000.0001) Did not write pickup because writePickupAtEnd = FALSE
(PID.TID 0000.0001) // =======================================================
(PID.TID 0000.0001) // Begin AD_MONITOR dynamic field statistics
(PID.TID 0000.0001) // =======================================================
(PID.TID 0000.0001) %MON ad_time_tsnumber             =                    20
(PID.TID 0000.0001) %MON ad_time_secondsf             =   8.6400000000000E+05
(PID.TID 0000.0001) %MON ad_dynstat_adeta_max         =   0.0000000000000E+00
(PID.TID 0000.0001) %MON ad_dynstat_adeta_min         =   0.0000000000000E+00
(PID.TID 0000.0001) %MON ad_dynstat_adeta_mean        =   0.0000000000000E+00
(PID.TID 0000.0001) %MON ad_dynstat_adeta_sd          =   0.0000000000000E+00
(PID.TID 0000.0001) %MON ad_dynstat_adeta_del2        =   0.0000000000000E+00
(PID.TID 0000.0001) %MON ad_dynstat_aduvel_max        =   0.0000000000000E+00
(PID.TID 0000.0001) %MON ad_dynstat_aduvel_min        =   0.0000000000000E+00
(PID.TID 0000.0001) %MON ad_dynstat_aduvel_mean       =   0.0000000000000E+00
(PID.TID 0000.0001) %MON ad_dynstat_aduvel_sd         =   0.0000000000000E+00
(PID.TID 0000.0001) %MON ad_dynstat_aduvel_del2       =   0.0000000000000E+00
(PID.TID 0000.0001) %MON ad_dynstat_advvel_max        =   4.7866517760352E-03
(PID.TID 0000.0001) %MON ad_dynstat_advvel_min        =   0.0000000000000E+00
(PID.TID 0000.0001) %MON ad_dynstat_advvel_mean       =   2.7263144233587E-05
(PID.TID 0000.0001) %MON ad_dynstat_advvel_sd         =   2.8199643722203E-04
(PID.TID 0000.0001) %MON ad_dynstat_advvel_del2       =   4.0250797885952E-06
(PID.TID 0000.0001) %MON ad_dynstat_adwvel_max        =   0.0000000000000E+00
(PID.TID 0000.0001) %MON ad_dynstat_adwvel_min        =   0.0000000000000E+00
(PID.TID 0000.0001) %MON ad_dynstat_adwvel_mean       =   0.0000000000000E+00
(PID.TID 0000.0001) %MON ad_dynstat_adwvel_sd         =   0.0000000000000E+00
(PID.TID 0000.0001) %MON ad_dynstat_adwvel_del2       =   0.0000000000000E+00
(PID.TID 0000.0001) %MON ad_dynstat_adtheta_max       =   2.9925482787533E-06
(PID.TID 0000.0001) %MON ad_dynstat_adtheta_min       =  -2.9817593600808E-06
(PID.TID 0000.0001) %MON ad_dynstat_adtheta_mean      =   3.1737723079724E-09
(PID.TID 0000.0001) %MON ad_dynstat_adtheta_sd        =   1.6109774245389E-07
(PID.TID 0000.0001) %MON ad_dynstat_adtheta_del2      =   1.2758578876797E-09
(PID.TID 0000.0001) %MON ad_dynstat_adsalt_max        =   0.0000000000000E+00
(PID.TID 0000.0001) %MON ad_dynstat_adsalt_min        =   0.0000000000000E+00
(PID.TID 0000.0001) %MON ad_dynstat_adsalt_mean       =   0.0000000000000E+00
(PID.TID 0000.0001) %MON ad_dynstat_adsalt_sd         =   0.0000000000000E+00
(PID.TID 0000.0001) %MON ad_dynstat_adsalt_del2       =   0.0000000000000E+00
(PID.TID 0000.0001) // =======================================================
(PID.TID 0000.0001) // End AD_MONITOR dynamic field statistics
(PID.TID 0000.0001) // =======================================================
 Calling cg2d from S/R CG2D_MAD
 cg2d: Sum(rhs),rhsMax =   1.88737914186277E-15  1.01286513593478E-08
 Calling cg2d from S/R CG2D_MAD
 cg2d: Sum(rhs),rhsMax =  -8.31557045444242E-14  1.09846859781234E-08
 cg2d: Sum(rhs),rhsMax =   4.39315250844174E-13  4.29698968495844E+00
 cg2d: Sum(rhs),rhsMax =   4.05897537802957E-13  4.05871006441368E+00
 cg2d: Sum(rhs),rhsMax =   3.39950290140223E-13  4.66966123963030E+00
(PID.TID 0000.0001) // =======================================================
(PID.TID 0000.0001) // Begin AD_MONITOR dynamic field statistics
(PID.TID 0000.0001) // =======================================================
(PID.TID 0000.0001) %MON ad_time_tsnumber             =                    18
(PID.TID 0000.0001) %MON ad_time_secondsf             =   7.7760000000000E+05
(PID.TID 0000.0001) %MON ad_dynstat_adeta_max         =   1.2005227480632E-04
(PID.TID 0000.0001) %MON ad_dynstat_adeta_min         =  -1.1141854840203E-04
(PID.TID 0000.0001) %MON ad_dynstat_adeta_mean        =   5.0105114337730E-07
(PID.TID 0000.0001) %MON ad_dynstat_adeta_sd          =   1.3182649705686E-05
(PID.TID 0000.0001) %MON ad_dynstat_adeta_del2        =   3.2269524671859E-07
(PID.TID 0000.0001) %MON ad_dynstat_aduvel_max        =   2.4060775326311E-03
(PID.TID 0000.0001) %MON ad_dynstat_aduvel_min        =  -2.4036011143791E-03
(PID.TID 0000.0001) %MON ad_dynstat_aduvel_mean       =   7.3846041191680E-07
(PID.TID 0000.0001) %MON ad_dynstat_aduvel_sd         =   7.2274212381011E-05
(PID.TID 0000.0001) %MON ad_dynstat_aduvel_del2       =   6.2360942166724E-07
(PID.TID 0000.0001) %MON ad_dynstat_advvel_max        =   1.1111395229152E-02
(PID.TID 0000.0001) %MON ad_dynstat_advvel_min        =  -1.0902490310248E-02
(PID.TID 0000.0001) %MON ad_dynstat_advvel_mean       =   3.7708103249666E-05
(PID.TID 0000.0001) %MON ad_dynstat_advvel_sd         =   5.2823431319735E-04
(PID.TID 0000.0001) %MON ad_dynstat_advvel_del2       =   7.5357726002146E-06
(PID.TID 0000.0001) %MON ad_dynstat_adwvel_max        =   1.9546525766745E-02
(PID.TID 0000.0001) %MON ad_dynstat_adwvel_min        =  -1.6466242016846E-02
(PID.TID 0000.0001) %MON ad_dynstat_adwvel_mean       =   1.2441617578640E-05
(PID.TID 0000.0001) %MON ad_dynstat_adwvel_sd         =   6.9335679618043E-04
(PID.TID 0000.0001) %MON ad_dynstat_adwvel_del2       =   1.3417944714418E-05
(PID.TID 0000.0001) %MON ad_dynstat_adtheta_max       =   1.1757944827001E-04
(PID.TID 0000.0001) %MON ad_dynstat_adtheta_min       =  -1.0958538358605E-04
(PID.TID 0000.0001) %MON ad_dynstat_adtheta_mean      =   8.4853144395831E-09
(PID.TID 0000.0001) %MON ad_dynstat_adtheta_sd        =   1.0346065946455E-05
(PID.TID 0000.0001) %MON ad_dynstat_adtheta_del2      =   1.5035436484530E-07
(PID.TID 0000.0001) %MON ad_dynstat_adsalt_max        =   5.5194891363438E-04
(PID.TID 0000.0001) %MON ad_dynstat_adsalt_min        =  -5.4873240203564E-04
(PID.TID 0000.0001) %MON ad_dynstat_adsalt_mean       =  -2.8451723928622E-08
(PID.TID 0000.0001) %MON ad_dynstat_adsalt_sd         =   4.8061777707219E-05
(PID.TID 0000.0001) %MON ad_dynstat_adsalt_del2       =   7.0347666823613E-07
(PID.TID 0000.0001) // =======================================================
(PID.TID 0000.0001) // End AD_MONITOR dynamic field statistics
(PID.TID 0000.0001) // =======================================================
 Calling cg2d from S/R CG2D_MAD
 cg2d: Sum(rhs),rhsMax =  -2.65010235978025E-13  1.15401886094480E-08
 Calling cg2d from S/R CG2D_MAD
 cg2d: Sum(rhs),rhsMax =  -4.65183447317941E-13  1.25852975445434E-08
(PID.TID 0000.0001) // =======================================================
(PID.TID 0000.0001) // Begin AD_MONITOR dynamic field statistics
(PID.TID 0000.0001) // =======================================================
(PID.TID 0000.0001) %MON ad_time_tsnumber             =                    16
(PID.TID 0000.0001) %MON ad_time_secondsf             =   6.9120000000000E+05
(PID.TID 0000.0001) %MON ad_dynstat_adeta_max         =   3.0508332773954E-04
(PID.TID 0000.0001) %MON ad_dynstat_adeta_min         =  -1.6847901428744E-04
(PID.TID 0000.0001) %MON ad_dynstat_adeta_mean        =   9.6738581904113E-07
(PID.TID 0000.0001) %MON ad_dynstat_adeta_sd          =   1.9642501025881E-05
(PID.TID 0000.0001) %MON ad_dynstat_adeta_del2        =   6.4451870974274E-07
(PID.TID 0000.0001) %MON ad_dynstat_aduvel_max        =   4.4790010649501E-03
(PID.TID 0000.0001) %MON ad_dynstat_aduvel_min        =  -4.6357772179469E-03
(PID.TID 0000.0001) %MON ad_dynstat_aduvel_mean       =  -6.0440660458888E-06
(PID.TID 0000.0001) %MON ad_dynstat_aduvel_sd         =   1.4119491193603E-04
(PID.TID 0000.0001) %MON ad_dynstat_aduvel_del2       =   1.2037454403189E-06
(PID.TID 0000.0001) %MON ad_dynstat_advvel_max        =   1.6700293631596E-02
(PID.TID 0000.0001) %MON ad_dynstat_advvel_min        =  -2.1770073708887E-02
(PID.TID 0000.0001) %MON ad_dynstat_advvel_mean       =   2.1163035093860E-05
(PID.TID 0000.0001) %MON ad_dynstat_advvel_sd         =   9.4664002587846E-04
(PID.TID 0000.0001) %MON ad_dynstat_advvel_del2       =   1.1955392959558E-05
(PID.TID 0000.0001) %MON ad_dynstat_adwvel_max        =   7.5216125492631E-02
(PID.TID 0000.0001) %MON ad_dynstat_adwvel_min        =  -6.2336974674171E-02
(PID.TID 0000.0001) %MON ad_dynstat_adwvel_mean       =   2.0125706603545E-05
(PID.TID 0000.0001) %MON ad_dynstat_adwvel_sd         =   2.8031584271682E-03
(PID.TID 0000.0001) %MON ad_dynstat_adwvel_del2       =   5.5018592193609E-05
(PID.TID 0000.0001) %MON ad_dynstat_adtheta_max       =   3.3693060659291E-04
(PID.TID 0000.0001) %MON ad_dynstat_adtheta_min       =  -3.2968625868581E-04
(PID.TID 0000.0001) %MON ad_dynstat_adtheta_mean      =   3.6795361101982E-08
(PID.TID 0000.0001) %MON ad_dynstat_adtheta_sd        =   3.0149351566579E-05
(PID.TID 0000.0001) %MON ad_dynstat_adtheta_del2      =   4.3491794601100E-07
(PID.TID 0000.0001) %MON ad_dynstat_adsalt_max        =   1.6177178694939E-03
(PID.TID 0000.0001) %MON ad_dynstat_adsalt_min        =  -1.6017286638328E-03
(PID.TID 0000.0001) %MON ad_dynstat_adsalt_mean       =  -2.0704566356206E-07
(PID.TID 0000.0001) %MON ad_dynstat_adsalt_sd         =   1.4012800456845E-04
(PID.TID 0000.0001) %MON ad_dynstat_adsalt_del2       =   2.0341979379694E-06
(PID.TID 0000.0001) // =======================================================
(PID.TID 0000.0001) // End AD_MONITOR dynamic field statistics
(PID.TID 0000.0001) // =======================================================
 Calling cg2d from S/R CG2D_MAD
 cg2d: Sum(rhs),rhsMax =  -6.97664148674448E-13  1.37827308852423E-08
 cg2d: Sum(rhs),rhsMax =   2.98427949019242E-13  5.83429776107427E+00
 cg2d: Sum(rhs),rhsMax =   2.68562949656825E-13  5.34109689590950E+00
 cg2d: Sum(rhs),rhsMax =   3.14775983056848E-13  4.82974109115867E+00
 Calling cg2d from S/R CG2D_MAD
 cg2d: Sum(rhs),rhsMax =  -9.24593734907830E-13  1.51215134192896E-08
(PID.TID 0000.0001) // =======================================================
(PID.TID 0000.0001) // Begin AD_MONITOR dynamic field statistics
(PID.TID 0000.0001) // =======================================================
(PID.TID 0000.0001) %MON ad_time_tsnumber             =                    14
(PID.TID 0000.0001) %MON ad_time_secondsf             =   6.0480000000000E+05
(PID.TID 0000.0001) %MON ad_dynstat_adeta_max         =   5.5819976673467E-04
(PID.TID 0000.0001) %MON ad_dynstat_adeta_min         =  -2.8990498415312E-04
(PID.TID 0000.0001) %MON ad_dynstat_adeta_mean        =   1.0961258113681E-06
(PID.TID 0000.0001) %MON ad_dynstat_adeta_sd          =   2.7355751249571E-05
(PID.TID 0000.0001) %MON ad_dynstat_adeta_del2        =   1.1645718316210E-06
(PID.TID 0000.0001) %MON ad_dynstat_aduvel_max        =   6.0212494903993E-03
(PID.TID 0000.0001) %MON ad_dynstat_aduvel_min        =  -6.6620446523346E-03
(PID.TID 0000.0001) %MON ad_dynstat_aduvel_mean       =  -1.4027497762156E-05
(PID.TID 0000.0001) %MON ad_dynstat_aduvel_sd         =   1.9447082497468E-04
(PID.TID 0000.0001) %MON ad_dynstat_aduvel_del2       =   1.6880494980517E-06
(PID.TID 0000.0001) %MON ad_dynstat_advvel_max        =   2.1628185059946E-02
(PID.TID 0000.0001) %MON ad_dynstat_advvel_min        =  -3.0980022638109E-02
(PID.TID 0000.0001) %MON ad_dynstat_advvel_mean       =   1.9994010496070E-06
(PID.TID 0000.0001) %MON ad_dynstat_advvel_sd         =   1.3375566830948E-03
(PID.TID 0000.0001) %MON ad_dynstat_advvel_del2       =   1.5870433492212E-05
(PID.TID 0000.0001) %MON ad_dynstat_adwvel_max        =   1.5423682246530E-01
(PID.TID 0000.0001) %MON ad_dynstat_adwvel_min        =  -1.3128013532085E-01
(PID.TID 0000.0001) %MON ad_dynstat_adwvel_mean       =   2.1583500066536E-05
(PID.TID 0000.0001) %MON ad_dynstat_adwvel_sd         =   5.8327226580949E-03
(PID.TID 0000.0001) %MON ad_dynstat_adwvel_del2       =   1.1402799516641E-04
(PID.TID 0000.0001) %MON ad_dynstat_adtheta_max       =   6.5266301130407E-04
(PID.TID 0000.0001) %MON ad_dynstat_adtheta_min       =  -6.4206671758738E-04
(PID.TID 0000.0001) %MON ad_dynstat_adtheta_mean      =   9.2353718492903E-08
(PID.TID 0000.0001) %MON ad_dynstat_adtheta_sd        =   5.7929883059127E-05
(PID.TID 0000.0001) %MON ad_dynstat_adtheta_del2      =   8.3150480644843E-07
(PID.TID 0000.0001) %MON ad_dynstat_adsalt_max        =   3.1155386966777E-03
(PID.TID 0000.0001) %MON ad_dynstat_adsalt_min        =  -3.0561962659131E-03
(PID.TID 0000.0001) %MON ad_dynstat_adsalt_mean       =  -5.3150181679442E-07
(PID.TID 0000.0001) %MON ad_dynstat_adsalt_sd         =   2.6922031618389E-04
(PID.TID 0000.0001) %MON ad_dynstat_adsalt_del2       =   3.8879646999194E-06
(PID.TID 0000.0001) // =======================================================
(PID.TID 0000.0001) // End AD_MONITOR dynamic field statistics
(PID.TID 0000.0001) // =======================================================
 Calling cg2d from S/R CG2D_MAD
 cg2d: Sum(rhs),rhsMax =  -1.18882681476862E-12  1.65945078345082E-08
 Calling cg2d from S/R CG2D_MAD
 cg2d: Sum(rhs),rhsMax =  -1.48414613931891E-12  1.81869633479285E-08
 cg2d: Sum(rhs),rhsMax =   4.61408689034215E-13  7.13991401158280E+00
 cg2d: Sum(rhs),rhsMax =   5.79536418854332E-13  6.73068188232495E+00
 cg2d: Sum(rhs),rhsMax =   3.23296944770846E-13  6.29818143407533E+00
(PID.TID 0000.0001) // =======================================================
(PID.TID 0000.0001) // Begin AD_MONITOR dynamic field statistics
(PID.TID 0000.0001) // =======================================================
(PID.TID 0000.0001) %MON ad_time_tsnumber             =                    12
(PID.TID 0000.0001) %MON ad_time_secondsf             =   5.1840000000000E+05
(PID.TID 0000.0001) %MON ad_dynstat_adeta_max         =   8.6534517277296E-04
(PID.TID 0000.0001) %MON ad_dynstat_adeta_min         =  -4.4398464370748E-04
(PID.TID 0000.0001) %MON ad_dynstat_adeta_mean        =   9.6448998653387E-07
(PID.TID 0000.0001) %MON ad_dynstat_adeta_sd          =   3.8322339011487E-05
(PID.TID 0000.0001) %MON ad_dynstat_adeta_del2        =   1.8241600004518E-06
(PID.TID 0000.0001) %MON ad_dynstat_aduvel_max        =   7.3544887204327E-03
(PID.TID 0000.0001) %MON ad_dynstat_aduvel_min        =  -8.3271133126438E-03
(PID.TID 0000.0001) %MON ad_dynstat_aduvel_mean       =  -1.9648634260893E-05
(PID.TID 0000.0001) %MON ad_dynstat_aduvel_sd         =   2.4107312580903E-04
(PID.TID 0000.0001) %MON ad_dynstat_aduvel_del2       =   2.0723681624814E-06
(PID.TID 0000.0001) %MON ad_dynstat_advvel_max        =   2.5637234086174E-02
(PID.TID 0000.0001) %MON ad_dynstat_advvel_min        =  -3.8465044690327E-02
(PID.TID 0000.0001) %MON ad_dynstat_advvel_mean       =  -2.4052522126656E-05
(PID.TID 0000.0001) %MON ad_dynstat_advvel_sd         =   1.6627440952434E-03
(PID.TID 0000.0001) %MON ad_dynstat_advvel_del2       =   1.8924416739021E-05
(PID.TID 0000.0001) %MON ad_dynstat_adwvel_max        =   2.5268093110850E-01
(PID.TID 0000.0001) %MON ad_dynstat_adwvel_min        =  -2.1596579075834E-01
(PID.TID 0000.0001) %MON ad_dynstat_adwvel_mean       =   1.9601076744035E-05
(PID.TID 0000.0001) %MON ad_dynstat_adwvel_sd         =   9.6363255940037E-03
(PID.TID 0000.0001) %MON ad_dynstat_adwvel_del2       =   1.8748256815154E-04
(PID.TID 0000.0001) %MON ad_dynstat_adtheta_max       =   1.0528115730114E-03
(PID.TID 0000.0001) %MON ad_dynstat_adtheta_min       =  -1.0311462010988E-03
(PID.TID 0000.0001) %MON ad_dynstat_adtheta_mean      =   1.7052982414930E-07
(PID.TID 0000.0001) %MON ad_dynstat_adtheta_sd        =   9.2110111962380E-05
(PID.TID 0000.0001) %MON ad_dynstat_adtheta_del2      =   1.3150918215646E-06
(PID.TID 0000.0001) %MON ad_dynstat_adsalt_max        =   4.9663369536558E-03
(PID.TID 0000.0001) %MON ad_dynstat_adsalt_min        =  -4.9100508710721E-03
(PID.TID 0000.0001) %MON ad_dynstat_adsalt_mean       =  -9.6451909655411E-07
(PID.TID 0000.0001) %MON ad_dynstat_adsalt_sd         =   4.2794917712598E-04
(PID.TID 0000.0001) %MON ad_dynstat_adsalt_del2       =   6.1470025372174E-06
(PID.TID 0000.0001) // =======================================================
(PID.TID 0000.0001) // End AD_MONITOR dynamic field statistics
(PID.TID 0000.0001) // =======================================================
 Calling cg2d from S/R CG2D_MAD
 cg2d: Sum(rhs),rhsMax =  -1.67910130244309E-12  1.98824395080077E-08
 Calling cg2d from S/R CG2D_MAD
 cg2d: Sum(rhs),rhsMax =  -1.74527059471075E-12  2.16602703429355E-08
(PID.TID 0000.0001) // =======================================================
(PID.TID 0000.0001) // Begin AD_MONITOR dynamic field statistics
(PID.TID 0000.0001) // =======================================================
(PID.TID 0000.0001) %MON ad_time_tsnumber             =                    10
(PID.TID 0000.0001) %MON ad_time_secondsf             =   4.3200000000000E+05
(PID.TID 0000.0001) %MON ad_dynstat_adeta_max         =   1.2197612880836E-03
(PID.TID 0000.0001) %MON ad_dynstat_adeta_min         =  -6.1971794787392E-04
(PID.TID 0000.0001) %MON ad_dynstat_adeta_mean        =   7.9361853216132E-07
(PID.TID 0000.0001) %MON ad_dynstat_adeta_sd          =   5.1976062009915E-05
(PID.TID 0000.0001) %MON ad_dynstat_adeta_del2        =   2.5910355915362E-06
(PID.TID 0000.0001) %MON ad_dynstat_aduvel_max        =   8.4599293449966E-03
(PID.TID 0000.0001) %MON ad_dynstat_aduvel_min        =  -9.6037772360181E-03
(PID.TID 0000.0001) %MON ad_dynstat_aduvel_mean       =  -2.1928127866994E-05
(PID.TID 0000.0001) %MON ad_dynstat_aduvel_sd         =   2.8292428852583E-04
(PID.TID 0000.0001) %MON ad_dynstat_aduvel_del2       =   2.3637060460255E-06
(PID.TID 0000.0001) %MON ad_dynstat_advvel_max        =   2.8568694690914E-02
(PID.TID 0000.0001) %MON ad_dynstat_advvel_min        =  -4.4045764535192E-02
(PID.TID 0000.0001) %MON ad_dynstat_advvel_mean       =  -5.7631397432527E-05
(PID.TID 0000.0001) %MON ad_dynstat_advvel_sd         =   1.9101203351891E-03
(PID.TID 0000.0001) %MON ad_dynstat_advvel_del2       =   2.0950764653558E-05
(PID.TID 0000.0001) %MON ad_dynstat_adwvel_max        =   3.6527647105165E-01
(PID.TID 0000.0001) %MON ad_dynstat_adwvel_min        =  -3.0974155773165E-01
(PID.TID 0000.0001) %MON ad_dynstat_adwvel_mean       =   1.6961006418657E-05
(PID.TID 0000.0001) %MON ad_dynstat_adwvel_sd         =   1.4000571566905E-02
(PID.TID 0000.0001) %MON ad_dynstat_adwvel_del2       =   2.7088715914140E-04
(PID.TID 0000.0001) %MON ad_dynstat_adtheta_max       =   1.5197039497930E-03
(PID.TID 0000.0001) %MON ad_dynstat_adtheta_min       =  -1.4783261268722E-03
(PID.TID 0000.0001) %MON ad_dynstat_adtheta_mean      =   2.6431063130274E-07
(PID.TID 0000.0001) %MON ad_dynstat_adtheta_sd        =   1.3088665180245E-04
(PID.TID 0000.0001) %MON ad_dynstat_adtheta_del2      =   1.8571877779204E-06
(PID.TID 0000.0001) %MON ad_dynstat_adsalt_max        =   7.0766618565117E-03
(PID.TID 0000.0001) %MON ad_dynstat_adsalt_min        =  -7.0493517490813E-03
(PID.TID 0000.0001) %MON ad_dynstat_adsalt_mean       =  -1.4644478302266E-06
(PID.TID 0000.0001) %MON ad_dynstat_adsalt_sd         =   6.0785557469453E-04
(PID.TID 0000.0001) %MON ad_dynstat_adsalt_del2       =   8.6771562789391E-06
(PID.TID 0000.0001) // =======================================================
(PID.TID 0000.0001) // End AD_MONITOR dynamic field statistics
(PID.TID 0000.0001) // =======================================================
 Calling cg2d from S/R CG2D_MAD
 cg2d: Sum(rhs),rhsMax =  -1.84963155902551E-12  2.34953400045973E-08
 cg2d: Sum(rhs),rhsMax =   3.27737836869346E-13  8.14948256898594E+00
 cg2d: Sum(rhs),rhsMax =   3.99236199655206E-13  7.83154430788592E+00
 cg2d: Sum(rhs),rhsMax =   4.45865566689463E-13  7.51067684218438E+00
 Calling cg2d from S/R CG2D_MAD
 cg2d: Sum(rhs),rhsMax =  -1.97353244857368E-12  2.53587491232735E-08
(PID.TID 0000.0001) // =======================================================
(PID.TID 0000.0001) // Begin AD_MONITOR dynamic field statistics
(PID.TID 0000.0001) // =======================================================
(PID.TID 0000.0001) %MON ad_time_tsnumber             =                     8
(PID.TID 0000.0001) %MON ad_time_secondsf             =   3.4560000000000E+05
(PID.TID 0000.0001) %MON ad_dynstat_adeta_max         =   1.6107909015899E-03
(PID.TID 0000.0001) %MON ad_dynstat_adeta_min         =  -8.0821684416397E-04
(PID.TID 0000.0001) %MON ad_dynstat_adeta_mean        =   7.3581367460554E-07
(PID.TID 0000.0001) %MON ad_dynstat_adeta_sd          =   6.7427410513614E-05
(PID.TID 0000.0001) %MON ad_dynstat_adeta_del2        =   3.4335454071682E-06
(PID.TID 0000.0001) %MON ad_dynstat_aduvel_max        =   9.2111806766296E-03
(PID.TID 0000.0001) %MON ad_dynstat_aduvel_min        =  -1.0513529366283E-02
(PID.TID 0000.0001) %MON ad_dynstat_aduvel_mean       =  -1.9484688654843E-05
(PID.TID 0000.0001) %MON ad_dynstat_aduvel_sd         =   3.1873724610081E-04
(PID.TID 0000.0001) %MON ad_dynstat_aduvel_del2       =   2.5715310020398E-06
(PID.TID 0000.0001) %MON ad_dynstat_advvel_max        =   3.0324931617287E-02
(PID.TID 0000.0001) %MON ad_dynstat_advvel_min        =  -4.7633218185619E-02
(PID.TID 0000.0001) %MON ad_dynstat_advvel_mean       =  -9.2888596929467E-05
(PID.TID 0000.0001) %MON ad_dynstat_advvel_sd         =   2.0741933498204E-03
(PID.TID 0000.0001) %MON ad_dynstat_advvel_del2       =   2.1877486419859E-05
(PID.TID 0000.0001) %MON ad_dynstat_adwvel_max        =   4.8615654417581E-01
(PID.TID 0000.0001) %MON ad_dynstat_adwvel_min        =  -4.0586055637947E-01
(PID.TID 0000.0001) %MON ad_dynstat_adwvel_mean       =   1.5238689176132E-05
(PID.TID 0000.0001) %MON ad_dynstat_adwvel_sd         =   1.8698233073646E-02
(PID.TID 0000.0001) %MON ad_dynstat_adwvel_del2       =   3.5946438532173E-04
(PID.TID 0000.0001) %MON ad_dynstat_adtheta_max       =   2.0406304763154E-03
(PID.TID 0000.0001) %MON ad_dynstat_adtheta_min       =  -1.9631016485106E-03
(PID.TID 0000.0001) %MON ad_dynstat_adtheta_mean      =   3.6645189265502E-07
(PID.TID 0000.0001) %MON ad_dynstat_adtheta_sd        =   1.7233730359567E-04
(PID.TID 0000.0001) %MON ad_dynstat_adtheta_del2      =   2.4275811518995E-06
(PID.TID 0000.0001) %MON ad_dynstat_adsalt_max        =   9.3440430881680E-03
(PID.TID 0000.0001) %MON ad_dynstat_adsalt_min        =  -9.3894162258354E-03
(PID.TID 0000.0001) %MON ad_dynstat_adsalt_mean       =  -2.0055631457589E-06
(PID.TID 0000.0001) %MON ad_dynstat_adsalt_sd         =   7.9992560108658E-04
(PID.TID 0000.0001) %MON ad_dynstat_adsalt_del2       =   1.1336199338618E-05
(PID.TID 0000.0001) // =======================================================
(PID.TID 0000.0001) // End AD_MONITOR dynamic field statistics
(PID.TID 0000.0001) // =======================================================
 Calling cg2d from S/R CG2D_MAD
 cg2d: Sum(rhs),rhsMax =  -1.92645899232957E-12  2.72194734284986E-08
 Calling cg2d from S/R CG2D_MAD
 cg2d: Sum(rhs),rhsMax =  -1.81099579776856E-12  2.90464365626573E-08
 cg2d: Sum(rhs),rhsMax =   1.52058921010223E-13  8.57272615646466E+00
 cg2d: Sum(rhs),rhsMax =   8.75965966429249E-14  8.54161341749473E+00
 cg2d: Sum(rhs),rhsMax =   3.68149954965702E-13  8.39950932313246E+00
(PID.TID 0000.0001) // =======================================================
(PID.TID 0000.0001) // Begin AD_MONITOR dynamic field statistics
(PID.TID 0000.0001) // =======================================================
(PID.TID 0000.0001) %MON ad_time_tsnumber             =                     6
(PID.TID 0000.0001) %MON ad_time_secondsf             =   2.5920000000000E+05
(PID.TID 0000.0001) %MON ad_dynstat_adeta_max         =   2.0226547377885E-03
(PID.TID 0000.0001) %MON ad_dynstat_adeta_min         =  -1.0020427621809E-03
(PID.TID 0000.0001) %MON ad_dynstat_adeta_mean        =   8.0612356186340E-07
(PID.TID 0000.0001) %MON ad_dynstat_adeta_sd          =   8.3897790231233E-05
(PID.TID 0000.0001) %MON ad_dynstat_adeta_del2        =   4.3169837919892E-06
(PID.TID 0000.0001) %MON ad_dynstat_aduvel_max        =   9.5282508841664E-03
(PID.TID 0000.0001) %MON ad_dynstat_aduvel_min        =  -1.1080518601775E-02
(PID.TID 0000.0001) %MON ad_dynstat_aduvel_mean       =  -1.2622503255436E-05
(PID.TID 0000.0001) %MON ad_dynstat_aduvel_sd         =   3.4741553396075E-04
(PID.TID 0000.0001) %MON ad_dynstat_aduvel_del2       =   2.7106249714971E-06
(PID.TID 0000.0001) %MON ad_dynstat_advvel_max        =   3.0865132312869E-02
(PID.TID 0000.0001) %MON ad_dynstat_advvel_min        =  -4.9696420839678E-02
(PID.TID 0000.0001) %MON ad_dynstat_advvel_mean       =  -1.2297222488736E-04
(PID.TID 0000.0001) %MON ad_dynstat_advvel_sd         =   2.1539183962005E-03
(PID.TID 0000.0001) %MON ad_dynstat_advvel_del2       =   2.1709579781137E-05
(PID.TID 0000.0001) %MON ad_dynstat_adwvel_max        =   6.0932933850701E-01
(PID.TID 0000.0001) %MON ad_dynstat_adwvel_min        =  -4.9796004530489E-01
(PID.TID 0000.0001) %MON ad_dynstat_adwvel_mean       =   1.4929088275646E-05
(PID.TID 0000.0001) %MON ad_dynstat_adwvel_sd         =   2.3499290322980E-02
(PID.TID 0000.0001) %MON ad_dynstat_adwvel_del2       =   4.4839977708089E-04
(PID.TID 0000.0001) %MON ad_dynstat_adtheta_max       =   2.6080669620539E-03
(PID.TID 0000.0001) %MON ad_dynstat_adtheta_min       =  -2.4645032852600E-03
(PID.TID 0000.0001) %MON ad_dynstat_adtheta_mean      =   4.6821196059682E-07
(PID.TID 0000.0001) %MON ad_dynstat_adtheta_sd        =   2.1452692045873E-04
(PID.TID 0000.0001) %MON ad_dynstat_adtheta_del2      =   2.9961518315773E-06
(PID.TID 0000.0001) %MON ad_dynstat_adsalt_max        =   1.1664337173522E-02
(PID.TID 0000.0001) %MON ad_dynstat_adsalt_min        =  -1.1896697689476E-02
(PID.TID 0000.0001) %MON ad_dynstat_adsalt_mean       =  -2.5792309753016E-06
(PID.TID 0000.0001) %MON ad_dynstat_adsalt_sd         =   9.9509560945141E-04
(PID.TID 0000.0001) %MON ad_dynstat_adsalt_del2       =   1.3982361393694E-05
(PID.TID 0000.0001) // =======================================================
(PID.TID 0000.0001) // End AD_MONITOR dynamic field statistics
(PID.TID 0000.0001) // =======================================================
 Calling cg2d from S/R CG2D_MAD
 cg2d: Sum(rhs),rhsMax =  -1.66888725061654E-12  3.08101471575637E-08
 Calling cg2d from S/R CG2D_MAD
 cg2d: Sum(rhs),rhsMax =  -1.51745283005766E-12  3.24835921380190E-08
(PID.TID 0000.0001) // =======================================================
(PID.TID 0000.0001) // Begin AD_MONITOR dynamic field statistics
(PID.TID 0000.0001) // =======================================================
(PID.TID 0000.0001) %MON ad_time_tsnumber             =                     4
(PID.TID 0000.0001) %MON ad_time_secondsf             =   1.7280000000000E+05
(PID.TID 0000.0001) %MON ad_dynstat_adeta_max         =   2.4372200218954E-03
(PID.TID 0000.0001) %MON ad_dynstat_adeta_min         =  -1.1942800082419E-03
(PID.TID 0000.0001) %MON ad_dynstat_adeta_mean        =   9.4253797993306E-07
(PID.TID 0000.0001) %MON ad_dynstat_adeta_sd          =   1.0070184448785E-04
(PID.TID 0000.0001) %MON ad_dynstat_adeta_del2        =   5.2062153853205E-06
(PID.TID 0000.0001) %MON ad_dynstat_aduvel_max        =   9.8452234143108E-03
(PID.TID 0000.0001) %MON ad_dynstat_aduvel_min        =  -1.1323520952784E-02
(PID.TID 0000.0001) %MON ad_dynstat_aduvel_mean       =  -3.7432257981591E-06
(PID.TID 0000.0001) %MON ad_dynstat_aduvel_sd         =   3.6943548260253E-04
(PID.TID 0000.0001) %MON ad_dynstat_aduvel_del2       =   2.7999054569257E-06
(PID.TID 0000.0001) %MON ad_dynstat_advvel_max        =   3.0215922488282E-02
(PID.TID 0000.0001) %MON ad_dynstat_advvel_min        =  -5.0210100955352E-02
(PID.TID 0000.0001) %MON ad_dynstat_advvel_mean       =  -1.4324097749457E-04
(PID.TID 0000.0001) %MON ad_dynstat_advvel_sd         =   2.1518400581078E-03
(PID.TID 0000.0001) %MON ad_dynstat_advvel_del2       =   2.0523141228232E-05
(PID.TID 0000.0001) %MON ad_dynstat_adwvel_max        =   7.2905698640391E-01
(PID.TID 0000.0001) %MON ad_dynstat_adwvel_min        =  -5.8033026522106E-01
(PID.TID 0000.0001) %MON ad_dynstat_adwvel_mean       =   1.6094427598352E-05
(PID.TID 0000.0001) %MON ad_dynstat_adwvel_sd         =   2.8181421945561E-02
(PID.TID 0000.0001) %MON ad_dynstat_adwvel_del2       =   5.3309010092962E-04
(PID.TID 0000.0001) %MON ad_dynstat_adtheta_max       =   3.1943787989533E-03
(PID.TID 0000.0001) %MON ad_dynstat_adtheta_min       =  -2.9665131155123E-03
(PID.TID 0000.0001) %MON ad_dynstat_adtheta_mean      =   5.6273101924247E-07
(PID.TID 0000.0001) %MON ad_dynstat_adtheta_sd        =   2.5560565860465E-04
(PID.TID 0000.0001) %MON ad_dynstat_adtheta_del2      =   3.5344100302712E-06
(PID.TID 0000.0001) %MON ad_dynstat_adsalt_max        =   1.3939470391142E-02
(PID.TID 0000.0001) %MON ad_dynstat_adsalt_min        =  -1.4436200626758E-02
(PID.TID 0000.0001) %MON ad_dynstat_adsalt_mean       =  -3.1813122475675E-06
(PID.TID 0000.0001) %MON ad_dynstat_adsalt_sd         =   1.1847137990919E-03
(PID.TID 0000.0001) %MON ad_dynstat_adsalt_del2       =   1.6481716132713E-05
(PID.TID 0000.0001) // =======================================================
(PID.TID 0000.0001) // End AD_MONITOR dynamic field statistics
(PID.TID 0000.0001) // =======================================================
 Calling cg2d from S/R CG2D_MAD
 cg2d: Sum(rhs),rhsMax =  -1.39932510023755E-12  3.40424994419613E-08
(PID.TID 0000.0001) SOLVE_FOR_PRESSURE: putPmEinXvector =    F
 cg2d: Sum(rhs),rhsMax =  -1.77635683940025E-15  7.56835956534411E+00
 cg2d: Sum(rhs),rhsMax =   1.52100554373646E-14  8.72165931292916E+00
 cg2d: Sum(rhs),rhsMax =   1.03805852802452E-13  8.58467838119716E+00
 Calling cg2d from S/R CG2D_MAD
 cg2d: Sum(rhs),rhsMax =  -1.31095134747738E-12  3.56667322938342E-08
(PID.TID 0000.0001) // =======================================================
(PID.TID 0000.0001) // Begin AD_MONITOR dynamic field statistics
(PID.TID 0000.0001) // =======================================================
(PID.TID 0000.0001) %MON ad_time_tsnumber             =                     2
(PID.TID 0000.0001) %MON ad_time_secondsf             =   8.6400000000000E+04
(PID.TID 0000.0001) %MON ad_dynstat_adeta_max         =   2.8367487301433E-03
(PID.TID 0000.0001) %MON ad_dynstat_adeta_min         =  -1.3845216938054E-03
(PID.TID 0000.0001) %MON ad_dynstat_adeta_mean        =   1.0801889681773E-06
(PID.TID 0000.0001) %MON ad_dynstat_adeta_sd          =   1.1721777898545E-04
(PID.TID 0000.0001) %MON ad_dynstat_adeta_del2        =   6.0686123272076E-06
(PID.TID 0000.0001) %MON ad_dynstat_aduvel_max        =   1.0216824815377E-02
(PID.TID 0000.0001) %MON ad_dynstat_aduvel_min        =  -1.1257795856386E-02
(PID.TID 0000.0001) %MON ad_dynstat_aduvel_mean       =   4.3437075483981E-06
(PID.TID 0000.0001) %MON ad_dynstat_aduvel_sd         =   3.8661412949553E-04
(PID.TID 0000.0001) %MON ad_dynstat_aduvel_del2       =   2.8599874821236E-06
(PID.TID 0000.0001) %MON ad_dynstat_advvel_max        =   2.8463098876300E-02
(PID.TID 0000.0001) %MON ad_dynstat_advvel_min        =  -4.8880257971948E-02
(PID.TID 0000.0001) %MON ad_dynstat_advvel_mean       =  -1.5197577521658E-04
(PID.TID 0000.0001) %MON ad_dynstat_advvel_sd         =   2.0745354719899E-03
(PID.TID 0000.0001) %MON ad_dynstat_advvel_del2       =   1.8463626932828E-05
(PID.TID 0000.0001) %MON ad_dynstat_adwvel_max        =   8.4015883700894E-01
(PID.TID 0000.0001) %MON ad_dynstat_adwvel_min        =  -6.6632240937636E-01
(PID.TID 0000.0001) %MON ad_dynstat_adwvel_mean       =   1.7999964976009E-05
(PID.TID 0000.0001) %MON ad_dynstat_adwvel_sd         =   3.2541510600206E-02
(PID.TID 0000.0001) %MON ad_dynstat_adwvel_del2       =   6.0939653646244E-04
(PID.TID 0000.0001) %MON ad_dynstat_adtheta_max       =   3.7813474878646E-03
(PID.TID 0000.0001) %MON ad_dynstat_adtheta_min       =  -3.4701782252755E-03
(PID.TID 0000.0001) %MON ad_dynstat_adtheta_mean      =   6.5325555730389E-07
(PID.TID 0000.0001) %MON ad_dynstat_adtheta_sd        =   2.9390602838060E-04
(PID.TID 0000.0001) %MON ad_dynstat_adtheta_del2      =   4.0169902671054E-06
(PID.TID 0000.0001) %MON ad_dynstat_adsalt_max        =   1.6084289517968E-02
(PID.TID 0000.0001) %MON ad_dynstat_adsalt_min        =  -1.6915935323018E-02
(PID.TID 0000.0001) %MON ad_dynstat_adsalt_mean       =  -3.8031937636612E-06
(PID.TID 0000.0001) %MON ad_dynstat_adsalt_sd         =   1.3609799481824E-03
(PID.TID 0000.0001) %MON ad_dynstat_adsalt_del2       =   1.8715164980921E-05
(PID.TID 0000.0001) // =======================================================
(PID.TID 0000.0001) // End AD_MONITOR dynamic field statistics
(PID.TID 0000.0001) // =======================================================
 Calling cg2d from S/R CG2D_MAD
 cg2d: Sum(rhs),rhsMax =  -1.24877885809838E-12  3.73961906481750E-08
 Calling cg2d from S/R CG2D_MAD
 cg2d: Sum(rhs),rhsMax =  -1.20969900763157E-12  3.89896233104863E-08
(PID.TID 0000.0001) // =======================================================
(PID.TID 0000.0001) // Begin AD_MONITOR dynamic field statistics
(PID.TID 0000.0001) // =======================================================
(PID.TID 0000.0001) %MON ad_time_tsnumber             =                     0
(PID.TID 0000.0001) %MON ad_time_secondsf             =   0.0000000000000E+00
(PID.TID 0000.0001) %MON ad_dynstat_adeta_max         =   1.3881721234760E-03
(PID.TID 0000.0001) %MON ad_dynstat_adeta_min         =  -7.4570631025216E-04
(PID.TID 0000.0001) %MON ad_dynstat_adeta_mean        =   1.2207991916500E-06
(PID.TID 0000.0001) %MON ad_dynstat_adeta_sd          =   6.0750287534994E-05
(PID.TID 0000.0001) %MON ad_dynstat_adeta_del2        =   2.9689762956208E-06
(PID.TID 0000.0001) %MON ad_dynstat_aduvel_max        =   1.1095674714205E-02
(PID.TID 0000.0001) %MON ad_dynstat_aduvel_min        =  -1.1832549489420E-02
(PID.TID 0000.0001) %MON ad_dynstat_aduvel_mean       =   9.6136246803799E-06
(PID.TID 0000.0001) %MON ad_dynstat_aduvel_sd         =   4.2337149847745E-04
(PID.TID 0000.0001) %MON ad_dynstat_aduvel_del2       =   3.0878196558743E-06
(PID.TID 0000.0001) %MON ad_dynstat_advvel_max        =   2.2660297869938E-02
(PID.TID 0000.0001) %MON ad_dynstat_advvel_min        =  -4.9127133451416E-02
(PID.TID 0000.0001) %MON ad_dynstat_advvel_mean       =  -1.8611743393511E-04
(PID.TID 0000.0001) %MON ad_dynstat_advvel_sd         =   2.0908481307976E-03
(PID.TID 0000.0001) %MON ad_dynstat_advvel_del2       =   1.5510332338994E-05
(PID.TID 0000.0001) %MON ad_dynstat_adwvel_max        =   3.9865448460566E-01
(PID.TID 0000.0001) %MON ad_dynstat_adwvel_min        =  -3.0878919398949E-01
(PID.TID 0000.0001) %MON ad_dynstat_adwvel_mean       =   7.5688077041387E-06
(PID.TID 0000.0001) %MON ad_dynstat_adwvel_sd         =   1.5260034125454E-02
(PID.TID 0000.0001) %MON ad_dynstat_adwvel_del2       =   2.8114510722825E-04
(PID.TID 0000.0001) %MON ad_dynstat_adtheta_max       =   4.1812434397043E-03
(PID.TID 0000.0001) %MON ad_dynstat_adtheta_min       =  -3.8173309327501E-03
(PID.TID 0000.0001) %MON ad_dynstat_adtheta_mean      =   7.2206414093796E-07
(PID.TID 0000.0001) %MON ad_dynstat_adtheta_sd        =   3.1772203195984E-04
(PID.TID 0000.0001) %MON ad_dynstat_adtheta_del2      =   4.3001802481134E-06
(PID.TID 0000.0001) %MON ad_dynstat_adsalt_max        =   1.7448195541874E-02
(PID.TID 0000.0001) %MON ad_dynstat_adsalt_min        =  -1.8549403840354E-02
(PID.TID 0000.0001) %MON ad_dynstat_adsalt_mean       =  -4.2425697732397E-06
(PID.TID 0000.0001) %MON ad_dynstat_adsalt_sd         =   1.4701035751637E-03
(PID.TID 0000.0001) %MON ad_dynstat_adsalt_del2       =   2.0019038393756E-05
(PID.TID 0000.0001) // =======================================================
(PID.TID 0000.0001) // End AD_MONITOR dynamic field statistics
(PID.TID 0000.0001) // =======================================================
 ph-pack: packing ecco_cost
 ph-pack: packing ecco_ctrl
(PID.TID 0000.0001) // =======================================================
(PID.TID 0000.0001) // Gradient-check starts (grdchk_main)
(PID.TID 0000.0001) // =======================================================
(PID.TID 0000.0001) grdchk reference fc: fcref       = -3.63146015736456E-02
grad-res -------------------------------
 grad-res  proc    #    i    j    k   bi   bj iobc       fc ref            fc + eps           fc - eps
 grad-res  proc    #    i    j    k   bi   bj iobc      adj grad            fd grad          1 - fd/adj
(PID.TID 0000.0001) ====== Starts gradient-check number   1 (=ichknum) =======
 ph-test icomp, ncvarcomp, ichknum            1       29138           1
 ph-grd _loc: bi, bj, icomptest, ichknum            1           1           0           1
 ph-grd -->hit<--           44           2           1           1
(PID.TID 0000.0001) grdchk pos: i,j,k=   44    2    1 ; bi,bj=   1   1 ; iobc=  1 ; rec=   1
(PID.TID 0000.0001) Start initial hydrostatic pressure computation
(PID.TID 0000.0001) Pressure is predetermined for buoyancyRelation OCEANIC
(PID.TID 0000.0001) 
(PID.TID 0000.0001) // =======================================================
(PID.TID 0000.0001) // Model current state
(PID.TID 0000.0001) // =======================================================
(PID.TID 0000.0001) 
 SH   5.2214032038697837        23.296536408581801     
 NH   10.477982531836687        25.564398561832434     
 SH   5.2214032038697837        23.296536408581801     
 NH   10.477982531836687        25.564398561832434     
 SH   5.2214032038697837        23.296536408581801     
 NH   10.477982531836687        25.564398561832434     
 SH   5.2214032038697837        23.296536408581801     
 NH   10.477982531836687        25.564398561832434     
(PID.TID 0000.0001) SOLVE_FOR_PRESSURE: putPmEinXvector =    F
 cg2d: Sum(rhs),rhsMax =  -1.77635683940025E-15  7.56835956534411E+00
 SH   5.2201334211142694        23.297498128511052     
 NH   10.466538306882399        25.565240031177950     
 SH   5.2201334211142694        23.297498128511052     
 NH   10.466538306882399        25.565240031177950     
 SH   5.2201334211142694        23.297498128511052     
 NH   10.466538306882399        25.565240031177950     
 SH   5.2201334211142694        23.297498128511052     
 NH   10.466538306882399        25.565240031177950     
 cg2d: Sum(rhs),rhsMax =  -9.99200722162641E-16  8.72165931292384E+00
 SH   5.2213357119372290        23.295110577687069     
 NH   10.461108876580283        25.564424809919160     
 SH   5.2213357119372290        23.295110577687069     
 NH   10.461108876580283        25.564424809919160     
 SH   5.2213357119372290        23.295110577687069     
 NH   10.461108876580283        25.564424809919160     
 SH   5.2213357119372290        23.295110577687069     
 NH   10.461108876580283        25.564424809919160     
 cg2d: Sum(rhs),rhsMax =   9.44799793956008E-14  8.58467838113060E+00
 SH   5.2239688485844908        23.292351336608533     
 NH   10.454518373734743        25.562867117143583     
 SH   5.2239688485844908        23.292351336608533     
 NH   10.454518373734743        25.562867117143583     
 SH   5.2239688485844908        23.292351336608533     
 NH   10.454518373734743        25.562867117143583     
 SH   5.2239688485844908        23.292351336608533     
 NH   10.454518373734743        25.562867117143583     
 cg2d: Sum(rhs),rhsMax =   1.32144295506009E-13  8.57272615617930E+00
 SH   5.2277257311420726        23.291073140508388     
 NH   10.447008314171285        25.560610499865277     
 SH   5.2277257311420726        23.291073140508388     
 NH   10.447008314171285        25.560610499865277     
 SH   5.2277257311420726        23.291073140508388     
 NH   10.447008314171285        25.560610499865277     
 SH   5.2277257311420726        23.291073140508388     
 NH   10.447008314171285        25.560610499865277     
 cg2d: Sum(rhs),rhsMax =   9.19264664389630E-14  8.54161341666105E+00
 SH   5.2322015999228029        23.291719600432998     
 NH   10.438635636772801        25.558184972816491     
 SH   5.2322015999228029        23.291719600432998     
 NH   10.438635636772801        25.558184972816491     
 SH   5.2322015999228029        23.291719600432998     
 NH   10.438635636772801        25.558184972816491     
 SH   5.2322015999228029        23.291719600432998     
 NH   10.438635636772801        25.558184972816491     
 cg2d: Sum(rhs),rhsMax =   3.91908727692680E-13  8.39950932125295E+00
 SH   5.2371190216479135        23.293890928785459     
 NH   10.429513952137540        25.556431314935935     
 SH   5.2371190216479135        23.293890928785459     
 NH   10.429513952137540        25.556431314935935     
 SH   5.2371190216479135        23.293890928785459     
 NH   10.429513952137540        25.556431314935935     
 SH   5.2371190216479135        23.293890928785459     
 NH   10.429513952137540        25.556431314935935     
 cg2d: Sum(rhs),rhsMax =   3.52162743411100E-13  8.14948256555158E+00
 SH   5.2423193087370805        23.296903338236689     
 NH   10.420007772131441        25.555926925389088     
 SH   5.2423193087370805        23.296903338236689     
 NH   10.420007772131441        25.555926925389088     
 SH   5.2423193087370805        23.296903338236689     
 NH   10.420007772131441        25.555926925389088     
 SH   5.2423193087370805        23.296903338236689     
 NH   10.420007772131441        25.555926925389088     
 cg2d: Sum(rhs),rhsMax =   4.07673894642357E-13  7.83154430264378E+00
 SH   5.2477067403990532        23.300138727771355     
 NH   10.410640674948922        25.556726797592887     
 SH   5.2477067403990532        23.300138727771355     
 NH   10.410640674948922        25.556726797592887     
 SH   5.2477067403990532        23.300138727771355     
 NH   10.410640674948922        25.556726797592887     
 SH   5.2477067403990532        23.300138727771355     
 NH   10.410640674948922        25.556726797592887     
 cg2d: Sum(rhs),rhsMax =   4.86277684785819E-13  7.51067683536730E+00
 SH   5.2532016114568023        23.303203786229233     
 NH   10.401900613753526        25.558463682327272     
 SH   5.2532016114568023        23.303203786229233     
 NH   10.401900613753526        25.558463682327272     
 SH   5.2532016114568023        23.303203786229233     
 NH   10.401900613753526        25.558463682327272     
 SH   5.2532016114568023        23.303203786229233     
 NH   10.401900613753526        25.558463682327272     
 cg2d: Sum(rhs),rhsMax =   4.73843186910017E-13  7.13991400393174E+00
 SH   5.2587132598533231        23.305928924509828     
 NH   10.394075512274071        25.560599856377394     
 SH   5.2587132598533231        23.305928924509828     
 NH   10.394075512274071        25.560599856377394     
 SH   5.2587132598533231        23.305928924509828     
 NH   10.394075512274071        25.560599856377394     
 SH   5.2587132598533231        23.305928924509828     
 NH   10.394075512274071        25.560599856377394     
 cg2d: Sum(rhs),rhsMax =   5.76427794385381E-13  6.73068187485967E+00
 SH   5.2641320417674251        23.308294103880087     
 NH   10.387186104498255        25.562659909021079     
 SH   5.2641320417674251        23.308294103880087     
 NH   10.387186104498255        25.562659909021079     
 SH   5.2641320417674251        23.308294103880087     
 NH   10.387186104498255        25.562659909021079     
 SH   5.2641320417674251        23.308294103880087     
 NH   10.387186104498255        25.562659909021079     
 cg2d: Sum(rhs),rhsMax =   3.30846461338297E-13  6.29818142773258E+00
 SH   5.2693328733889757        23.310354293533237     
 NH   10.381017188766577        25.564349822055703     
 SH   5.2693328733889757        23.310354293533237     
 NH   10.381017188766577        25.564349822055703     
 SH   5.2693328733889757        23.310354293533237     
 NH   10.381017188766577        25.564349822055703     
 SH   5.2693328733889757        23.310354293533237     
 NH   10.381017188766577        25.564349822055703     
 cg2d: Sum(rhs),rhsMax =   2.74669176292264E-13  5.83429775642881E+00
 SH   5.2741832907069579        23.312192229073503     
 NH   10.375210600041441        25.565563411374967     
 SH   5.2741832907069579        23.312192229073503     
 NH   10.375210600041441        25.565563411374967     
 SH   5.2741832907069579        23.312192229073503     
 NH   10.375210600041441        25.565563411374967     
 SH   5.2741832907069579        23.312192229073503     
 NH   10.375210600041441        25.565563411374967     
 cg2d: Sum(rhs),rhsMax =   2.64677169070637E-13  5.34109689307478E+00
 SH   5.2785518418071433        23.313895030027936     
 NH   10.369372797532776        25.566322707801532     
 SH   5.2785518418071433        23.313895030027936     
 NH   10.369372797532776        25.566322707801532     
 SH   5.2785518418071433        23.313895030027936     
 NH   10.369372797532776        25.566322707801532     
 SH   5.2785518418071433        23.313895030027936     
 NH   10.369372797532776        25.566322707801532     
 cg2d: Sum(rhs),rhsMax =   2.92519480860065E-13  4.82974108988520E+00
 SH   5.2823151505597252        23.315542296964395     
 NH   10.363161182615443        25.566704400225376     
 SH   5.2823151505597252        23.315542296964395     
 NH   10.363161182615443        25.566704400225376     
 SH   5.2823151505597252        23.315542296964395     
 NH   10.363161182615443        25.566704400225376     
 SH   5.2823151505597252        23.315542296964395     
 NH   10.363161182615443        25.566704400225376     
 cg2d: Sum(rhs),rhsMax =   4.06008560105420E-13  4.29698968484238E+00
 SH   5.2853631171801680        23.317197776718956     
 NH   10.356332145521321        25.566786233813843     
 SH   5.2853631171801680        23.317197776718956     
 NH   10.356332145521321        25.566786233813843     
 SH   5.2853631171801680        23.317197776718956     
 NH   10.356332145521321        25.566786233813843     
 SH   5.2853631171801680        23.317197776718956     
 NH   10.356332145521321        25.566786233813843     
 cg2d: Sum(rhs),rhsMax =   3.96127575186256E-13  4.05871006521979E+00
 SH   5.2876022492471861        23.318903313149406     
 NH   10.348752588359332        25.566623168925787     
 SH   5.2876022492471861        23.318903313149406     
 NH   10.348752588359332        25.566623168925787     
 SH   5.2876022492471861        23.318903313149406     
 NH   10.348752588359332        25.566623168925787     
 SH   5.2876022492471861        23.318903313149406     
 NH   10.348752588359332        25.566623168925787     
 cg2d: Sum(rhs),rhsMax =   3.18411963462495E-13  4.66966124086000E+00
 SH   5.2889573486877453        23.320676823181429     
 NH   10.340383266724871        25.566250030887431     
 SH   5.2889573486877453        23.320676823181429     
 NH   10.340383266724871        25.566250030887431     
 SH   5.2889573486877453        23.320676823181429     
 NH   10.340383266724871        25.566250030887431     
 SH   5.2889573486877453        23.320676823181429     
 NH   10.340383266724871        25.566250030887431     
 cg2d: Sum(rhs),rhsMax =   3.15081294388619E-13  5.21311960587705E+00
 SH   5.2893719631140925        23.322515272606552     
 NH   10.331249551323765        25.565687592902577     
 SH   5.2893719631140925        23.322515272606552     
 NH   10.331249551323765        25.565687592902577     
 SH   5.2893719631140925        23.322515272606552     
 NH   10.331249551323765        25.565687592902577     
 SH   5.2893719631140925        23.322515272606552     
 NH   10.331249551323765        25.565687592902577     
 cg2d: Sum(rhs),rhsMax =   2.26485497023532E-13  5.68011097789144E+00
(PID.TID 0000.0001) Did not write pickup because writePickupAtEnd = FALSE
(PID.TID 0000.0001)   early fc =  0.000000000000000D+00
 --> objf_test(bi,bj)        =  0.183284988614302D+06
 --> objf_atl(bi,bj)       =  0.000000000000000D+00
 --> objf_test(bi,bj)        =  0.201731662259720D+06
 --> objf_atl(bi,bj)       =  0.000000000000000D+00
 --> objf_test(bi,bj)        =  0.160077340960486D+06
 --> objf_atl(bi,bj)       =  0.000000000000000D+00
 --> objf_test(bi,bj)        =  0.236780858954272D+06
 --> objf_atl(bi,bj)       = -0.363146017203859D-01
(PID.TID 0000.0001)   local fc = -0.363146017203859D-01
(PID.TID 0000.0001)  global fc = -0.363146017203859D-01
(PID.TID 0000.0001) grdchk perturb(+)fc: fcpertplus  = -3.63146017203859E-02
(PID.TID 0000.0001) Start initial hydrostatic pressure computation
(PID.TID 0000.0001) Pressure is predetermined for buoyancyRelation OCEANIC
(PID.TID 0000.0001) 
(PID.TID 0000.0001) // =======================================================
(PID.TID 0000.0001) // Model current state
(PID.TID 0000.0001) // =======================================================
(PID.TID 0000.0001) 
 SH   5.2213752318418187        23.296536408581801     
 NH   10.477982531836687        25.564398561832434     
 SH   5.2213752318418187        23.296536408581801     
 NH   10.477982531836687        25.564398561832434     
 SH   5.2213752318418187        23.296536408581801     
 NH   10.477982531836687        25.564398561832434     
 SH   5.2213752318418187        23.296536408581801     
 NH   10.477982531836687        25.564398561832434     
(PID.TID 0000.0001) SOLVE_FOR_PRESSURE: putPmEinXvector =    F
 cg2d: Sum(rhs),rhsMax =  -1.77635683940025E-15  7.56835956534411E+00
 SH   5.2201055417050384        23.297498092456408     
 NH   10.466538306882399        25.565240031177950     
 SH   5.2201055417050384        23.297498092456408     
 NH   10.466538306882399        25.565240031177950     
 SH   5.2201055417050384        23.297498092456408     
 NH   10.466538306882399        25.565240031177950     
 SH   5.2201055417050384        23.297498092456408     
 NH   10.466538306882399        25.565240031177950     
 cg2d: Sum(rhs),rhsMax =   1.73194791841524E-14  8.72165931293450E+00
 SH   5.2213077618590091        23.295110505880132     
 NH   10.461108876579431        25.564424809909781     
 SH   5.2213077618590091        23.295110505880132     
 NH   10.461108876579431        25.564424809909781     
 SH   5.2213077618590091        23.295110505880132     
 NH   10.461108876579431        25.564424809909781     
 SH   5.2213077618590091        23.295110505880132     
 NH   10.461108876579431        25.564424809909781     
 cg2d: Sum(rhs),rhsMax =   1.09023901018190E-13  8.58467838126355E+00
 SH   5.2239407913100990        23.292351228921746     
 NH   10.454518373726330        25.562867117073779     
 SH   5.2239407913100990        23.292351228921746     
 NH   10.454518373726330        25.562867117073779     
 SH   5.2239407913100990        23.292351228921746     
 NH   10.454518373726330        25.562867117073779     
 SH   5.2239407913100990        23.292351228921746     
 NH   10.454518373726330        25.562867117073779     
 cg2d: Sum(rhs),rhsMax =   1.53196899610464E-13  8.57272615674960E+00
 SH   5.2276976432972333        23.291072996868650     
 NH   10.447008314134507        25.560610499661777     
 SH   5.2276976432972333        23.291072996868650     
 NH   10.447008314134507        25.560610499661777     
 SH   5.2276976432972333        23.291072996868650     
 NH   10.447008314134507        25.560610499661777     
 SH   5.2276976432972333        23.291072996868650     
 NH   10.447008314134507        25.560610499661777     
 cg2d: Sum(rhs),rhsMax =   9.53681578153009E-14  8.54161341832720E+00
 SH   5.2321735887424552        23.291719421006349     
 NH   10.438635636667925        25.558184972392155     
 SH   5.2321735887424552        23.291719421006349     
 NH   10.438635636667925        25.558184972392155     
 SH   5.2321735887424552        23.291719421006349     
 NH   10.438635636667925        25.558184972392155     
 SH   5.2321735887424552        23.291719421006349     
 NH   10.438635636667925        25.558184972392155     
 cg2d: Sum(rhs),rhsMax =   3.90132370853280E-13  8.39950932500907E+00
 SH   5.2370911506819766        23.293890713903977     
 NH   10.429513951914203        25.556431314245174     
 SH   5.2370911506819766        23.293890713903977     
 NH   10.429513951914203        25.556431314245174     
 SH   5.2370911506819766        23.293890713903977     
 NH   10.429513951914203        25.556431314245174     
 SH   5.2370911506819766        23.293890713903977     
 NH   10.429513951914203        25.556431314245174     
 cg2d: Sum(rhs),rhsMax =   3.45057316053499E-13  8.14948257241467E+00
 SH   5.2422915890216473        23.296903088235069     
 NH   10.420007771751898        25.555926924468736     
 SH   5.2422915890216473        23.296903088235069     
 NH   10.420007771751898        25.555926924468736     
 SH   5.2422915890216473        23.296903088235069     
 NH   10.420007771751898        25.555926924468736     
 SH   5.2422915890216473        23.296903088235069     
 NH   10.420007771751898        25.555926924468736     
 cg2d: Sum(rhs),rhsMax =   3.98792110445356E-13  7.83154431311965E+00
 SH   5.2476791580584177        23.300138442918637     
 NH   10.410640674414594        25.556726796552198     
 SH   5.2476791580584177        23.300138442918637     
 NH   10.410640674414594        25.556726796552198     
 SH   5.2476791580584177        23.300138442918637     
 NH   10.410640674414594        25.556726796552198     
 SH   5.2476791580584177        23.300138442918637     
 NH   10.410640674414594        25.556726796552198     
 cg2d: Sum(rhs),rhsMax =   4.70290473231216E-13  7.51067684899036E+00
 SH   5.2531741518651529        23.303203466757509     
 NH   10.401900613116482        25.558463681295393     
 SH   5.2531741518651529        23.303203466757509     
 NH   10.401900613116482        25.558463681295393     
 SH   5.2531741518651529        23.303203466757509     
 NH   10.401900613116482        25.558463681295393     
 SH   5.2531741518651529        23.303203466757509     
 NH   10.401900613116482        25.558463681295393     
 cg2d: Sum(rhs),rhsMax =   4.66737759552416E-13  7.13991401922172E+00
 SH   5.2586859166581803        23.305928570660512     
 NH   10.394075511622759        25.560599855447265     
 SH   5.2586859166581803        23.305928570660512     
 NH   10.394075511622759        25.560599855447265     
 SH   5.2586859166581803        23.305928570660512     
 NH   10.394075511622759        25.560599855447265     
 SH   5.2586859166581803        23.305928570660512     
 NH   10.394075511622759        25.560599855447265     
 cg2d: Sum(rhs),rhsMax =   5.53779244683028E-13  6.73068188977861E+00
 SH   5.2641048155165322        23.308293715923810     
 NH   10.387186103925728        25.562659908223509     
 SH   5.2641048155165322        23.308293715923810     
 NH   10.387186103925728        25.562659908223509     
 SH   5.2641048155165322        23.308293715923810     
 NH   10.387186103925728        25.562659908223509     
 SH   5.2641048155165322        23.308293715923810     
 NH   10.387186103925728        25.562659908223509     
 cg2d: Sum(rhs),rhsMax =   2.96651592179842E-13  6.29818144040879E+00
 SH   5.2693057671569932        23.310353871762629     
 NH   10.381017188338376        25.564349821368353     
 SH   5.2693057671569932        23.310353871762629     
 NH   10.381017188338376        25.564349821368353     
 SH   5.2693057671569932        23.310353871762629     
 NH   10.381017188338376        25.564349821368353     
 SH   5.2693057671569932        23.310353871762629     
 NH   10.381017188338376        25.564349821368353     
 cg2d: Sum(rhs),rhsMax =   2.52242671194836E-13  5.83429776571359E+00
 SH   5.2741563068294681        23.312191773785514     
 NH   10.375210599778711        25.565563410748609     
 SH   5.2741563068294681        23.312191773785514     
 NH   10.375210599778711        25.565563410748609     
 SH   5.2741563068294681        23.312191773785514     
 NH   10.375210599778711        25.565563410748609     
 SH   5.2741563068294681        23.312191773785514     
 NH   10.375210599778711        25.565563410748609     
 cg2d: Sum(rhs),rhsMax =   2.47135645281560E-13  5.34109689874115E+00
 SH   5.2785249804808814        23.313894541508205     
 NH   10.369372797414144        25.566322707184270     
 SH   5.2785249804808814        23.313894541508205     
 NH   10.369372797414144        25.566322707184270     
 SH   5.2785249804808814        23.313894541508205     
 NH   10.369372797414144        25.566322707184270     
 SH   5.2785249804808814        23.313894541508205     
 NH   10.369372797414144        25.566322707184270     
 cg2d: Sum(rhs),rhsMax =   3.07084219164366E-13  4.82974109243156E+00
 SH   5.2822884096724465        23.315541775478380     
 NH   10.363161182592819        25.566704399574633     
 SH   5.2822884096724465        23.315541775478380     
 NH   10.363161182592819        25.566704399574633     
 SH   5.2822884096724465        23.315541775478380     
 NH   10.363161182592819        25.566704399574633     
 SH   5.2822884096724465        23.315541775478380     
 NH   10.363161182592819        25.566704399574633     
 cg2d: Sum(rhs),rhsMax =   3.67483821150927E-13  4.29698968507572E+00
 SH   5.2853364927184430        23.317197222509265     
 NH   10.356332145538147        25.566786233097673     
 SH   5.2853364927184430        23.317197222509265     
 NH   10.356332145538147        25.566786233097673     
 SH   5.2853364927184430        23.317197222509265     
 NH   10.356332145538147        25.566786233097673     
 SH   5.2853364927184430        23.317197222509265     
 NH   10.356332145538147        25.566786233097673     
 cg2d: Sum(rhs),rhsMax =   3.94129173741931E-13  4.05871006361078E+00
 SH   5.2875757359503837        23.318902726438182     
 NH   10.348752588364960        25.566623168119065     
 SH   5.2875757359503837        23.318902726438182     
 NH   10.348752588364960        25.566623168119065     
 SH   5.2875757359503837        23.318902726438182     
 NH   10.348752588364960        25.566623168119065     
 SH   5.2875757359503837        23.318902726438182     
 NH   10.348752588364960        25.566623168119065     
 cg2d: Sum(rhs),rhsMax =   3.29958282918597E-13  4.66966123840443E+00
 SH   5.2889309407999008        23.320676204174731     
 NH   10.340383266682181        25.566250029968501     
 SH   5.2889309407999008        23.320676204174731     
 NH   10.340383266682181        25.566250029968501     
 SH   5.2889309407999008        23.320676204174731     
 NH   10.340383266682181        25.566250029968501     
 SH   5.2889309407999008        23.320676204174731     
 NH   10.340383266682181        25.566250029968501     
 cg2d: Sum(rhs),rhsMax =   3.11750625314744E-13  5.21311960297290E+00
 SH   5.2893456551036593        23.322514621499693     
 NH   10.331249551210760        25.565687591852281     
 SH   5.2893456551036593        23.322514621499693     
 NH   10.331249551210760        25.565687591852281     
 SH   5.2893456551036593        23.322514621499693     
 NH   10.331249551210760        25.565687591852281     
 SH   5.2893456551036593        23.322514621499693     
 NH   10.331249551210760        25.565687591852281     
 cg2d: Sum(rhs),rhsMax =   2.52686760404686E-13  5.68011097506260E+00
(PID.TID 0000.0001) Did not write pickup because writePickupAtEnd = FALSE
(PID.TID 0000.0001)   early fc =  0.000000000000000D+00
 --> objf_test(bi,bj)        =  0.183285005643807D+06
 --> objf_atl(bi,bj)       =  0.000000000000000D+00
 --> objf_test(bi,bj)        =  0.201731658866428D+06
 --> objf_atl(bi,bj)       =  0.000000000000000D+00
 --> objf_test(bi,bj)        =  0.160077340955274D+06
 --> objf_atl(bi,bj)       =  0.000000000000000D+00
 --> objf_test(bi,bj)        =  0.236780858924543D+06
 --> objf_atl(bi,bj)       = -0.363146014271106D-01
(PID.TID 0000.0001)   local fc = -0.363146014271106D-01
(PID.TID 0000.0001)  global fc = -0.363146014271106D-01
(PID.TID 0000.0001) grdchk perturb(-)fc: fcpertminus = -3.63146014271106E-02
grad-res -------------------------------
 grad-res     0    1   44    2    1    1    1    1  -3.63146015736E-02 -3.63146017204E-02 -3.63146014271E-02
 grad-res     0    1    1    1    0    1    1    1  -1.46638001762E-08 -1.46637629123E-08  2.54122306254E-06
(PID.TID 0000.0001)  ADM  ref_cost_function      = -3.63146015736456E-02
(PID.TID 0000.0001)  ADM  adjoint_gradient       = -1.46638001762464E-08
(PID.TID 0000.0001)  ADM  finite-diff_grad       = -1.46637629122592E-08
(PID.TID 0000.0001) ====== End of gradient-check number   1 (ierr=  0) =======
(PID.TID 0000.0001) ====== Starts gradient-check number   2 (=ichknum) =======
 ph-test icomp, ncvarcomp, ichknum            2       29138           2
 ph-grd _loc: bi, bj, icomptest, ichknum            1           1           1           2
 ph-grd -->hit<--           45           2           1           1
(PID.TID 0000.0001) grdchk pos: i,j,k=   45    2    1 ; bi,bj=   1   1 ; iobc=  1 ; rec=   1
(PID.TID 0000.0001) Start initial hydrostatic pressure computation
(PID.TID 0000.0001) Pressure is predetermined for buoyancyRelation OCEANIC
(PID.TID 0000.0001) 
(PID.TID 0000.0001) // =======================================================
(PID.TID 0000.0001) // Model current state
(PID.TID 0000.0001) // =======================================================
(PID.TID 0000.0001) 
 SH   5.2214032038697837        23.296536408581801     
 NH   10.477982531836687        25.564398561832434     
 SH   5.2214032038697837        23.296536408581801     
 NH   10.477982531836687        25.564398561832434     
 SH   5.2214032038697837        23.296536408581801     
 NH   10.477982531836687        25.564398561832434     
 SH   5.2214032038697837        23.296536408581801     
 NH   10.477982531836687        25.564398561832434     
(PID.TID 0000.0001) SOLVE_FOR_PRESSURE: putPmEinXvector =    F
 cg2d: Sum(rhs),rhsMax =  -2.66453525910038E-15  7.56835956534411E+00
 SH   5.2201334270583857        23.297498128511052     
 NH   10.466538306882399        25.565240031177950     
 SH   5.2201334270583857        23.297498128511052     
 NH   10.466538306882399        25.565240031177950     
 SH   5.2201334270583857        23.297498128511052     
 NH   10.466538306882399        25.565240031177950     
 SH   5.2201334270583857        23.297498128511052     
 NH   10.466538306882399        25.565240031177950     
 cg2d: Sum(rhs),rhsMax =   4.99600361081320E-15  8.72165931292490E+00
 SH   5.2213357268121854        23.295110577694288     
 NH   10.461108876580226        25.564424809918648     
 SH   5.2213357268121854        23.295110577694288     
 NH   10.461108876580226        25.564424809918648     
 SH   5.2213357268121854        23.295110577694288     
 NH   10.461108876580226        25.564424809918648     
 SH   5.2213357268121854        23.295110577694288     
 NH   10.461108876580226        25.564424809918648     
 cg2d: Sum(rhs),rhsMax =   9.01501095995627E-14  8.58467838114011E+00
 SH   5.2239688749775723        23.292351336630361     
 NH   10.454518373734174        25.562867117140570     
 SH   5.2239688749775723        23.292351336630361     
 NH   10.454518373734174        25.562867117140570     
 SH   5.2239688749775723        23.292351336630361     
 NH   10.454518373734174        25.562867117140570     
 SH   5.2239688749775723        23.292351336630361     
 NH   10.454518373734174        25.562867117140570     
 cg2d: Sum(rhs),rhsMax =   1.28369537222284E-13  8.57272615622146E+00
 SH   5.2277257682846425        23.291073140563185     
 NH   10.447008314169068        25.560610499856182     
 SH   5.2277257682846425        23.291073140563185     
 NH   10.447008314169068        25.560610499856182     
 SH   5.2277257682846425        23.291073140563185     
 NH   10.447008314169068        25.560610499856182     
 SH   5.2277257682846425        23.291073140563185     
 NH   10.447008314169068        25.560610499856182     
 cg2d: Sum(rhs),rhsMax =   9.01501095995627E-14  8.54161341678483E+00
 SH   5.2322016488840859        23.291719600543388     
 NH   10.438635636766776        25.558184972798074     
 SH   5.2322016488840859        23.291719600543388     
 NH   10.438635636766776        25.558184972798074     
 SH   5.2322016488840859        23.291719600543388     
 NH   10.438635636766776        25.558184972798074     
 SH   5.2322016488840859        23.291719600543388     
 NH   10.438635636766776        25.558184972798074     
 cg2d: Sum(rhs),rhsMax =   3.62598839842576E-13  8.39950932152240E+00
 SH   5.2371190841425914        23.293890928975486     
 NH   10.429513952125603        25.556431314908650     
 SH   5.2371190841425914        23.293890928975486     
 NH   10.429513952125603        25.556431314908650     
 SH   5.2371190841425914        23.293890928975486     
 NH   10.429513952125603        25.556431314908650     
 SH   5.2371190841425914        23.293890928975486     
 NH   10.429513952125603        25.556431314908650     
 cg2d: Sum(rhs),rhsMax =   2.83773005094190E-13  8.14948256601152E+00
 SH   5.2423193858242598        23.296903338525624     
 NH   10.420007772113195        25.555926925357767     
 SH   5.2423193858242598        23.296903338525624     
 NH   10.420007772113195        25.555926925357767     
 SH   5.2423193858242598        23.296903338525624     
 NH   10.420007772113195        25.555926925357767     
 SH   5.2423193858242598        23.296903338525624     
 NH   10.420007772113195        25.555926925357767     
 cg2d: Sum(rhs),rhsMax =   3.65485419706602E-13  7.83154430327767E+00
 SH   5.2477068322949094        23.300138728174204     
 NH   10.410640674926867        25.556726797564352     
 SH   5.2477068322949094        23.300138728174204     
 NH   10.410640674926867        25.556726797564352     
 SH   5.2477068322949094        23.300138728174204     
 NH   10.410640674926867        25.556726797564352     
 SH   5.2477068322949094        23.300138728174204     
 NH   10.410640674926867        25.556726797564352     
 cg2d: Sum(rhs),rhsMax =   3.99236199655206E-13  7.51067683607625E+00
 SH   5.2532017179906916        23.303203786760150     
 NH   10.401900613732892        25.558463682306979     
 SH   5.2532017179906916        23.303203786760150     
 NH   10.401900613732892        25.558463682306979     
 SH   5.2532017179906916        23.303203786760150     
 NH   10.401900613732892        25.558463682306979     
 SH   5.2532017179906916        23.303203786760150     
 NH   10.401900613732892        25.558463682306979     
 cg2d: Sum(rhs),rhsMax =   4.20552481728009E-13  7.13991400455602E+00
 SH   5.2587133806944735        23.305928925184901     
 NH   10.394075512260827        25.560599856366935     
 SH   5.2587133806944735        23.305928925184901     
 NH   10.394075512260827        25.560599856366935     
 SH   5.2587133806944735        23.305928925184901     
 NH   10.394075512260827        25.560599856366935     
 SH   5.2587133806944735        23.305928925184901     
 NH   10.394075512260827        25.560599856366935     
 cg2d: Sum(rhs),rhsMax =   5.16919840265473E-13  6.73068187523564E+00
 SH   5.2641321764664895        23.308294104717334     
 NH   10.387186104496436        25.562659909018862     
 SH   5.2641321764664895        23.308294104717334     
 NH   10.387186104496436        25.562659909018862     
 SH   5.2641321764664895        23.308294104717334     
 NH   10.387186104496436        25.562659909018862     
 SH   5.2641321764664895        23.308294104717334     
 NH   10.387186104496436        25.562659909018862     
 cg2d: Sum(rhs),rhsMax =   2.61124455391837E-13  6.29818142775229E+00
 SH   5.2693330213602962        23.310354294551189     
 NH   10.381017188777037        25.564349822059114     
 SH   5.2693330213602962        23.310354294551189     
 NH   10.381017188777037        25.564349822059114     
 SH   5.2693330213602962        23.310354294551189     
 NH   10.381017188777037        25.564349822059114     
 SH   5.2693330213602962        23.310354294551189     
 NH   10.381017188777037        25.564349822059114     
 cg2d: Sum(rhs),rhsMax =   2.05391259555654E-13  5.83429775607141E+00
 SH   5.2741834512269747        23.312192230290009     
 NH   10.375210600061791        25.565563411381845     
 SH   5.2741834512269747        23.312192230290009     
 NH   10.375210600061791        25.565563411381845     
 SH   5.2741834512269747        23.312192230290009     
 NH   10.375210600061791        25.565563411381845     
 SH   5.2741834512269747        23.312192230290009     
 NH   10.375210600061791        25.565563411381845     
 cg2d: Sum(rhs),rhsMax =   1.72750702631674E-13  5.34109689240040E+00
 SH   5.2785520140438393        23.313895031459424     
 NH   10.369372797558469        25.566322707810798     
 SH   5.2785520140438393        23.313895031459424     
 NH   10.369372797558469        25.566322707810798     
 SH   5.2785520140438393        23.313895031459424     
 NH   10.369372797558469        25.566322707810798     
 SH   5.2785520140438393        23.313895031459424     
 NH   10.369372797558469        25.566322707810798     
 cg2d: Sum(rhs),rhsMax =   2.30537811063414E-13  4.82974108900187E+00
 SH   5.2823153336153155        23.315542298625701     
 NH   10.363161182641477        25.566704400236631     
 SH   5.2823153336153155        23.315542298625701     
 NH   10.363161182641477        25.566704400236631     
 SH   5.2823153336153155        23.315542298625701     
 NH   10.363161182641477        25.566704400236631     
 SH   5.2823153336153155        23.315542298625701     
 NH   10.363161182641477        25.566704400236631     
 cg2d: Sum(rhs),rhsMax =   3.05644398679306E-13  4.29698968386742E+00
 SH   5.2853633101304922        23.317197778623097     
 NH   10.356332145543604        25.566786233826690     
 SH   5.2853633101304922        23.317197778623097     
 NH   10.356332145543604        25.566786233826690     
 SH   5.2853633101304922        23.317197778623097     
 NH   10.356332145543604        25.566786233826690     
 SH   5.2853633101304922        23.317197778623097     
 NH   10.356332145543604        25.566786233826690     
 cg2d: Sum(rhs),rhsMax =   2.57571741713036E-13  4.05871006445466E+00
 SH   5.2876024511721766        23.318903315307864     
 NH   10.348752588375078        25.566623168939373     
 SH   5.2876024511721766        23.318903315307864     
 NH   10.348752588375078        25.566623168939373     
 SH   5.2876024511721766        23.318903315307864     
 NH   10.348752588375078        25.566623168939373     
 SH   5.2876024511721766        23.318903315307864     
 NH   10.348752588375078        25.566623168939373     
 cg2d: Sum(rhs),rhsMax =   2.19824158875781E-13  4.66966124017941E+00
 SH   5.2889575586932551        23.320676825604096     
 NH   10.340383266732545        25.566250030900278     
 SH   5.2889575586932551        23.320676825604096     
 NH   10.340383266732545        25.566250030900278     
 SH   5.2889575586932551        23.320676825604096     
 NH   10.340383266732545        25.566250030900278     
 SH   5.2889575586932551        23.320676825604096     
 NH   10.340383266732545        25.566250030900278     
 cg2d: Sum(rhs),rhsMax =   2.30482299912182E-13  5.21311960533246E+00
 SH   5.2893721803476410        23.322515275302010     
 NH   10.331249551323197        25.565687592913321     
 SH   5.2893721803476410        23.322515275302010     
 NH   10.331249551323197        25.565687592913321     
 SH   5.2893721803476410        23.322515275302010     
 NH   10.331249551323197        25.565687592913321     
 SH   5.2893721803476410        23.322515275302010     
 NH   10.331249551323197        25.565687592913321     
 cg2d: Sum(rhs),rhsMax =   1.62980740014973E-13  5.68011097752852E+00
(PID.TID 0000.0001) Did not write pickup because writePickupAtEnd = FALSE
(PID.TID 0000.0001)   early fc =  0.000000000000000D+00
 --> objf_test(bi,bj)        =  0.183284988284406D+06
 --> objf_atl(bi,bj)       =  0.000000000000000D+00
 --> objf_test(bi,bj)        =  0.201731661881306D+06
 --> objf_atl(bi,bj)       =  0.000000000000000D+00
 --> objf_test(bi,bj)        =  0.160077340961210D+06
 --> objf_atl(bi,bj)       =  0.000000000000000D+00
 --> objf_test(bi,bj)        =  0.236780858953756D+06
 --> objf_atl(bi,bj)       = -0.363146017045816D-01
(PID.TID 0000.0001)   local fc = -0.363146017045816D-01
(PID.TID 0000.0001)  global fc = -0.363146017045816D-01
(PID.TID 0000.0001) grdchk perturb(+)fc: fcpertplus  = -3.63146017045816E-02
(PID.TID 0000.0001) Start initial hydrostatic pressure computation
(PID.TID 0000.0001) Pressure is predetermined for buoyancyRelation OCEANIC
(PID.TID 0000.0001) 
(PID.TID 0000.0001) // =======================================================
(PID.TID 0000.0001) // Model current state
(PID.TID 0000.0001) // =======================================================
(PID.TID 0000.0001) 
 SH   5.2213752318418187        23.296536408581801     
 NH   10.477982531836687        25.564398561832434     
 SH   5.2213752318418187        23.296536408581801     
 NH   10.477982531836687        25.564398561832434     
 SH   5.2213752318418187        23.296536408581801     
 NH   10.477982531836687        25.564398561832434     
 SH   5.2213752318418187        23.296536408581801     
 NH   10.477982531836687        25.564398561832434     
(PID.TID 0000.0001) SOLVE_FOR_PRESSURE: putPmEinXvector =    F
 cg2d: Sum(rhs),rhsMax =  -2.66453525910038E-15  7.56835956534411E+00
 SH   5.2201055357530208        23.297498092456408     
 NH   10.466538306882399        25.565240031177950     
 SH   5.2201055357530208        23.297498092456408     
 NH   10.466538306882399        25.565240031177950     
 SH   5.2201055357530208        23.297498092456408     
 NH   10.466538306882399        25.565240031177950     
 SH   5.2201055357530208        23.297498092456408     
 NH   10.466538306882399        25.565240031177950     
 cg2d: Sum(rhs),rhsMax =   8.88178419700125E-15  8.72165931293344E+00
 SH   5.2213077469803579        23.295110505872913     
 NH   10.461108876579488        25.564424809910292     
 SH   5.2213077469803579        23.295110505872913     
 NH   10.461108876579488        25.564424809910292     
 SH   5.2213077469803579        23.295110505872913     
 NH   10.461108876579488        25.564424809910292     
 SH   5.2213077469803579        23.295110505872913     
 NH   10.461108876579488        25.564424809910292     
 cg2d: Sum(rhs),rhsMax =   1.16684439888104E-13  8.58467838125407E+00
 SH   5.2239407649191207        23.292351228899918     
 NH   10.454518373726842        25.562867117076792     
 SH   5.2239407649191207        23.292351228899918     
 NH   10.454518373726842        25.562867117076792     
 SH   5.2239407649191207        23.292351228899918     
 NH   10.454518373726842        25.562867117076792     
 SH   5.2239407649191207        23.292351228899918     
 NH   10.454518373726842        25.562867117076792     
 cg2d: Sum(rhs),rhsMax =   1.69600444799300E-13  8.57272615670760E+00
 SH   5.2276976061628488        23.291072996813853     
 NH   10.447008314136724        25.560610499670872     
 SH   5.2276976061628488        23.291072996813853     
 NH   10.447008314136724        25.560610499670872     
 SH   5.2276976061628488        23.291072996813853     
 NH   10.447008314136724        25.560610499670872     
 SH   5.2276976061628488        23.291072996813853     
 NH   10.447008314136724        25.560610499670872     
 cg2d: Sum(rhs),rhsMax =   1.05138120432002E-13  8.54161341820363E+00
 SH   5.2321735397961788        23.291719420895845     
 NH   10.438635636673951        25.558184972410572     
 SH   5.2321735397961788        23.291719420895845     
 NH   10.438635636673951        25.558184972410572     
 SH   5.2321735397961788        23.291719420895845     
 NH   10.438635636673951        25.558184972410572     
 SH   5.2321735397961788        23.291719420895845     
 NH   10.438635636673951        25.558184972410572     
 cg2d: Sum(rhs),rhsMax =   4.12336831345783E-13  8.39950932473998E+00
 SH   5.2370910882088424        23.293890713713949     
 NH   10.429513951926140        25.556431314272515     
 SH   5.2370910882088424        23.293890713713949     
 NH   10.429513951926140        25.556431314272515     
 SH   5.2370910882088424        23.293890713713949     
 NH   10.429513951926140        25.556431314272515     
 SH   5.2370910882088424        23.293890713713949     
 NH   10.429513951926140        25.556431314272515     
 cg2d: Sum(rhs),rhsMax =   3.55271367880050E-13  8.14948257195543E+00
 SH   5.2422915119608433        23.296903087946134     
 NH   10.420007771770088        25.555926924500000     
 SH   5.2422915119608433        23.296903087946134     
 NH   10.420007771770088        25.555926924500000     
 SH   5.2422915119608433        23.296903087946134     
 NH   10.420007771770088        25.555926924500000     
 SH   5.2422915119608433        23.296903087946134     
 NH   10.420007771770088        25.555926924500000     
 cg2d: Sum(rhs),rhsMax =   4.11226608321158E-13  7.83154431248686E+00
 SH   5.2476790661916652        23.300138442515902     
 NH   10.410640674436593        25.556726796580620     
 SH   5.2476790661916652        23.300138442515902     
 NH   10.410640674436593        25.556726796580620     
 SH   5.2476790661916652        23.300138442515902     
 NH   10.410640674436593        25.556726796580620     
 SH   5.2476790661916652        23.300138442515902     
 NH   10.410640674436593        25.556726796580620     
 cg2d: Sum(rhs),rhsMax =   4.53859172466764E-13  7.51067684828280E+00
 SH   5.2531740453604243        23.303203466226705     
 NH   10.401900613137059        25.558463681315686     
 SH   5.2531740453604243        23.303203466226705     
 NH   10.401900613137059        25.558463681315686     
 SH   5.2531740453604243        23.303203466226705     
 NH   10.401900613137059        25.558463681315686     
 SH   5.2531740453604243        23.303203466226705     
 NH   10.401900613137059        25.558463681315686     
 cg2d: Sum(rhs),rhsMax =   4.84945417156268E-13  7.13991401859856E+00
 SH   5.2586857958432347        23.305928569985554     
 NH   10.394075511636061        25.560599855457724     
 SH   5.2586857958432347        23.305928569985554     
 NH   10.394075511636061        25.560599855457724     
 SH   5.2586857958432347        23.305928569985554     
 NH   10.394075511636061        25.560599855457724     
 SH   5.2586857958432347        23.305928569985554     
 NH   10.394075511636061        25.560599855457724     
 cg2d: Sum(rhs),rhsMax =   5.84421400162682E-13  6.73068188940343E+00
 SH   5.2641046808377610        23.308293715086734     
 NH   10.387186103927547        25.562659908225669     
 SH   5.2641046808377610        23.308293715086734     
 NH   10.387186103927547        25.562659908225669     
 SH   5.2641046808377610        23.308293715086734     
 NH   10.387186103927547        25.562659908225669     
 SH   5.2641046808377610        23.308293715086734     
 NH   10.387186103927547        25.562659908225669     
 cg2d: Sum(rhs),rhsMax =   3.31290550548147E-13  6.29818144038910E+00
 SH   5.2693056191969845        23.310353870744848     
 NH   10.381017188327917        25.564349821364942     
 SH   5.2693056191969845        23.310353870744848     
 NH   10.381017188327917        25.564349821364942     
 SH   5.2693056191969845        23.310353870744848     
 NH   10.381017188327917        25.564349821364942     
 SH   5.2693056191969845        23.310353870744848     
 NH   10.381017188327917        25.564349821364942     
 cg2d: Sum(rhs),rhsMax =   2.85993451143440E-13  5.83429776607055E+00
 SH   5.2741561463089965        23.312191772569236     
 NH   10.375210599758361        25.565563410741731     
 SH   5.2741561463089965        23.312191772569236     
 NH   10.375210599758361        25.565563410741731     
 SH   5.2741561463089965        23.312191772569236     
 NH   10.375210599758361        25.565563410741731     
 SH   5.2741561463089965        23.312191772569236     
 NH   10.375210599758361        25.565563410741731     
 cg2d: Sum(rhs),rhsMax =   2.47024622979097E-13  5.34109689941450E+00
 SH   5.2785248082293492        23.313894540076888     
 NH   10.369372797388507        25.566322707175004     
 SH   5.2785248082293492        23.313894540076888     
 NH   10.369372797388507        25.566322707175004     
 SH   5.2785248082293492        23.313894540076888     
 NH   10.369372797388507        25.566322707175004     
 SH   5.2785248082293492        23.313894540076888     
 NH   10.369372797388507        25.566322707175004     
 cg2d: Sum(rhs),rhsMax =   2.68705196981855E-13  4.82974109331373E+00
 SH   5.2822882265853082        23.315541773817245     
 NH   10.363161182566841        25.566704399563378     
 SH   5.2822882265853082        23.315541773817245     
 NH   10.363161182566841        25.566704399563378     
 SH   5.2822882265853082        23.315541773817245     
 NH   10.363161182566841        25.566704399563378     
 SH   5.2822882265853082        23.315541773817245     
 NH   10.363161182566841        25.566704399563378     
 cg2d: Sum(rhs),rhsMax =   3.91575660785293E-13  4.29698968604939E+00
 SH   5.2853362997178124        23.317197220605237     
 NH   10.356332145515864        25.566786233084827     
 SH   5.2853362997178124        23.317197220605237     
 NH   10.356332145515864        25.566786233084827     
 SH   5.2853362997178124        23.317197220605237     
 NH   10.356332145515864        25.566786233084827     
 SH   5.2853362997178124        23.317197220605237     
 NH   10.356332145515864        25.566786233084827     
 cg2d: Sum(rhs),rhsMax =   4.11670697531008E-13  4.05871006437479E+00
 SH   5.2875755339544526        23.318902724279781     
 NH   10.348752588349271        25.566623168105480     
 SH   5.2875755339544526        23.318902724279781     
 NH   10.348752588349271        25.566623168105480     
 SH   5.2875755339544526        23.318902724279781     
 NH   10.348752588349271        25.566623168105480     
 SH   5.2875755339544526        23.318902724279781     
 NH   10.348752588349271        25.566623168105480     
 cg2d: Sum(rhs),rhsMax =   3.06199510191618E-13  4.66966123908442E+00
 SH   5.2889307307013382        23.320676201752008     
 NH   10.340383266674451        25.566250029955654     
 SH   5.2889307307013382        23.320676201752008     
 NH   10.340383266674451        25.566250029955654     
 SH   5.2889307307013382        23.320676201752008     
 NH   10.340383266674451        25.566250029955654     
 SH   5.2889307307013382        23.320676201752008     
 NH   10.340383266674451        25.566250029955654     
 cg2d: Sum(rhs),rhsMax =   2.92654789291191E-13  5.21311960351698E+00
 SH   5.2893454377538092        23.322514618804064     
 NH   10.331249551211386        25.565687591841538     
 SH   5.2893454377538092        23.322514618804064     
 NH   10.331249551211386        25.565687591841538     
 SH   5.2893454377538092        23.322514618804064     
 NH   10.331249551211386        25.565687591841538     
 SH   5.2893454377538092        23.322514618804064     
 NH   10.331249551211386        25.565687591841538     
 cg2d: Sum(rhs),rhsMax =   2.36477504245158E-13  5.68011097542547E+00
(PID.TID 0000.0001) Did not write pickup because writePickupAtEnd = FALSE
(PID.TID 0000.0001)   early fc =  0.000000000000000D+00
 --> objf_test(bi,bj)        =  0.183285005962317D+06
 --> objf_atl(bi,bj)       =  0.000000000000000D+00
 --> objf_test(bi,bj)        =  0.201731659243940D+06
 --> objf_atl(bi,bj)       =  0.000000000000000D+00
 --> objf_test(bi,bj)        =  0.160077340954552D+06
 --> objf_atl(bi,bj)       =  0.000000000000000D+00
 --> objf_test(bi,bj)        =  0.236780858925057D+06
 --> objf_atl(bi,bj)       = -0.363146014428830D-01
(PID.TID 0000.0001)   local fc = -0.363146014428830D-01
(PID.TID 0000.0001)  global fc = -0.363146014428830D-01
(PID.TID 0000.0001) grdchk perturb(-)fc: fcpertminus = -3.63146014428830E-02
grad-res -------------------------------
 grad-res     0    2   45    2    1    1    1    1  -3.63146015736E-02 -3.63146017046E-02 -3.63146014429E-02
 grad-res     0    2    2    2    0    1    1    1  -1.30849945124E-08 -1.30849331370E-08  4.69051924779E-06
(PID.TID 0000.0001)  ADM  ref_cost_function      = -3.63146015736456E-02
(PID.TID 0000.0001)  ADM  adjoint_gradient       = -1.30849945124273E-08
(PID.TID 0000.0001)  ADM  finite-diff_grad       = -1.30849331370086E-08
(PID.TID 0000.0001) ====== End of gradient-check number   2 (ierr=  0) =======
(PID.TID 0000.0001) 
(PID.TID 0000.0001) // =======================================================
(PID.TID 0000.0001) // Gradient check results  >>> START <<<
(PID.TID 0000.0001) // =======================================================
(PID.TID 0000.0001) 
(PID.TID 0000.0001)  EPS = 1.000000E-02 ; grdchk CTRL var/file name: "xx_theta"
(PID.TID 0000.0001) 
(PID.TID 0000.0001) grdchk output h.p:  Id Itile Jtile LAYER   bi   bj   X(Id)           X(Id)+/-EPS
(PID.TID 0000.0001) grdchk output h.c:  Id  FC                   FC1                  FC2
(PID.TID 0000.0001) grdchk output h.g:  Id     FC1-FC2/(2*EPS)      ADJ GRAD(FC)         1-FDGRD/ADGRD
(PID.TID 0000.0001) 
(PID.TID 0000.0001) grdchk output (p):   1    44     2     1    1    1   0.000000000E+00 -1.000000000E-02
(PID.TID 0000.0001) grdchk output (c):   1 -3.6314601573646E-02 -3.6314601720386E-02 -3.6314601427111E-02
(PID.TID 0000.0001) grdchk output (g):   1    -1.4663762912259E-08 -1.4663800176246E-08  2.5412230625355E-06
(PID.TID 0000.0001) 
(PID.TID 0000.0001) grdchk output (p):   2    45     2     1    1    1   0.000000000E+00 -1.000000000E-02
(PID.TID 0000.0001) grdchk output (c):   2 -3.6314601573646E-02 -3.6314601704582E-02 -3.6314601442883E-02
(PID.TID 0000.0001) grdchk output (g):   2    -1.3084933137009E-08 -1.3084994512427E-08  4.6905192477853E-06
(PID.TID 0000.0001) 
(PID.TID 0000.0001) grdchk  summary  :  RMS of    2 ratios =  3.7721867310226E-06
(PID.TID 0000.0001) 
(PID.TID 0000.0001) // =======================================================
(PID.TID 0000.0001) // Gradient check results  >>> END <<<
(PID.TID 0000.0001) // =======================================================
(PID.TID 0000.0001) 
(PID.TID 0000.0001)   Seconds in section "ALL                    [THE_MODEL_MAIN]":
(PID.TID 0000.0001)           User time:   58.328496532514691
(PID.TID 0000.0001)         System time:  0.41465301252901554
(PID.TID 0000.0001)     Wall clock time:   58.825835227966309
(PID.TID 0000.0001)          No. starts:           1
(PID.TID 0000.0001)           No. stops:           1
(PID.TID 0000.0001)   Seconds in section "INITIALISE_FIXED       [THE_MODEL_MAIN]":
(PID.TID 0000.0001)           User time:   4.8488000407814980E-002
(PID.TID 0000.0001)         System time:   1.0429000481963158E-002
(PID.TID 0000.0001)     Wall clock time:   5.9547901153564453E-002
(PID.TID 0000.0001)          No. starts:           1
(PID.TID 0000.0001)           No. stops:           1
(PID.TID 0000.0001)   Seconds in section "ADTHE_MAIN_LOOP          [ADJOINT RUN]":
(PID.TID 0000.0001)           User time:   33.896334171295166
(PID.TID 0000.0001)         System time:  0.23243898525834084
(PID.TID 0000.0001)     Wall clock time:   34.191667795181274
(PID.TID 0000.0001)          No. starts:           1
(PID.TID 0000.0001)           No. stops:           1
(PID.TID 0000.0001)   Seconds in section "FORWARD_STEP        [MAIN_DO_LOOP]":
(PID.TID 0000.0001)           User time:   36.621652334928513
(PID.TID 0000.0001)         System time:  0.21435309946537018
(PID.TID 0000.0001)     Wall clock time:   36.852470159530640
(PID.TID 0000.0001)          No. starts:         120
(PID.TID 0000.0001)           No. stops:         120
(PID.TID 0000.0001)   Seconds in section "LOAD_FIELDS_DRIVER  [FORWARD_STEP]":
(PID.TID 0000.0001)           User time:   7.0690959692001343E-003
(PID.TID 0000.0001)         System time:   1.2099370360374451E-004
(PID.TID 0000.0001)     Wall clock time:   7.1825981140136719E-003
(PID.TID 0000.0001)          No. starts:         120
(PID.TID 0000.0001)           No. stops:         120
(PID.TID 0000.0001)   Seconds in section "EXTERNAL_FLDS_LOAD [LOAD_FLDS_DRIVER]":
(PID.TID 0000.0001)           User time:   6.1963498592376709E-004
(PID.TID 0000.0001)         System time:   2.9094517230987549E-005
(PID.TID 0000.0001)     Wall clock time:   6.4396858215332031E-004
(PID.TID 0000.0001)          No. starts:         120
(PID.TID 0000.0001)           No. stops:         120
(PID.TID 0000.0001)   Seconds in section "CTRL_MAP_FORCING  [FORWARD_STEP]":
(PID.TID 0000.0001)           User time:  0.17235787212848663
(PID.TID 0000.0001)         System time:   8.6795166134834290E-004
(PID.TID 0000.0001)     Wall clock time:  0.17351794242858887
(PID.TID 0000.0001)          No. starts:         120
(PID.TID 0000.0001)           No. stops:         120
(PID.TID 0000.0001)   Seconds in section "EBM                [FORWARD_STEP]":
(PID.TID 0000.0001)           User time:  0.12158203125000000
(PID.TID 0000.0001)         System time:   1.2769252061843872E-003
(PID.TID 0000.0001)     Wall clock time:  0.12317419052124023
(PID.TID 0000.0001)          No. starts:         120
(PID.TID 0000.0001)           No. stops:         120
(PID.TID 0000.0001)   Seconds in section "DO_ATMOSPHERIC_PHYS [FORWARD_STEP]":
(PID.TID 0000.0001)           User time:   3.7485882639884949E-002
(PID.TID 0000.0001)         System time:   3.5405158996582031E-004
(PID.TID 0000.0001)     Wall clock time:   3.7939548492431641E-002
(PID.TID 0000.0001)          No. starts:         120
(PID.TID 0000.0001)           No. stops:         120
(PID.TID 0000.0001)   Seconds in section "DO_OCEANIC_PHYS     [FORWARD_STEP]":
(PID.TID 0000.0001)           User time:   5.0438183099031448
(PID.TID 0000.0001)         System time:   2.8131972998380661E-002
(PID.TID 0000.0001)     Wall clock time:   5.0739936828613281
(PID.TID 0000.0001)          No. starts:         120
(PID.TID 0000.0001)           No. stops:         120
(PID.TID 0000.0001)   Seconds in section "THERMODYNAMICS      [FORWARD_STEP]":
(PID.TID 0000.0001)           User time:   11.224547013640404
(PID.TID 0000.0001)         System time:   6.2062058597803116E-002
(PID.TID 0000.0001)     Wall clock time:   11.292488336563110
(PID.TID 0000.0001)          No. starts:         120
(PID.TID 0000.0001)           No. stops:         120
(PID.TID 0000.0001)   Seconds in section "DYNAMICS            [FORWARD_STEP]":
(PID.TID 0000.0001)           User time:   12.160609096288681
(PID.TID 0000.0001)         System time:   7.2913102805614471E-002
(PID.TID 0000.0001)     Wall clock time:   12.240078449249268
(PID.TID 0000.0001)          No. starts:         120
(PID.TID 0000.0001)           No. stops:         120
(PID.TID 0000.0001)   Seconds in section "SOLVE_FOR_PRESSURE  [FORWARD_STEP]":
(PID.TID 0000.0001)           User time:   5.8095031678676605
(PID.TID 0000.0001)         System time:   3.1193990260362625E-002
(PID.TID 0000.0001)     Wall clock time:   5.8431887626647949
(PID.TID 0000.0001)          No. starts:         120
(PID.TID 0000.0001)           No. stops:         120
(PID.TID 0000.0001)   Seconds in section "MOM_CORRECTION_STEP [FORWARD_STEP]":
(PID.TID 0000.0001)           User time:  0.39656430482864380
(PID.TID 0000.0001)         System time:   1.9329562783241272E-003
(PID.TID 0000.0001)     Wall clock time:  0.39889049530029297
(PID.TID 0000.0001)          No. starts:         120
(PID.TID 0000.0001)           No. stops:         120
(PID.TID 0000.0001)   Seconds in section "INTEGR_CONTINUITY   [FORWARD_STEP]":
(PID.TID 0000.0001)           User time:  0.41162738204002380
(PID.TID 0000.0001)         System time:   2.4530552327632904E-003
(PID.TID 0000.0001)     Wall clock time:  0.41443800926208496
(PID.TID 0000.0001)          No. starts:         120
(PID.TID 0000.0001)           No. stops:         120
(PID.TID 0000.0001)   Seconds in section "TRC_CORRECTION_STEP [FORWARD_STEP]":
(PID.TID 0000.0001)           User time:   6.5782666206359863E-004
(PID.TID 0000.0001)         System time:   1.2893229722976685E-005
(PID.TID 0000.0001)     Wall clock time:   6.7281723022460938E-004
(PID.TID 0000.0001)          No. starts:         120
(PID.TID 0000.0001)           No. stops:         120
(PID.TID 0000.0001)   Seconds in section "BLOCKING_EXCHANGES  [FORWARD_STEP]":
(PID.TID 0000.0001)           User time:  0.34088322520256042
(PID.TID 0000.0001)         System time:   1.3950094580650330E-003
(PID.TID 0000.0001)     Wall clock time:  0.34262466430664062
(PID.TID 0000.0001)          No. starts:         120
(PID.TID 0000.0001)           No. stops:         120
(PID.TID 0000.0001)   Seconds in section "MONITOR             [FORWARD_STEP]":
(PID.TID 0000.0001)           User time:  0.27021664381027222
(PID.TID 0000.0001)         System time:   1.7919875681400299E-003
(PID.TID 0000.0001)     Wall clock time:  0.27203273773193359
(PID.TID 0000.0001)          No. starts:         120
(PID.TID 0000.0001)           No. stops:         120
(PID.TID 0000.0001)   Seconds in section "COST_TILE           [FORWARD_STEP]":
(PID.TID 0000.0001)           User time:  0.58658400177955627
(PID.TID 0000.0001)         System time:   3.4159980714321136E-003
(PID.TID 0000.0001)     Wall clock time:  0.59043383598327637
(PID.TID 0000.0001)          No. starts:         120
(PID.TID 0000.0001)           No. stops:         120
(PID.TID 0000.0001)   Seconds in section "DO_THE_MODEL_IO     [FORWARD_STEP]":
(PID.TID 0000.0001)           User time:   9.6676349639892578E-003
(PID.TID 0000.0001)         System time:   1.6721338033676147E-003
(PID.TID 0000.0001)     Wall clock time:   1.1326074600219727E-002
(PID.TID 0000.0001)          No. starts:         120
(PID.TID 0000.0001)           No. stops:         120
(PID.TID 0000.0001)   Seconds in section "DO_WRITE_PICKUP     [FORWARD_STEP]":
(PID.TID 0000.0001)           User time:   1.7354488372802734E-002
(PID.TID 0000.0001)         System time:   2.3440159857273102E-003
(PID.TID 0000.0001)     Wall clock time:   1.9828081130981445E-002
(PID.TID 0000.0001)          No. starts:         120
(PID.TID 0000.0001)           No. stops:         120
(PID.TID 0000.0001)   Seconds in section "CTRL_PACK           [THE_MODEL_MAIN]":
(PID.TID 0000.0001)           User time:   3.6849975585937500E-003
(PID.TID 0000.0001)         System time:   6.1500072479248047E-004
(PID.TID 0000.0001)     Wall clock time:   4.7428607940673828E-003
(PID.TID 0000.0001)          No. starts:           1
(PID.TID 0000.0001)           No. stops:           1
(PID.TID 0000.0001)   Seconds in section "CTRL_PACK     [THE_MODEL_MAIN]":
(PID.TID 0000.0001)           User time:   3.6468505859375000E-003
(PID.TID 0000.0001)         System time:   2.3302435874938965E-004
(PID.TID 0000.0001)     Wall clock time:   3.8979053497314453E-003
(PID.TID 0000.0001)          No. starts:           1
(PID.TID 0000.0001)           No. stops:           1
(PID.TID 0000.0001)   Seconds in section "GRDCHK_MAIN         [THE_MODEL_MAIN]":
(PID.TID 0000.0001)           User time:   24.376304626464844
(PID.TID 0000.0001)         System time:  0.17091798782348633
(PID.TID 0000.0001)     Wall clock time:   24.565933942794800
(PID.TID 0000.0001)          No. starts:           1
(PID.TID 0000.0001)           No. stops:           1
(PID.TID 0000.0001)   Seconds in section "INITIALISE_VARIA    [THE_MAIN_LOOP]":
(PID.TID 0000.0001)           User time:  0.13484954833984375
(PID.TID 0000.0001)         System time:   3.4419894218444824E-003
(PID.TID 0000.0001)     Wall clock time:  0.13905692100524902
(PID.TID 0000.0001)          No. starts:           4
(PID.TID 0000.0001)           No. stops:           4
(PID.TID 0000.0001)   Seconds in section "MAIN LOOP           [THE_MAIN_LOOP]":
(PID.TID 0000.0001)           User time:   24.214313507080078
(PID.TID 0000.0001)         System time:  0.16311299800872803
(PID.TID 0000.0001)     Wall clock time:   24.393332719802856
(PID.TID 0000.0001)          No. starts:           4
(PID.TID 0000.0001)           No. stops:           4
(PID.TID 0000.0001)   Seconds in section "MAIN_DO_LOOP        [THE_MAIN_LOOP]":
(PID.TID 0000.0001)           User time:   24.213119506835938
(PID.TID 0000.0001)         System time:  0.16309794783592224
(PID.TID 0000.0001)     Wall clock time:   24.392140626907349
(PID.TID 0000.0001)          No. starts:          80
(PID.TID 0000.0001)           No. stops:          80
(PID.TID 0000.0001)   Seconds in section "COST_FINAL         [ADJOINT SPIN-DOWN]":
(PID.TID 0000.0001)           User time:   2.8610229492187500E-004
(PID.TID 0000.0001)         System time:   0.0000000000000000
(PID.TID 0000.0001)     Wall clock time:   2.8491020202636719E-004
(PID.TID 0000.0001)          No. starts:           4
(PID.TID 0000.0001)           No. stops:           4
(PID.TID 0000.0001) // ======================================================
(PID.TID 0000.0001) // Tile <-> Tile communication statistics
(PID.TID 0000.0001) // ======================================================
(PID.TID 0000.0001) // o Tile number: 000001
(PID.TID 0000.0001) //         No. X exchanges =              0
(PID.TID 0000.0001) //            Max. X spins =              0
(PID.TID 0000.0001) //            Min. X spins =     1000000000
(PID.TID 0000.0001) //          Total. X spins =              0
(PID.TID 0000.0001) //            Avg. X spins =       0.00E+00
(PID.TID 0000.0001) //         No. Y exchanges =              0
(PID.TID 0000.0001) //            Max. Y spins =              0
(PID.TID 0000.0001) //            Min. Y spins =     1000000000
(PID.TID 0000.0001) //          Total. Y spins =              0
(PID.TID 0000.0001) //            Avg. Y spins =       0.00E+00
(PID.TID 0000.0001) // o Tile number: 000002
(PID.TID 0000.0001) //         No. X exchanges =              0
(PID.TID 0000.0001) //            Max. X spins =              0
(PID.TID 0000.0001) //            Min. X spins =     1000000000
(PID.TID 0000.0001) //          Total. X spins =              0
(PID.TID 0000.0001) //            Avg. X spins =       0.00E+00
(PID.TID 0000.0001) //         No. Y exchanges =              0
(PID.TID 0000.0001) //            Max. Y spins =              0
(PID.TID 0000.0001) //            Min. Y spins =     1000000000
(PID.TID 0000.0001) //          Total. Y spins =              0
(PID.TID 0000.0001) //            Avg. Y spins =       0.00E+00
(PID.TID 0000.0001) // o Tile number: 000003
(PID.TID 0000.0001) //         No. X exchanges =              0
(PID.TID 0000.0001) //            Max. X spins =              0
(PID.TID 0000.0001) //            Min. X spins =     1000000000
(PID.TID 0000.0001) //          Total. X spins =              0
(PID.TID 0000.0001) //            Avg. X spins =       0.00E+00
(PID.TID 0000.0001) //         No. Y exchanges =              0
(PID.TID 0000.0001) //            Max. Y spins =              0
(PID.TID 0000.0001) //            Min. Y spins =     1000000000
(PID.TID 0000.0001) //          Total. Y spins =              0
(PID.TID 0000.0001) //            Avg. Y spins =       0.00E+00
(PID.TID 0000.0001) // o Tile number: 000004
(PID.TID 0000.0001) //         No. X exchanges =              0
(PID.TID 0000.0001) //            Max. X spins =              0
(PID.TID 0000.0001) //            Min. X spins =     1000000000
(PID.TID 0000.0001) //          Total. X spins =              0
(PID.TID 0000.0001) //            Avg. X spins =       0.00E+00
(PID.TID 0000.0001) //         No. Y exchanges =              0
(PID.TID 0000.0001) //            Max. Y spins =              0
(PID.TID 0000.0001) //            Min. Y spins =     1000000000
(PID.TID 0000.0001) //          Total. Y spins =              0
(PID.TID 0000.0001) //            Avg. Y spins =       0.00E+00
(PID.TID 0000.0001) // o Thread number: 000001
(PID.TID 0000.0001) //            No. barriers =         123004
(PID.TID 0000.0001) //      Max. barrier spins =              1
(PID.TID 0000.0001) //      Min. barrier spins =              1
(PID.TID 0000.0001) //     Total barrier spins =         123004
(PID.TID 0000.0001) //      Avg. barrier spins =       1.00E+00
PROGRAM MAIN: Execution ended Normally
