(PID.TID 0000.0001) 
(PID.TID 0000.0001) // ======================================================
(PID.TID 0000.0001) //                      MITgcm UV
(PID.TID 0000.0001) //                      =========
(PID.TID 0000.0001) // ======================================================
(PID.TID 0000.0001) // execution environment starting up...
(PID.TID 0000.0001) 
(PID.TID 0000.0001) // MITgcmUV version:  checkpoint64q
(PID.TID 0000.0001) // Build user:        jmc
(PID.TID 0000.0001) // Build host:        baudelaire
(PID.TID 0000.0001) // Build date:        Sat Dec  7 15:49:54 EST 2013
(PID.TID 0000.0001) 
(PID.TID 0000.0001) // =======================================================
(PID.TID 0000.0001) // Execution Environment parameter file "eedata"
(PID.TID 0000.0001) // =======================================================
(PID.TID 0000.0001) ># Example "eedata" file
(PID.TID 0000.0001) ># Lines beginning "#" are comments
(PID.TID 0000.0001) ># nTx - No. threads per process in X
(PID.TID 0000.0001) ># nTy - No. threads per process in Y
(PID.TID 0000.0001) > &EEPARMS
(PID.TID 0000.0001) > /
(PID.TID 0000.0001) ># Note: Some systems use & as the
(PID.TID 0000.0001) ># namelist terminator. Other systems
(PID.TID 0000.0001) ># use a / character (as shown here).
(PID.TID 0000.0001) ># BUT some compilers do not understand "/"
(PID.TID 0000.0001) 
(PID.TID 0000.0001) // =======================================================
(PID.TID 0000.0001) // Computational Grid Specification ( see files "SIZE.h" )
(PID.TID 0000.0001) //                                  ( and "eedata"       )
(PID.TID 0000.0001) // =======================================================
(PID.TID 0000.0001)      nPx =    1 ; /* No. processes in X */
(PID.TID 0000.0001)      nPy =    1 ; /* No. processes in Y */
(PID.TID 0000.0001)      nSx =    2 ; /* No. tiles in X per process */
(PID.TID 0000.0001)      nSy =    2 ; /* No. tiles in Y per process */
(PID.TID 0000.0001)      sNx =   40 ; /* Tile size in X */
(PID.TID 0000.0001)      sNy =   21 ; /* Tile size in Y */
(PID.TID 0000.0001)      OLx =    2 ; /* Tile overlap distance in X */
(PID.TID 0000.0001)      OLy =    2 ; /* Tile overlap distance in Y */
(PID.TID 0000.0001)      nTx =    1 ; /* No. threads in X per process */
(PID.TID 0000.0001)      nTy =    1 ; /* No. threads in Y per process */
(PID.TID 0000.0001)       Nr =    8 ; /* No. levels in the vertical   */
(PID.TID 0000.0001)       Nx =   80 ; /* Total domain size in X ( = nPx*nSx*sNx ) */
(PID.TID 0000.0001)       Ny =   42 ; /* Total domain size in Y ( = nPy*nSy*sNy ) */
(PID.TID 0000.0001)   nTiles =    4 ; /* Total no. tiles per process ( = nSx*nSy ) */
(PID.TID 0000.0001)   nProcs =    1 ; /* Total no. processes ( = nPx*nPy ) */
(PID.TID 0000.0001) nThreads =    1 ; /* Total no. threads per process ( = nTx*nTy ) */
(PID.TID 0000.0001) usingMPI =    F ; /* Flag used to control whether MPI is in use */
(PID.TID 0000.0001)                   /*  note: To execute a program with MPI calls */
(PID.TID 0000.0001)                   /*  it must be launched appropriately e.g     */
(PID.TID 0000.0001)                   /*  "mpirun -np 64 ......"                    */
(PID.TID 0000.0001) useCoupler=    F ;/* Flag used to control communications with   */
(PID.TID 0000.0001)                   /*  other model components, through a coupler */
(PID.TID 0000.0001) debugMode =    F ; /* print debug msg. (sequence of S/R calls)  */
(PID.TID 0000.0001) printMapIncludesZeros=    F ; /* print zeros in Std.Output maps */
(PID.TID 0000.0001) maxLengthPrt1D=   65 /* maxLength of 1D array printed to StdOut */
(PID.TID 0000.0001) 
(PID.TID 0000.0001) // ======================================================
(PID.TID 0000.0001) // Mapping of tiles to threads
(PID.TID 0000.0001) // ======================================================
(PID.TID 0000.0001) // -o- Thread   1, tiles (   1:   2,   1:   2)
(PID.TID 0000.0001) 
(PID.TID 0000.0001) // ======================================================
(PID.TID 0000.0001) // Tile <-> Tile connectvity table
(PID.TID 0000.0001) // ======================================================
(PID.TID 0000.0001) // Tile number: 000001 (process no. = 000000)
(PID.TID 0000.0001) //        WEST: Tile = 000002, Process = 000000, Comm = put
(PID.TID 0000.0001) //                bi = 000002, bj = 000001
(PID.TID 0000.0001) //        EAST: Tile = 000002, Process = 000000, Comm = put
(PID.TID 0000.0001) //                bi = 000002, bj = 000001
(PID.TID 0000.0001) //       SOUTH: Tile = 000003, Process = 000000, Comm = put
(PID.TID 0000.0001) //                bi = 000001, bj = 000002
(PID.TID 0000.0001) //       NORTH: Tile = 000003, Process = 000000, Comm = put
(PID.TID 0000.0001) //                bi = 000001, bj = 000002
(PID.TID 0000.0001) // Tile number: 000002 (process no. = 000000)
(PID.TID 0000.0001) //        WEST: Tile = 000001, Process = 000000, Comm = put
(PID.TID 0000.0001) //                bi = 000001, bj = 000001
(PID.TID 0000.0001) //        EAST: Tile = 000001, Process = 000000, Comm = put
(PID.TID 0000.0001) //                bi = 000001, bj = 000001
(PID.TID 0000.0001) //       SOUTH: Tile = 000004, Process = 000000, Comm = put
(PID.TID 0000.0001) //                bi = 000002, bj = 000002
(PID.TID 0000.0001) //       NORTH: Tile = 000004, Process = 000000, Comm = put
(PID.TID 0000.0001) //                bi = 000002, bj = 000002
(PID.TID 0000.0001) // Tile number: 000003 (process no. = 000000)
(PID.TID 0000.0001) //        WEST: Tile = 000004, Process = 000000, Comm = put
(PID.TID 0000.0001) //                bi = 000002, bj = 000002
(PID.TID 0000.0001) //        EAST: Tile = 000004, Process = 000000, Comm = put
(PID.TID 0000.0001) //                bi = 000002, bj = 000002
(PID.TID 0000.0001) //       SOUTH: Tile = 000001, Process = 000000, Comm = put
(PID.TID 0000.0001) //                bi = 000001, bj = 000001
(PID.TID 0000.0001) //       NORTH: Tile = 000001, Process = 000000, Comm = put
(PID.TID 0000.0001) //                bi = 000001, bj = 000001
(PID.TID 0000.0001) // Tile number: 000004 (process no. = 000000)
(PID.TID 0000.0001) //        WEST: Tile = 000003, Process = 000000, Comm = put
(PID.TID 0000.0001) //                bi = 000001, bj = 000002
(PID.TID 0000.0001) //        EAST: Tile = 000003, Process = 000000, Comm = put
(PID.TID 0000.0001) //                bi = 000001, bj = 000002
(PID.TID 0000.0001) //       SOUTH: Tile = 000002, Process = 000000, Comm = put
(PID.TID 0000.0001) //                bi = 000002, bj = 000001
(PID.TID 0000.0001) //       NORTH: Tile = 000002, Process = 000000, Comm = put
(PID.TID 0000.0001) //                bi = 000002, bj = 000001
(PID.TID 0000.0001) 
(PID.TID 0000.0001)  INI_PARMS: opening model parameter file "data"
(PID.TID 0000.0001)  OPEN_COPY_DATA_FILE: opening file data
(PID.TID 0000.0001) // =======================================================
(PID.TID 0000.0001) // Parameter file "data"
(PID.TID 0000.0001) // =======================================================
(PID.TID 0000.0001) ># ====================
(PID.TID 0000.0001) ># | Model parameters |
(PID.TID 0000.0001) ># ====================
(PID.TID 0000.0001) >#
(PID.TID 0000.0001) ># Continuous equation parameters
(PID.TID 0000.0001) > &PARM01
(PID.TID 0000.0001) > tRef= 0.696834, 0.497738, 0.298643, 0.0995477, -0.0995477, -0.298643, -0.497738, -0.696834,
(PID.TID 0000.0001) > sRef= 8*35.,
(PID.TID 0000.0001) > viscAz=1.E-3,
(PID.TID 0000.0001) > viscAh=1.E3,
(PID.TID 0000.0001) > no_slip_sides=.FALSE.,
(PID.TID 0000.0001) > no_slip_bottom=.FALSE.,
(PID.TID 0000.0001) > diffKhT=1.E3,
(PID.TID 0000.0001) > diffKzT=1.E-5,
(PID.TID 0000.0001) > diffKhS=1.E3,
(PID.TID 0000.0001) > diffKzS=1.E-5,
(PID.TID 0000.0001) > f0=1.e-4,
(PID.TID 0000.0001) > beta=0.E-11,
(PID.TID 0000.0001) > eosType='LINEAR',
(PID.TID 0000.0001) > tAlpha=2.E-4,
(PID.TID 0000.0001) > sBeta =0.E-4,
(PID.TID 0000.0001) > gravity=9.81,
(PID.TID 0000.0001) > implicitFreeSurface=.TRUE.,
(PID.TID 0000.0001) > hFacMin=0.2,
(PID.TID 0000.0001) > readBinaryPrec=64,
(PID.TID 0000.0001) > /
(PID.TID 0000.0001) >
(PID.TID 0000.0001) ># Elliptic solver parameters
(PID.TID 0000.0001) > &PARM02
(PID.TID 0000.0001) > cg2dMaxIters=1000,
(PID.TID 0000.0001) > cg2dTargetResidual=1.E-9,
(PID.TID 0000.0001) > /
(PID.TID 0000.0001) >
(PID.TID 0000.0001) ># Time stepping parameters
(PID.TID 0000.0001) > &PARM03
(PID.TID 0000.0001) > niter0=0,
(PID.TID 0000.0001) > nTimeSteps=18,
(PID.TID 0000.0001) > deltaT=600.0,
(PID.TID 0000.0001) > abEps=0.1,
(PID.TID 0000.0001) > dumpFreq=432000.,
(PID.TID 0000.0001) > monitorFreq=3600.,
(PID.TID 0000.0001) > monitorSelect=1,
(PID.TID 0000.0001) > monitorFreq=1.,
(PID.TID 0000.0001) > /
(PID.TID 0000.0001) >
(PID.TID 0000.0001) ># Gridding parameters
(PID.TID 0000.0001) > &PARM04
(PID.TID 0000.0001) > usingCartesianGrid=.TRUE.,
(PID.TID 0000.0001) > delX=80*5.e3,
(PID.TID 0000.0001) > delY=42*5.e3,
(PID.TID 0000.0001) > delZ= 8*562.5,
(PID.TID 0000.0001) > /
(PID.TID 0000.0001) >
(PID.TID 0000.0001) ># Input datasets
(PID.TID 0000.0001) > &PARM05
(PID.TID 0000.0001) > bathyFile='topog.bump',
(PID.TID 0000.0001) > zonalWindFile='windx.sin_y',
(PID.TID 0000.0001) > /
(PID.TID 0000.0001) 
(PID.TID 0000.0001)  INI_PARMS ; starts to read PARM01
(PID.TID 0000.0001)  INI_PARMS ; read PARM01 : OK
(PID.TID 0000.0001)  INI_PARMS ; starts to read PARM02
(PID.TID 0000.0001)  INI_PARMS ; read PARM02 : OK
(PID.TID 0000.0001)  INI_PARMS ; starts to read PARM03
(PID.TID 0000.0001)  INI_PARMS ; read PARM03 : OK
(PID.TID 0000.0001)  INI_PARMS ; starts to read PARM04
(PID.TID 0000.0001)  INI_PARMS ; read PARM04 : OK
(PID.TID 0000.0001)  INI_PARMS ; starts to read PARM05
(PID.TID 0000.0001)  INI_PARMS ; read PARM05 : OK
(PID.TID 0000.0001)  INI_PARMS: finished reading file "data"
(PID.TID 0000.0001)  PACKAGES_BOOT: opening data.pkg
(PID.TID 0000.0001)  OPEN_COPY_DATA_FILE: opening file data.pkg
(PID.TID 0000.0001) // =======================================================
(PID.TID 0000.0001) // Parameter file "data.pkg"
(PID.TID 0000.0001) // =======================================================
(PID.TID 0000.0001) ># Packages
(PID.TID 0000.0001) > &PACKAGES
(PID.TID 0000.0001) > useFLT=.TRUE.,
(PID.TID 0000.0001) > /
(PID.TID 0000.0001) 
(PID.TID 0000.0001)  PACKAGES_BOOT: finished reading data.pkg
(PID.TID 0000.0001)  FLT_READPARMS: opening data.flt
(PID.TID 0000.0001)  OPEN_COPY_DATA_FILE: opening file data.flt
(PID.TID 0000.0001) // =======================================================
(PID.TID 0000.0001) // Parameter file "data.flt"
(PID.TID 0000.0001) // =======================================================
(PID.TID 0000.0001) ># *********************
(PID.TID 0000.0001) ># Float Namelist
(PID.TID 0000.0001) ># *********************
(PID.TID 0000.0001) > &FLT_NML
(PID.TID 0000.0001) > flt_int_traj =  3600.,
(PID.TID 0000.0001) > flt_int_prof =  10800.,
(PID.TID 0000.0001) > flt_noise    = 0.0,
(PID.TID 0000.0001) > flt_file     = 'flt_ini_pos.bin',
(PID.TID 0000.0001) > /
(PID.TID 0000.0001) 
(PID.TID 0000.0001)  FLT_READPARMS: finished reading data.flt
(PID.TID 0000.0001) SET_PARMS: done
(PID.TID 0000.0001) Enter INI_VERTICAL_GRID: setInterFDr=    T ; setCenterDr=    F
(PID.TID 0000.0001) %MON XC_max                       =   3.9750000000000E+05
(PID.TID 0000.0001) %MON XC_min                       =   2.5000000000000E+03
(PID.TID 0000.0001) %MON XC_mean                      =   2.0000000000000E+05
(PID.TID 0000.0001) %MON XC_sd                        =   1.1546103238755E+05
(PID.TID 0000.0001) %MON XG_max                       =   3.9500000000000E+05
(PID.TID 0000.0001) %MON XG_min                       =   0.0000000000000E+00
(PID.TID 0000.0001) %MON XG_mean                      =   1.9750000000000E+05
(PID.TID 0000.0001) %MON XG_sd                        =   1.1546103238755E+05
(PID.TID 0000.0001) %MON DXC_max                      =   5.0000000000000E+03
(PID.TID 0000.0001) %MON DXC_min                      =   5.0000000000000E+03
(PID.TID 0000.0001) %MON DXC_mean                     =   5.0000000000000E+03
(PID.TID 0000.0001) %MON DXC_sd                       =   0.0000000000000E+00
(PID.TID 0000.0001) %MON DXF_max                      =   5.0000000000000E+03
(PID.TID 0000.0001) %MON DXF_min                      =   5.0000000000000E+03
(PID.TID 0000.0001) %MON DXF_mean                     =   5.0000000000000E+03
(PID.TID 0000.0001) %MON DXF_sd                       =   0.0000000000000E+00
(PID.TID 0000.0001) %MON DXG_max                      =   5.0000000000000E+03
(PID.TID 0000.0001) %MON DXG_min                      =   5.0000000000000E+03
(PID.TID 0000.0001) %MON DXG_mean                     =   5.0000000000000E+03
(PID.TID 0000.0001) %MON DXG_sd                       =   0.0000000000000E+00
(PID.TID 0000.0001) %MON DXV_max                      =   5.0000000000000E+03
(PID.TID 0000.0001) %MON DXV_min                      =   5.0000000000000E+03
(PID.TID 0000.0001) %MON DXV_mean                     =   5.0000000000000E+03
(PID.TID 0000.0001) %MON DXV_sd                       =   0.0000000000000E+00
(PID.TID 0000.0001) %MON YC_max                       =   2.0750000000000E+05
(PID.TID 0000.0001) %MON YC_min                       =   2.5000000000000E+03
(PID.TID 0000.0001) %MON YC_mean                      =   1.0500000000000E+05
(PID.TID 0000.0001) %MON YC_sd                        =   6.0604592785256E+04
(PID.TID 0000.0001) %MON YG_max                       =   2.0500000000000E+05
(PID.TID 0000.0001) %MON YG_min                       =   0.0000000000000E+00
(PID.TID 0000.0001) %MON YG_mean                      =   1.0250000000000E+05
(PID.TID 0000.0001) %MON YG_sd                        =   6.0604592785256E+04
(PID.TID 0000.0001) %MON DYC_max                      =   5.0000000000000E+03
(PID.TID 0000.0001) %MON DYC_min                      =   5.0000000000000E+03
(PID.TID 0000.0001) %MON DYC_mean                     =   5.0000000000000E+03
(PID.TID 0000.0001) %MON DYC_sd                       =   0.0000000000000E+00
(PID.TID 0000.0001) %MON DYF_max                      =   5.0000000000000E+03
(PID.TID 0000.0001) %MON DYF_min                      =   5.0000000000000E+03
(PID.TID 0000.0001) %MON DYF_mean                     =   5.0000000000000E+03
(PID.TID 0000.0001) %MON DYF_sd                       =   0.0000000000000E+00
(PID.TID 0000.0001) %MON DYG_max                      =   5.0000000000000E+03
(PID.TID 0000.0001) %MON DYG_min                      =   5.0000000000000E+03
(PID.TID 0000.0001) %MON DYG_mean                     =   5.0000000000000E+03
(PID.TID 0000.0001) %MON DYG_sd                       =   0.0000000000000E+00
(PID.TID 0000.0001) %MON DYU_max                      =   5.0000000000000E+03
(PID.TID 0000.0001) %MON DYU_min                      =   5.0000000000000E+03
(PID.TID 0000.0001) %MON DYU_mean                     =   5.0000000000000E+03
(PID.TID 0000.0001) %MON DYU_sd                       =   0.0000000000000E+00
(PID.TID 0000.0001) %MON RA_max                       =   2.5000000000000E+07
(PID.TID 0000.0001) %MON RA_min                       =   2.5000000000000E+07
(PID.TID 0000.0001) %MON RA_mean                      =   2.5000000000000E+07
(PID.TID 0000.0001) %MON RA_sd                        =   3.7252902984619E-09
(PID.TID 0000.0001) %MON RAW_max                      =   2.5000000000000E+07
(PID.TID 0000.0001) %MON RAW_min                      =   2.5000000000000E+07
(PID.TID 0000.0001) %MON RAW_mean                     =   2.5000000000000E+07
(PID.TID 0000.0001) %MON RAW_sd                       =   3.7252902984619E-09
(PID.TID 0000.0001) %MON RAS_max                      =   2.5000000000000E+07
(PID.TID 0000.0001) %MON RAS_min                      =   2.5000000000000E+07
(PID.TID 0000.0001) %MON RAS_mean                     =   2.5000000000000E+07
(PID.TID 0000.0001) %MON RAS_sd                       =   3.7252902984619E-09
(PID.TID 0000.0001) %MON RAZ_max                      =   2.5000000000000E+07
(PID.TID 0000.0001) %MON RAZ_min                      =   2.5000000000000E+07
(PID.TID 0000.0001) %MON RAZ_mean                     =   2.5000000000000E+07
(PID.TID 0000.0001) %MON RAZ_sd                       =   3.7252902984619E-09
(PID.TID 0000.0001) %MON AngleCS_max                  =   1.0000000000000E+00
(PID.TID 0000.0001) %MON AngleCS_min                  =   1.0000000000000E+00
(PID.TID 0000.0001) %MON AngleCS_mean                 =   1.0000000000000E+00
(PID.TID 0000.0001) %MON AngleCS_sd                   =   0.0000000000000E+00
(PID.TID 0000.0001) %MON AngleSN_max                  =   0.0000000000000E+00
(PID.TID 0000.0001) %MON AngleSN_min                  =   0.0000000000000E+00
(PID.TID 0000.0001) %MON AngleSN_mean                 =   0.0000000000000E+00
(PID.TID 0000.0001) %MON AngleSN_sd                   =   0.0000000000000E+00
(PID.TID 0000.0001)  MDS_READ_FIELD: opening global file: topog.bump
(PID.TID 0000.0001) // =======================================================
(PID.TID 0000.0001) // Field Model R_low (ini_masks_etc)
(PID.TID 0000.0001) // CMIN =         -4.500000000000000E+03
(PID.TID 0000.0001) // CMAX =         -4.902981733158691E+02
(PID.TID 0000.0001) // CINT =          1.485074750623752E+02
(PID.TID 0000.0001) // SYMBOLS (CMIN->CMAX): -abcdefghijklmnopqrstuvwxyz+
(PID.TID 0000.0001) //                  0.0: .
(PID.TID 0000.0001) // RANGE I (Lo:Hi:Step):(    -1:    82:     1)
(PID.TID 0000.0001) // RANGE J (Lo:Hi:Step):(    44:    -1:    -1)
(PID.TID 0000.0001) // RANGE K (Lo:Hi:Step):(   1:   1:   1)
(PID.TID 0000.0001) // =======================================================
(PID.TID 0000.0001) K =   1
(PID.TID 0000.0001) //                I=8       I=18      I=28      I=38      I=44      I=54      I=64      I=74
(PID.TID 0000.0001) // |--J--|101234567|901234567|901234567|901234567|901290123|567890123|567890123|567890123|56789012
(PID.TID 0000.0001) //     44 ----------------------------------------------------------------------------------------
(PID.TID 0000.0001) //     43 ----------------------------------------------------------------------------------------
(PID.TID 0000.0001) //     42 ----------------------------------------------------------------------------------------
(PID.TID 0000.0001) //     41 ----------------------------------------------------------------------------------------
(PID.TID 0000.0001) //     40 ----------------------------------------------------------------------------------------
(PID.TID 0000.0001) //     39 ----------------------------------------------------------------------------------------
(PID.TID 0000.0001) //     38 ----------------------------------------------------------------------------------------
(PID.TID 0000.0001) //     37 ----------------------------------------------------------------------------------------
(PID.TID 0000.0001) //     36 ----------------------------------------------------------------------------------------
(PID.TID 0000.0001) //     35 --------------------------------------aaaaaaaaaaaa--------------------------------------
(PID.TID 0000.0001) //     34 -----------------------------------aaaaaaaaaaaaaaaaaa-----------------------------------
(PID.TID 0000.0001) //     33 ----------------------------------aaaabbbbbbbbbbbbaaaa----------------------------------
(PID.TID 0000.0001) //     32 ---------------------------------aaabbbccccccccccbbbaaa---------------------------------
(PID.TID 0000.0001) //     31 --------------------------------aaabbcddddddddddddcbbaaa--------------------------------
(PID.TID 0000.0001) //     30 -------------------------------aabbcddeffffffffffeddcbbaa-------------------------------
(PID.TID 0000.0001) //     29 ------------------------------aaabcdefghhiihhiihhgfedcbaaa------------------------------
(PID.TID 0000.0001) //     28 -----------------------------aaabcdefhijkllkkllkjihfedcbaaa-----------------------------
(PID.TID 0000.0001) //     27 -----------------------------aabbdefhjlmnoonnoonmljhfedbbaa-----------------------------
(PID.TID 0000.0001) //     26 -----------------------------aabcdfhjlnpqrrqqrrqpnljhfdcbaa-----------------------------
(PID.TID 0000.0001) //     25 ----------------------------aabbdegilnqstuuttuutsqnligedbbaa----------------------------
(PID.TID 0000.0001) //     24 ----------------------------aabcdfhjmpsuwxxwwxxwuspmjhfdcbaa----------------------------
(PID.TID 0000.0001) //     23 ----------------------------aabcdfhknqtwyzzyyzzywtqnkhfdcbaa----------------------------
(PID.TID 0000.0001) //     22 ----------------------------aabcdfiloruxz++zz++zxurolifdcbaa----------------------------
(PID.TID 0000.0001) //     21 ----------------------------aabcdfiloruxz++zz++zxurolifdcbaa----------------------------
(PID.TID 0000.0001) //     20 ----------------------------aabcdfhknqtwyzzyyzzywtqnkhfdcbaa----------------------------
(PID.TID 0000.0001) //     23 ----------------------------aabcdfhknqtwyzzyyzzywtqnkhfdcbaa----------------------------
(PID.TID 0000.0001) //     22 ----------------------------aabcdfiloruxz++zz++zxurolifdcbaa----------------------------
(PID.TID 0000.0001) //     21 ----------------------------aabcdfiloruxz++zz++zxurolifdcbaa----------------------------
(PID.TID 0000.0001) //     20 ----------------------------aabcdfhknqtwyzzyyzzywtqnkhfdcbaa----------------------------
(PID.TID 0000.0001) //     19 ----------------------------aabcdfhjmpsuwxxwwxxwuspmjhfdcbaa----------------------------
(PID.TID 0000.0001) //     18 ----------------------------aabbdegilnqstuuttuutsqnligedbbaa----------------------------
(PID.TID 0000.0001) //     17 -----------------------------aabcdfhjlnpqrrqqrrqpnljhfdcbaa-----------------------------
(PID.TID 0000.0001) //     16 -----------------------------aabbdefhjlmnoonnoonmljhfedbbaa-----------------------------
(PID.TID 0000.0001) //     15 -----------------------------aaabcdefhijkllkkllkjihfedcbaaa-----------------------------
(PID.TID 0000.0001) //     14 ------------------------------aaabcdefghhiihhiihhgfedcbaaa------------------------------
(PID.TID 0000.0001) //     13 -------------------------------aabbcddeffffffffffeddcbbaa-------------------------------
(PID.TID 0000.0001) //     12 --------------------------------aaabbcddddddddddddcbbaaa--------------------------------
(PID.TID 0000.0001) //     11 ---------------------------------aaabbbccccccccccbbbaaa---------------------------------
(PID.TID 0000.0001) //     10 ----------------------------------aaaabbbbbbbbbbbbaaaa----------------------------------
(PID.TID 0000.0001) //      9 -----------------------------------aaaaaaaaaaaaaaaaaa-----------------------------------
(PID.TID 0000.0001) //      8 --------------------------------------aaaaaaaaaaaa--------------------------------------
(PID.TID 0000.0001) //      7 ----------------------------------------------------------------------------------------
(PID.TID 0000.0001) //      6 ----------------------------------------------------------------------------------------
(PID.TID 0000.0001) //      5 ----------------------------------------------------------------------------------------
(PID.TID 0000.0001) //      4 ----------------------------------------------------------------------------------------
(PID.TID 0000.0001) //      3 ----------------------------------------------------------------------------------------
(PID.TID 0000.0001) //      2 ----------------------------------------------------------------------------------------
(PID.TID 0000.0001) //      1 ----------------------------------------------------------------------------------------
(PID.TID 0000.0001) //      0 ----------------------------------------------------------------------------------------
(PID.TID 0000.0001) //     -1 ----------------------------------------------------------------------------------------
(PID.TID 0000.0001) // =======================================================
(PID.TID 0000.0001) // END OF FIELD                                          =
(PID.TID 0000.0001) // =======================================================
(PID.TID 0000.0001) 
(PID.TID 0000.0001) // =======================================================
(PID.TID 0000.0001) // Field Model Ro_surf (ini_masks_etc)
(PID.TID 0000.0001) // CMIN =          1.000000000000000E+32
(PID.TID 0000.0001) // CMAX =         -1.000000000000000E+32
(PID.TID 0000.0001) // CINT =          0.000000000000000E+00
(PID.TID 0000.0001) // SYMBOLS (CMIN->CMAX): -abcdefghijklmnopqrstuvwxyz+
(PID.TID 0000.0001) //                  0.0: .
(PID.TID 0000.0001) // RANGE I (Lo:Hi:Step):(    -1:    82:     1)
(PID.TID 0000.0001) // RANGE J (Lo:Hi:Step):(    44:    -1:    -1)
(PID.TID 0000.0001) // RANGE K (Lo:Hi:Step):(   1:   1:   1)
(PID.TID 0000.0001) // =======================================================
(PID.TID 0000.0001) // =======================================================
(PID.TID 0000.0001) // END OF FIELD                                          =
(PID.TID 0000.0001) // =======================================================
(PID.TID 0000.0001) 
(PID.TID 0000.0001) // =======================================================
(PID.TID 0000.0001) // Field hFacC at iteration          0
(PID.TID 0000.0001) // CMIN =          8.716411970059894E-01
(PID.TID 0000.0001) // CMAX =          1.000000000000000E+00
(PID.TID 0000.0001) // CINT =          4.754029740518911E-03
(PID.TID 0000.0001) // SYMBOLS (CMIN->CMAX): -abcdefghijklmnopqrstuvwxyz+
(PID.TID 0000.0001) //                  0.0: .
(PID.TID 0000.0001) // RANGE I (Lo:Hi:Step):(    -1:    82:     1)
(PID.TID 0000.0001) // RANGE J (Lo:Hi:Step):(    44:    -1:    -1)
(PID.TID 0000.0001) // RANGE K (Lo:Hi:Step):(   1:   1:   1)
(PID.TID 0000.0001) // =======================================================
(PID.TID 0000.0001) K =   1
(PID.TID 0000.0001) //                I=8       I=18      I=28      I=38      I=44      I=54      I=64      I=74
(PID.TID 0000.0001) // |--J--|101234567|901234567|901234567|901234567|901290123|567890123|567890123|567890123|56789012
(PID.TID 0000.0001) //     44 ++++++++++++++++++++++++++++++++++++++++++++++++++++++++++++++++++++++++++++++++++++++++
(PID.TID 0000.0001) //     43 ++++++++++++++++++++++++++++++++++++++++++++++++++++++++++++++++++++++++++++++++++++++++
(PID.TID 0000.0001) //     42 ++++++++++++++++++++++++++++++++++++++++++++++++++++++++++++++++++++++++++++++++++++++++
(PID.TID 0000.0001) //     41 ++++++++++++++++++++++++++++++++++++++++++++++++++++++++++++++++++++++++++++++++++++++++
(PID.TID 0000.0001) //     40 ++++++++++++++++++++++++++++++++++++++++++++++++++++++++++++++++++++++++++++++++++++++++
(PID.TID 0000.0001) //     39 ++++++++++++++++++++++++++++++++++++++++++++++++++++++++++++++++++++++++++++++++++++++++
(PID.TID 0000.0001) //     38 ++++++++++++++++++++++++++++++++++++++++++++++++++++++++++++++++++++++++++++++++++++++++
(PID.TID 0000.0001) //     37 ++++++++++++++++++++++++++++++++++++++++++++++++++++++++++++++++++++++++++++++++++++++++
(PID.TID 0000.0001) //     36 ++++++++++++++++++++++++++++++++++++++++++++++++++++++++++++++++++++++++++++++++++++++++
(PID.TID 0000.0001) //     35 ++++++++++++++++++++++++++++++++++++++++++++++++++++++++++++++++++++++++++++++++++++++++
(PID.TID 0000.0001) //     34 ++++++++++++++++++++++++++++++++++++++++++++++++++++++++++++++++++++++++++++++++++++++++
(PID.TID 0000.0001) //     33 ++++++++++++++++++++++++++++++++++++++++++++++++++++++++++++++++++++++++++++++++++++++++
(PID.TID 0000.0001) //     32 ++++++++++++++++++++++++++++++++++++++++++++++++++++++++++++++++++++++++++++++++++++++++
(PID.TID 0000.0001) //     31 ++++++++++++++++++++++++++++++++++++++++++++++++++++++++++++++++++++++++++++++++++++++++
(PID.TID 0000.0001) //     30 ++++++++++++++++++++++++++++++++++++++++++++++++++++++++++++++++++++++++++++++++++++++++
(PID.TID 0000.0001) //     29 ++++++++++++++++++++++++++++++++++++++++++++++++++++++++++++++++++++++++++++++++++++++++
(PID.TID 0000.0001) //     28 ++++++++++++++++++++++++++++++++++++++++++++++++++++++++++++++++++++++++++++++++++++++++
(PID.TID 0000.0001) //     27 ++++++++++++++++++++++++++++++++++++++++++++++++++++++++++++++++++++++++++++++++++++++++
(PID.TID 0000.0001) //     26 ++++++++++++++++++++++++++++++++++++++++++++++++++++++++++++++++++++++++++++++++++++++++
(PID.TID 0000.0001) //     25 ++++++++++++++++++++++++++++++++++++++++++++++++++++++++++++++++++++++++++++++++++++++++
(PID.TID 0000.0001) //     24 ++++++++++++++++++++++++++++++++++++++++++++++++++++++++++++++++++++++++++++++++++++++++
(PID.TID 0000.0001) //     23 ++++++++++++++++++++++++++++++++++++++++++++++++++++++++++++++++++++++++++++++++++++++++
(PID.TID 0000.0001) //     22 +++++++++++++++++++++++++++++++++++++++++--++--+++++++++++++++++++++++++++++++++++++++++
(PID.TID 0000.0001) //     21 +++++++++++++++++++++++++++++++++++++++++--++--+++++++++++++++++++++++++++++++++++++++++
(PID.TID 0000.0001) //     20 ++++++++++++++++++++++++++++++++++++++++++++++++++++++++++++++++++++++++++++++++++++++++
(PID.TID 0000.0001) //     23 ++++++++++++++++++++++++++++++++++++++++++++++++++++++++++++++++++++++++++++++++++++++++
(PID.TID 0000.0001) //     22 +++++++++++++++++++++++++++++++++++++++++--++--+++++++++++++++++++++++++++++++++++++++++
(PID.TID 0000.0001) //     21 +++++++++++++++++++++++++++++++++++++++++--++--+++++++++++++++++++++++++++++++++++++++++
(PID.TID 0000.0001) //     20 ++++++++++++++++++++++++++++++++++++++++++++++++++++++++++++++++++++++++++++++++++++++++
(PID.TID 0000.0001) //     19 ++++++++++++++++++++++++++++++++++++++++++++++++++++++++++++++++++++++++++++++++++++++++
(PID.TID 0000.0001) //     18 ++++++++++++++++++++++++++++++++++++++++++++++++++++++++++++++++++++++++++++++++++++++++
(PID.TID 0000.0001) //     17 ++++++++++++++++++++++++++++++++++++++++++++++++++++++++++++++++++++++++++++++++++++++++
(PID.TID 0000.0001) //     16 ++++++++++++++++++++++++++++++++++++++++++++++++++++++++++++++++++++++++++++++++++++++++
(PID.TID 0000.0001) //     15 ++++++++++++++++++++++++++++++++++++++++++++++++++++++++++++++++++++++++++++++++++++++++
(PID.TID 0000.0001) //     14 ++++++++++++++++++++++++++++++++++++++++++++++++++++++++++++++++++++++++++++++++++++++++
(PID.TID 0000.0001) //     13 ++++++++++++++++++++++++++++++++++++++++++++++++++++++++++++++++++++++++++++++++++++++++
(PID.TID 0000.0001) //     12 ++++++++++++++++++++++++++++++++++++++++++++++++++++++++++++++++++++++++++++++++++++++++
(PID.TID 0000.0001) //     11 ++++++++++++++++++++++++++++++++++++++++++++++++++++++++++++++++++++++++++++++++++++++++
(PID.TID 0000.0001) //     10 ++++++++++++++++++++++++++++++++++++++++++++++++++++++++++++++++++++++++++++++++++++++++
(PID.TID 0000.0001) //      9 ++++++++++++++++++++++++++++++++++++++++++++++++++++++++++++++++++++++++++++++++++++++++
(PID.TID 0000.0001) //      8 ++++++++++++++++++++++++++++++++++++++++++++++++++++++++++++++++++++++++++++++++++++++++
(PID.TID 0000.0001) //      7 ++++++++++++++++++++++++++++++++++++++++++++++++++++++++++++++++++++++++++++++++++++++++
(PID.TID 0000.0001) //      6 ++++++++++++++++++++++++++++++++++++++++++++++++++++++++++++++++++++++++++++++++++++++++
(PID.TID 0000.0001) //      5 ++++++++++++++++++++++++++++++++++++++++++++++++++++++++++++++++++++++++++++++++++++++++
(PID.TID 0000.0001) //      4 ++++++++++++++++++++++++++++++++++++++++++++++++++++++++++++++++++++++++++++++++++++++++
(PID.TID 0000.0001) //      3 ++++++++++++++++++++++++++++++++++++++++++++++++++++++++++++++++++++++++++++++++++++++++
(PID.TID 0000.0001) //      2 ++++++++++++++++++++++++++++++++++++++++++++++++++++++++++++++++++++++++++++++++++++++++
(PID.TID 0000.0001) //      1 ++++++++++++++++++++++++++++++++++++++++++++++++++++++++++++++++++++++++++++++++++++++++
(PID.TID 0000.0001) //      0 ++++++++++++++++++++++++++++++++++++++++++++++++++++++++++++++++++++++++++++++++++++++++
(PID.TID 0000.0001) //     -1 ++++++++++++++++++++++++++++++++++++++++++++++++++++++++++++++++++++++++++++++++++++++++
(PID.TID 0000.0001) // =======================================================
(PID.TID 0000.0001) // END OF FIELD                                          =
(PID.TID 0000.0001) // =======================================================
(PID.TID 0000.0001) 
(PID.TID 0000.0001) // =======================================================
(PID.TID 0000.0001) // Field hFacW at iteration          0
(PID.TID 0000.0001) // CMIN =          8.716411970059894E-01
(PID.TID 0000.0001) // CMAX =          1.000000000000000E+00
(PID.TID 0000.0001) // CINT =          4.754029740518911E-03
(PID.TID 0000.0001) // SYMBOLS (CMIN->CMAX): -abcdefghijklmnopqrstuvwxyz+
(PID.TID 0000.0001) //                  0.0: .
(PID.TID 0000.0001) // RANGE I (Lo:Hi:Step):(    -1:    82:     1)
(PID.TID 0000.0001) // RANGE J (Lo:Hi:Step):(    44:    -1:    -1)
(PID.TID 0000.0001) // RANGE K (Lo:Hi:Step):(   1:   1:   1)
(PID.TID 0000.0001) // =======================================================
(PID.TID 0000.0001) K =   1
(PID.TID 0000.0001) //                I=8       I=18      I=28      I=38      I=44      I=54      I=64      I=74
(PID.TID 0000.0001) // |--J--|101234567|901234567|901234567|901234567|901290123|567890123|567890123|567890123|56789012
(PID.TID 0000.0001) //     44 ++++++++++++++++++++++++++++++++++++++++++++++++++++++++++++++++++++++++++++++++++++++++
(PID.TID 0000.0001) //     43 ++++++++++++++++++++++++++++++++++++++++++++++++++++++++++++++++++++++++++++++++++++++++
(PID.TID 0000.0001) //     42 ++++++++++++++++++++++++++++++++++++++++++++++++++++++++++++++++++++++++++++++++++++++++
(PID.TID 0000.0001) //     41 ++++++++++++++++++++++++++++++++++++++++++++++++++++++++++++++++++++++++++++++++++++++++
(PID.TID 0000.0001) //     40 ++++++++++++++++++++++++++++++++++++++++++++++++++++++++++++++++++++++++++++++++++++++++
(PID.TID 0000.0001) //     39 ++++++++++++++++++++++++++++++++++++++++++++++++++++++++++++++++++++++++++++++++++++++++
(PID.TID 0000.0001) //     38 ++++++++++++++++++++++++++++++++++++++++++++++++++++++++++++++++++++++++++++++++++++++++
(PID.TID 0000.0001) //     37 ++++++++++++++++++++++++++++++++++++++++++++++++++++++++++++++++++++++++++++++++++++++++
(PID.TID 0000.0001) //     36 ++++++++++++++++++++++++++++++++++++++++++++++++++++++++++++++++++++++++++++++++++++++++
(PID.TID 0000.0001) //     35 ++++++++++++++++++++++++++++++++++++++++++++++++++++++++++++++++++++++++++++++++++++++++
(PID.TID 0000.0001) //     34 ++++++++++++++++++++++++++++++++++++++++++++++++++++++++++++++++++++++++++++++++++++++++
(PID.TID 0000.0001) //     33 ++++++++++++++++++++++++++++++++++++++++++++++++++++++++++++++++++++++++++++++++++++++++
(PID.TID 0000.0001) //     32 ++++++++++++++++++++++++++++++++++++++++++++++++++++++++++++++++++++++++++++++++++++++++
(PID.TID 0000.0001) //     31 ++++++++++++++++++++++++++++++++++++++++++++++++++++++++++++++++++++++++++++++++++++++++
(PID.TID 0000.0001) //     30 ++++++++++++++++++++++++++++++++++++++++++++++++++++++++++++++++++++++++++++++++++++++++
(PID.TID 0000.0001) //     29 ++++++++++++++++++++++++++++++++++++++++++++++++++++++++++++++++++++++++++++++++++++++++
(PID.TID 0000.0001) //     28 ++++++++++++++++++++++++++++++++++++++++++++++++++++++++++++++++++++++++++++++++++++++++
(PID.TID 0000.0001) //     27 ++++++++++++++++++++++++++++++++++++++++++++++++++++++++++++++++++++++++++++++++++++++++
(PID.TID 0000.0001) //     26 ++++++++++++++++++++++++++++++++++++++++++++++++++++++++++++++++++++++++++++++++++++++++
(PID.TID 0000.0001) //     25 ++++++++++++++++++++++++++++++++++++++++++++++++++++++++++++++++++++++++++++++++++++++++
(PID.TID 0000.0001) //     24 ++++++++++++++++++++++++++++++++++++++++++++++++++++++++++++++++++++++++++++++++++++++++
(PID.TID 0000.0001) //     23 ++++++++++++++++++++++++++++++++++++++++++++++++++++++++++++++++++++++++++++++++++++++++
(PID.TID 0000.0001) //     22 +++++++++++++++++++++++++++++++++++++++++---+---++++++++++++++++++++++++++++++++++++++++
(PID.TID 0000.0001) //     21 +++++++++++++++++++++++++++++++++++++++++---+---++++++++++++++++++++++++++++++++++++++++
(PID.TID 0000.0001) //     20 ++++++++++++++++++++++++++++++++++++++++++++++++++++++++++++++++++++++++++++++++++++++++
(PID.TID 0000.0001) //     23 ++++++++++++++++++++++++++++++++++++++++++++++++++++++++++++++++++++++++++++++++++++++++
(PID.TID 0000.0001) //     22 +++++++++++++++++++++++++++++++++++++++++---+---++++++++++++++++++++++++++++++++++++++++
(PID.TID 0000.0001) //     21 +++++++++++++++++++++++++++++++++++++++++---+---++++++++++++++++++++++++++++++++++++++++
(PID.TID 0000.0001) //     20 ++++++++++++++++++++++++++++++++++++++++++++++++++++++++++++++++++++++++++++++++++++++++
(PID.TID 0000.0001) //     19 ++++++++++++++++++++++++++++++++++++++++++++++++++++++++++++++++++++++++++++++++++++++++
(PID.TID 0000.0001) //     18 ++++++++++++++++++++++++++++++++++++++++++++++++++++++++++++++++++++++++++++++++++++++++
(PID.TID 0000.0001) //     17 ++++++++++++++++++++++++++++++++++++++++++++++++++++++++++++++++++++++++++++++++++++++++
(PID.TID 0000.0001) //     16 ++++++++++++++++++++++++++++++++++++++++++++++++++++++++++++++++++++++++++++++++++++++++
(PID.TID 0000.0001) //     15 ++++++++++++++++++++++++++++++++++++++++++++++++++++++++++++++++++++++++++++++++++++++++
(PID.TID 0000.0001) //     14 ++++++++++++++++++++++++++++++++++++++++++++++++++++++++++++++++++++++++++++++++++++++++
(PID.TID 0000.0001) //     13 ++++++++++++++++++++++++++++++++++++++++++++++++++++++++++++++++++++++++++++++++++++++++
(PID.TID 0000.0001) //     12 ++++++++++++++++++++++++++++++++++++++++++++++++++++++++++++++++++++++++++++++++++++++++
(PID.TID 0000.0001) //     11 ++++++++++++++++++++++++++++++++++++++++++++++++++++++++++++++++++++++++++++++++++++++++
(PID.TID 0000.0001) //     10 ++++++++++++++++++++++++++++++++++++++++++++++++++++++++++++++++++++++++++++++++++++++++
(PID.TID 0000.0001) //      9 ++++++++++++++++++++++++++++++++++++++++++++++++++++++++++++++++++++++++++++++++++++++++
(PID.TID 0000.0001) //      8 ++++++++++++++++++++++++++++++++++++++++++++++++++++++++++++++++++++++++++++++++++++++++
(PID.TID 0000.0001) //      7 ++++++++++++++++++++++++++++++++++++++++++++++++++++++++++++++++++++++++++++++++++++++++
(PID.TID 0000.0001) //      6 ++++++++++++++++++++++++++++++++++++++++++++++++++++++++++++++++++++++++++++++++++++++++
(PID.TID 0000.0001) //      5 ++++++++++++++++++++++++++++++++++++++++++++++++++++++++++++++++++++++++++++++++++++++++
(PID.TID 0000.0001) //      4 ++++++++++++++++++++++++++++++++++++++++++++++++++++++++++++++++++++++++++++++++++++++++
(PID.TID 0000.0001) //      3 ++++++++++++++++++++++++++++++++++++++++++++++++++++++++++++++++++++++++++++++++++++++++
(PID.TID 0000.0001) //      2 ++++++++++++++++++++++++++++++++++++++++++++++++++++++++++++++++++++++++++++++++++++++++
(PID.TID 0000.0001) //      1 ++++++++++++++++++++++++++++++++++++++++++++++++++++++++++++++++++++++++++++++++++++++++
(PID.TID 0000.0001) //      0 ++++++++++++++++++++++++++++++++++++++++++++++++++++++++++++++++++++++++++++++++++++++++
(PID.TID 0000.0001) //     -1 ++++++++++++++++++++++++++++++++++++++++++++++++++++++++++++++++++++++++++++++++++++++++
(PID.TID 0000.0001) // =======================================================
(PID.TID 0000.0001) // END OF FIELD                                          =
(PID.TID 0000.0001) // =======================================================
(PID.TID 0000.0001) 
(PID.TID 0000.0001) // =======================================================
(PID.TID 0000.0001) // Field hFacS at iteration          0
(PID.TID 0000.0001) // CMIN =          8.716411970059894E-01
(PID.TID 0000.0001) // CMAX =          1.000000000000000E+00
(PID.TID 0000.0001) // CINT =          4.754029740518911E-03
(PID.TID 0000.0001) // SYMBOLS (CMIN->CMAX): -abcdefghijklmnopqrstuvwxyz+
(PID.TID 0000.0001) //                  0.0: .
(PID.TID 0000.0001) // RANGE I (Lo:Hi:Step):(    -1:    82:     1)
(PID.TID 0000.0001) // RANGE J (Lo:Hi:Step):(    44:    -1:    -1)
(PID.TID 0000.0001) // RANGE K (Lo:Hi:Step):(   1:   1:   1)
(PID.TID 0000.0001) // =======================================================
(PID.TID 0000.0001) K =   1
(PID.TID 0000.0001) //                I=8       I=18      I=28      I=38      I=44      I=54      I=64      I=74
(PID.TID 0000.0001) // |--J--|101234567|901234567|901234567|901234567|901290123|567890123|567890123|567890123|56789012
(PID.TID 0000.0001) //     44 ++++++++++++++++++++++++++++++++++++++++++++++++++++++++++++++++++++++++++++++++++++++++
(PID.TID 0000.0001) //     43 ++++++++++++++++++++++++++++++++++++++++++++++++++++++++++++++++++++++++++++++++++++++++
(PID.TID 0000.0001) //     42 ++++++++++++++++++++++++++++++++++++++++++++++++++++++++++++++++++++++++++++++++++++++++
(PID.TID 0000.0001) //     41 ++++++++++++++++++++++++++++++++++++++++++++++++++++++++++++++++++++++++++++++++++++++++
(PID.TID 0000.0001) //     40 ++++++++++++++++++++++++++++++++++++++++++++++++++++++++++++++++++++++++++++++++++++++++
(PID.TID 0000.0001) //     39 ++++++++++++++++++++++++++++++++++++++++++++++++++++++++++++++++++++++++++++++++++++++++
(PID.TID 0000.0001) //     38 ++++++++++++++++++++++++++++++++++++++++++++++++++++++++++++++++++++++++++++++++++++++++
(PID.TID 0000.0001) //     37 ++++++++++++++++++++++++++++++++++++++++++++++++++++++++++++++++++++++++++++++++++++++++
(PID.TID 0000.0001) //     36 ++++++++++++++++++++++++++++++++++++++++++++++++++++++++++++++++++++++++++++++++++++++++
(PID.TID 0000.0001) //     35 ++++++++++++++++++++++++++++++++++++++++++++++++++++++++++++++++++++++++++++++++++++++++
(PID.TID 0000.0001) //     34 ++++++++++++++++++++++++++++++++++++++++++++++++++++++++++++++++++++++++++++++++++++++++
(PID.TID 0000.0001) //     33 ++++++++++++++++++++++++++++++++++++++++++++++++++++++++++++++++++++++++++++++++++++++++
(PID.TID 0000.0001) //     32 ++++++++++++++++++++++++++++++++++++++++++++++++++++++++++++++++++++++++++++++++++++++++
(PID.TID 0000.0001) //     31 ++++++++++++++++++++++++++++++++++++++++++++++++++++++++++++++++++++++++++++++++++++++++
(PID.TID 0000.0001) //     30 ++++++++++++++++++++++++++++++++++++++++++++++++++++++++++++++++++++++++++++++++++++++++
(PID.TID 0000.0001) //     29 ++++++++++++++++++++++++++++++++++++++++++++++++++++++++++++++++++++++++++++++++++++++++
(PID.TID 0000.0001) //     28 ++++++++++++++++++++++++++++++++++++++++++++++++++++++++++++++++++++++++++++++++++++++++
(PID.TID 0000.0001) //     27 ++++++++++++++++++++++++++++++++++++++++++++++++++++++++++++++++++++++++++++++++++++++++
(PID.TID 0000.0001) //     26 ++++++++++++++++++++++++++++++++++++++++++++++++++++++++++++++++++++++++++++++++++++++++
(PID.TID 0000.0001) //     25 ++++++++++++++++++++++++++++++++++++++++++++++++++++++++++++++++++++++++++++++++++++++++
(PID.TID 0000.0001) //     24 ++++++++++++++++++++++++++++++++++++++++++++++++++++++++++++++++++++++++++++++++++++++++
(PID.TID 0000.0001) //     23 +++++++++++++++++++++++++++++++++++++++++--++--+++++++++++++++++++++++++++++++++++++++++
(PID.TID 0000.0001) //     22 +++++++++++++++++++++++++++++++++++++++++--++--+++++++++++++++++++++++++++++++++++++++++
(PID.TID 0000.0001) //     21 +++++++++++++++++++++++++++++++++++++++++--++--+++++++++++++++++++++++++++++++++++++++++
(PID.TID 0000.0001) //     20 ++++++++++++++++++++++++++++++++++++++++++++++++++++++++++++++++++++++++++++++++++++++++
(PID.TID 0000.0001) //     23 +++++++++++++++++++++++++++++++++++++++++--++--+++++++++++++++++++++++++++++++++++++++++
(PID.TID 0000.0001) //     22 +++++++++++++++++++++++++++++++++++++++++--++--+++++++++++++++++++++++++++++++++++++++++
(PID.TID 0000.0001) //     21 +++++++++++++++++++++++++++++++++++++++++--++--+++++++++++++++++++++++++++++++++++++++++
(PID.TID 0000.0001) //     20 ++++++++++++++++++++++++++++++++++++++++++++++++++++++++++++++++++++++++++++++++++++++++
(PID.TID 0000.0001) //     19 ++++++++++++++++++++++++++++++++++++++++++++++++++++++++++++++++++++++++++++++++++++++++
(PID.TID 0000.0001) //     18 ++++++++++++++++++++++++++++++++++++++++++++++++++++++++++++++++++++++++++++++++++++++++
(PID.TID 0000.0001) //     17 ++++++++++++++++++++++++++++++++++++++++++++++++++++++++++++++++++++++++++++++++++++++++
(PID.TID 0000.0001) //     16 ++++++++++++++++++++++++++++++++++++++++++++++++++++++++++++++++++++++++++++++++++++++++
(PID.TID 0000.0001) //     15 ++++++++++++++++++++++++++++++++++++++++++++++++++++++++++++++++++++++++++++++++++++++++
(PID.TID 0000.0001) //     14 ++++++++++++++++++++++++++++++++++++++++++++++++++++++++++++++++++++++++++++++++++++++++
(PID.TID 0000.0001) //     13 ++++++++++++++++++++++++++++++++++++++++++++++++++++++++++++++++++++++++++++++++++++++++
(PID.TID 0000.0001) //     12 ++++++++++++++++++++++++++++++++++++++++++++++++++++++++++++++++++++++++++++++++++++++++
(PID.TID 0000.0001) //     11 ++++++++++++++++++++++++++++++++++++++++++++++++++++++++++++++++++++++++++++++++++++++++
(PID.TID 0000.0001) //     10 ++++++++++++++++++++++++++++++++++++++++++++++++++++++++++++++++++++++++++++++++++++++++
(PID.TID 0000.0001) //      9 ++++++++++++++++++++++++++++++++++++++++++++++++++++++++++++++++++++++++++++++++++++++++
(PID.TID 0000.0001) //      8 ++++++++++++++++++++++++++++++++++++++++++++++++++++++++++++++++++++++++++++++++++++++++
(PID.TID 0000.0001) //      7 ++++++++++++++++++++++++++++++++++++++++++++++++++++++++++++++++++++++++++++++++++++++++
(PID.TID 0000.0001) //      6 ++++++++++++++++++++++++++++++++++++++++++++++++++++++++++++++++++++++++++++++++++++++++
(PID.TID 0000.0001) //      5 ++++++++++++++++++++++++++++++++++++++++++++++++++++++++++++++++++++++++++++++++++++++++
(PID.TID 0000.0001) //      4 ++++++++++++++++++++++++++++++++++++++++++++++++++++++++++++++++++++++++++++++++++++++++
(PID.TID 0000.0001) //      3 ++++++++++++++++++++++++++++++++++++++++++++++++++++++++++++++++++++++++++++++++++++++++
(PID.TID 0000.0001) //      2 ++++++++++++++++++++++++++++++++++++++++++++++++++++++++++++++++++++++++++++++++++++++++
(PID.TID 0000.0001) //      1 ++++++++++++++++++++++++++++++++++++++++++++++++++++++++++++++++++++++++++++++++++++++++
(PID.TID 0000.0001) //      0 ++++++++++++++++++++++++++++++++++++++++++++++++++++++++++++++++++++++++++++++++++++++++
(PID.TID 0000.0001) //     -1 ++++++++++++++++++++++++++++++++++++++++++++++++++++++++++++++++++++++++++++++++++++++++
(PID.TID 0000.0001) // =======================================================
(PID.TID 0000.0001) // END OF FIELD                                          =
(PID.TID 0000.0001) // =======================================================
(PID.TID 0000.0001) 
(PID.TID 0000.0001) GAD_INIT_FIXED: GAD_OlMinSize=  1  0  1
(PID.TID 0000.0001) 
(PID.TID 0000.0001) // ===================================
(PID.TID 0000.0001) // GAD parameters :
(PID.TID 0000.0001) // ===================================
(PID.TID 0000.0001) tempAdvScheme =   /* Temp. Horiz.Advection scheme selector */
(PID.TID 0000.0001)                       2
(PID.TID 0000.0001)     ;
(PID.TID 0000.0001) tempVertAdvScheme =   /* Temp. Vert. Advection scheme selector */
(PID.TID 0000.0001)                       2
(PID.TID 0000.0001)     ;
(PID.TID 0000.0001) tempMultiDimAdvec =   /* use Muti-Dim Advec method for Temp */
(PID.TID 0000.0001)                   F
(PID.TID 0000.0001)     ;
(PID.TID 0000.0001) tempSOM_Advection = /* use 2nd Order Moment Advection for Temp */
(PID.TID 0000.0001)                   F
(PID.TID 0000.0001)     ;
(PID.TID 0000.0001) AdamsBashforthGt = /* apply Adams-Bashforth extrapolation on Gt */
(PID.TID 0000.0001)                   T
(PID.TID 0000.0001)     ;
(PID.TID 0000.0001) AdamsBashforth_T = /* apply Adams-Bashforth extrapolation on Temp */
(PID.TID 0000.0001)                   F
(PID.TID 0000.0001)     ;
(PID.TID 0000.0001) saltAdvScheme =   /* Salt. Horiz.advection scheme selector */
(PID.TID 0000.0001)                       2
(PID.TID 0000.0001)     ;
(PID.TID 0000.0001) saltVertAdvScheme =   /* Salt. Vert. Advection scheme selector */
(PID.TID 0000.0001)                       2
(PID.TID 0000.0001)     ;
(PID.TID 0000.0001) saltMultiDimAdvec =   /* use Muti-Dim Advec method for Salt */
(PID.TID 0000.0001)                   F
(PID.TID 0000.0001)     ;
(PID.TID 0000.0001) saltSOM_Advection = /* use 2nd Order Moment Advection for Salt */
(PID.TID 0000.0001)                   F
(PID.TID 0000.0001)     ;
(PID.TID 0000.0001) AdamsBashforthGs = /* apply Adams-Bashforth extrapolation on Gs */
(PID.TID 0000.0001)                   T
(PID.TID 0000.0001)     ;
(PID.TID 0000.0001) AdamsBashforth_S = /* apply Adams-Bashforth extrapolation on Salt */
(PID.TID 0000.0001)                   F
(PID.TID 0000.0001)     ;
(PID.TID 0000.0001) // ===================================
(PID.TID 0000.0001)   FLT_xLo,xHi=       -0.00000000   400000.00000000
(PID.TID 0000.0001)   FLT_yLo,yHi=       -0.00000000   210000.00000000
(PID.TID 0000.0001) %MON fCori_max                    =   1.0000000000000E-04
(PID.TID 0000.0001) %MON fCori_min                    =   1.0000000000000E-04
(PID.TID 0000.0001) %MON fCori_mean                   =   1.0000000000000E-04
(PID.TID 0000.0001) %MON fCori_sd                     =   1.6398557858843E-18
(PID.TID 0000.0001) %MON fCoriG_max                   =   1.0000000000000E-04
(PID.TID 0000.0001) %MON fCoriG_min                   =   1.0000000000000E-04
(PID.TID 0000.0001) %MON fCoriG_mean                  =   1.0000000000000E-04
(PID.TID 0000.0001) %MON fCoriG_sd                    =   1.6398557858843E-18
(PID.TID 0000.0001) %MON fCoriCos_max                 =   0.0000000000000E+00
(PID.TID 0000.0001) %MON fCoriCos_min                 =   0.0000000000000E+00
(PID.TID 0000.0001) %MON fCoriCos_mean                =   0.0000000000000E+00
(PID.TID 0000.0001) %MON fCoriCos_sd                  =   0.0000000000000E+00
(PID.TID 0000.0001) INI_CG2D: CG2D normalisation factor =  2.2222222222222223E-04
(PID.TID 0000.0001) 
(PID.TID 0000.0001) // =======================================================
(PID.TID 0000.0001) // Model configuration
(PID.TID 0000.0001) // =======================================================
(PID.TID 0000.0001) //
(PID.TID 0000.0001) // "Physical" paramters ( PARM01 in namelist )
(PID.TID 0000.0001) //
(PID.TID 0000.0001) buoyancyRelation = /* Type of relation to get Buoyancy */
(PID.TID 0000.0001)               'OCEANIC'
(PID.TID 0000.0001)     ;
(PID.TID 0000.0001) fluidIsAir   =  /* fluid major constituent is Air */
(PID.TID 0000.0001)                   F
(PID.TID 0000.0001)     ;
(PID.TID 0000.0001) fluidIsWater =  /* fluid major constituent is Water */
(PID.TID 0000.0001)                   T
(PID.TID 0000.0001)     ;
(PID.TID 0000.0001) usingPCoords =  /* use p (or p*) vertical coordinate */
(PID.TID 0000.0001)                   F
(PID.TID 0000.0001)     ;
(PID.TID 0000.0001) usingZCoords =  /* use z (or z*) vertical coordinate */
(PID.TID 0000.0001)                   T
(PID.TID 0000.0001)     ;
(PID.TID 0000.0001) tRef =   /* Reference temperature profile ( oC or K ) */
(PID.TID 0000.0001)                 6.968340000000000E-01,      /* K =  1 */
(PID.TID 0000.0001)                 4.977380000000000E-01,      /* K =  2 */
(PID.TID 0000.0001)                 2.986430000000000E-01,      /* K =  3 */
(PID.TID 0000.0001)                 9.954770000000000E-02,      /* K =  4 */
(PID.TID 0000.0001)                -9.954770000000000E-02,      /* K =  5 */
(PID.TID 0000.0001)                -2.986430000000000E-01,      /* K =  6 */
(PID.TID 0000.0001)                -4.977380000000000E-01,      /* K =  7 */
(PID.TID 0000.0001)                -6.968340000000000E-01       /* K =  8 */
(PID.TID 0000.0001)     ;
(PID.TID 0000.0001) sRef =   /* Reference salinity profile ( psu ) */
(PID.TID 0000.0001)     8 @  3.500000000000000E+01              /* K =  1:  8 */
(PID.TID 0000.0001)     ;
(PID.TID 0000.0001) useStrainTensionVisc= /* Use StrainTension Form of Viscous Operator */
(PID.TID 0000.0001)                   F
(PID.TID 0000.0001)     ;
(PID.TID 0000.0001) useVariableVisc = /* Use variable horizontal viscosity */
(PID.TID 0000.0001)                   F
(PID.TID 0000.0001)     ;
(PID.TID 0000.0001) useHarmonicVisc = /* Use harmonic horizontal viscosity */
(PID.TID 0000.0001)                   T
(PID.TID 0000.0001)     ;
(PID.TID 0000.0001) useBiharmonicVisc= /* Use biharmonic horiz.  viscosity */
(PID.TID 0000.0001)                   F
(PID.TID 0000.0001)     ;
(PID.TID 0000.0001) useSmag3D = /* Use isotropic 3-D Smagorinsky viscosity */
(PID.TID 0000.0001)                   F
(PID.TID 0000.0001)     ;
(PID.TID 0000.0001) viscAh  =   /* Lateral harmonic viscosity ( m^2/s ) */
(PID.TID 0000.0001)                 1.000000000000000E+03
(PID.TID 0000.0001)     ;
(PID.TID 0000.0001) viscA4  =   /* Lateral biharmonic viscosity ( m^4/s ) */
(PID.TID 0000.0001)                 0.000000000000000E+00
(PID.TID 0000.0001)     ;
(PID.TID 0000.0001) no_slip_sides =  /* Viscous BCs: No-slip sides */
(PID.TID 0000.0001)                   F
(PID.TID 0000.0001)     ;
(PID.TID 0000.0001) sideDragFactor = /* side-drag scaling factor (non-dim) */
(PID.TID 0000.0001)                 2.000000000000000E+00
(PID.TID 0000.0001)     ;
(PID.TID 0000.0001) viscArNr = /* vertical profile of vertical viscosity ( m^2/s )*/
(PID.TID 0000.0001)     8 @  1.000000000000000E-03              /* K =  1:  8 */
(PID.TID 0000.0001)     ;
(PID.TID 0000.0001) no_slip_bottom =  /* Viscous BCs: No-slip bottom */
(PID.TID 0000.0001)                   F
(PID.TID 0000.0001)     ;
(PID.TID 0000.0001) bottomDragLinear = /* linear bottom-drag coefficient ( m/s ) */
(PID.TID 0000.0001)                 0.000000000000000E+00
(PID.TID 0000.0001)     ;
(PID.TID 0000.0001) bottomDragQuadratic = /* quadratic bottom-drag coefficient (-) */
(PID.TID 0000.0001)                 0.000000000000000E+00
(PID.TID 0000.0001)     ;
(PID.TID 0000.0001) diffKhT =   /* Laplacian diffusion of heat laterally ( m^2/s ) */
(PID.TID 0000.0001)                 1.000000000000000E+03
(PID.TID 0000.0001)     ;
(PID.TID 0000.0001) diffK4T =   /* Biharmonic diffusion of heat laterally ( m^4/s ) */
(PID.TID 0000.0001)                 0.000000000000000E+00
(PID.TID 0000.0001)     ;
(PID.TID 0000.0001) diffKhS =   /* Laplacian diffusion of salt laterally ( m^2/s ) */
(PID.TID 0000.0001)                 1.000000000000000E+03
(PID.TID 0000.0001)     ;
(PID.TID 0000.0001) diffK4S =   /* Biharmonic diffusion of salt laterally ( m^4/s ) */
(PID.TID 0000.0001)                 0.000000000000000E+00
(PID.TID 0000.0001)     ;
(PID.TID 0000.0001) diffKrNrT = /* vertical profile of vertical diffusion of Temp ( m^2/s )*/
(PID.TID 0000.0001)     8 @  1.000000000000000E-05              /* K =  1:  8 */
(PID.TID 0000.0001)     ;
(PID.TID 0000.0001) diffKrNrS = /* vertical profile of vertical diffusion of Salt ( m^2/s )*/
(PID.TID 0000.0001)     8 @  1.000000000000000E-05              /* K =  1:  8 */
(PID.TID 0000.0001)     ;
(PID.TID 0000.0001) diffKrBL79surf = /* Surface diffusion for Bryan and Lewis 79 ( m^2/s ) */
(PID.TID 0000.0001)                 0.000000000000000E+00
(PID.TID 0000.0001)     ;
(PID.TID 0000.0001) diffKrBL79deep = /* Deep diffusion for Bryan and Lewis 1979 ( m^2/s ) */
(PID.TID 0000.0001)                 0.000000000000000E+00
(PID.TID 0000.0001)     ;
(PID.TID 0000.0001) diffKrBL79scl = /* Depth scale for Bryan and Lewis 1979 ( m ) */
(PID.TID 0000.0001)                 2.000000000000000E+02
(PID.TID 0000.0001)     ;
(PID.TID 0000.0001) diffKrBL79Ho = /* Turning depth for Bryan and Lewis 1979 ( m ) */
(PID.TID 0000.0001)                -2.000000000000000E+03
(PID.TID 0000.0001)     ;
(PID.TID 0000.0001) ivdc_kappa = /* Implicit Vertical Diffusivity for Convection ( m^2/s) */
(PID.TID 0000.0001)                 0.000000000000000E+00
(PID.TID 0000.0001)     ;
(PID.TID 0000.0001) hMixCriteria=  /* Criteria for mixed-layer diagnostic */
(PID.TID 0000.0001)                -8.000000000000000E-01
(PID.TID 0000.0001)     ;
(PID.TID 0000.0001) dRhoSmall =  /* Parameter for mixed-layer diagnostic */
(PID.TID 0000.0001)                 1.000000000000000E-06
(PID.TID 0000.0001)     ;
(PID.TID 0000.0001) hMixSmooth=  /* Smoothing parameter for mixed-layer diagnostic */
(PID.TID 0000.0001)                 0.000000000000000E+00
(PID.TID 0000.0001)     ;
(PID.TID 0000.0001) eosType =  /* Type of Equation of State */
(PID.TID 0000.0001)               'LINEAR'
(PID.TID 0000.0001)     ;
(PID.TID 0000.0001) tAlpha = /* Linear EOS thermal expansion coefficient ( 1/oC ) */
(PID.TID 0000.0001)                 2.000000000000000E-04
(PID.TID 0000.0001)     ;
(PID.TID 0000.0001) sBeta  = /* Linear EOS haline contraction coefficient ( 1/psu ) */
(PID.TID 0000.0001)                 0.000000000000000E+00
(PID.TID 0000.0001)     ;
(PID.TID 0000.0001) rhoNil    = /* Reference density for Linear EOS ( kg/m^3 ) */
(PID.TID 0000.0001)                 9.998000000000000E+02
(PID.TID 0000.0001)     ;
(PID.TID 0000.0001) celsius2K = /* 0 degree Celsius converted to Kelvin ( K ) */
(PID.TID 0000.0001)                 2.731500000000000E+02
(PID.TID 0000.0001)     ;
(PID.TID 0000.0001) rhoConst  = /* Reference density (Boussinesq)  ( kg/m^3 ) */
(PID.TID 0000.0001)                 9.998000000000000E+02
(PID.TID 0000.0001)     ;
(PID.TID 0000.0001) rhoFacC = /* normalized Reference density @ cell-Center (-) */
(PID.TID 0000.0001)     8 @  1.000000000000000E+00              /* K =  1:  8 */
(PID.TID 0000.0001)     ;
(PID.TID 0000.0001) rhoFacF = /* normalized Reference density @ W-Interface (-) */
(PID.TID 0000.0001)     9 @  1.000000000000000E+00              /* K =  1:  9 */
(PID.TID 0000.0001)     ;
(PID.TID 0000.0001) rhoConstFresh = /* Fresh-water reference density ( kg/m^3 ) */
(PID.TID 0000.0001)                 9.998000000000000E+02
(PID.TID 0000.0001)     ;
(PID.TID 0000.0001) gravity =   /* Gravitational acceleration ( m/s^2 ) */
(PID.TID 0000.0001)                 9.810000000000000E+00
(PID.TID 0000.0001)     ;
(PID.TID 0000.0001) gBaro =   /* Barotropic gravity ( m/s^2 ) */
(PID.TID 0000.0001)                 9.810000000000000E+00
(PID.TID 0000.0001)     ;
(PID.TID 0000.0001) rotationPeriod =   /* Rotation Period ( s ) */
(PID.TID 0000.0001)                 8.616400000000000E+04
(PID.TID 0000.0001)     ;
(PID.TID 0000.0001) omega =   /* Angular velocity ( rad/s ) */
(PID.TID 0000.0001)                 7.292123516990375E-05
(PID.TID 0000.0001)     ;
(PID.TID 0000.0001) f0 =   /* Reference coriolis parameter ( 1/s ) */
(PID.TID 0000.0001)                 1.000000000000000E-04
(PID.TID 0000.0001)     ;
(PID.TID 0000.0001) beta =   /* Beta ( 1/(m.s) ) */
(PID.TID 0000.0001)                 0.000000000000000E+00
(PID.TID 0000.0001)     ;
(PID.TID 0000.0001) fPrime =   /* Second coriolis parameter ( 1/s ) */
(PID.TID 0000.0001)                 0.000000000000000E+00
(PID.TID 0000.0001)     ;
(PID.TID 0000.0001) rigidLid =   /* Rigid lid on/off flag */
(PID.TID 0000.0001)                   F
(PID.TID 0000.0001)     ;
(PID.TID 0000.0001) implicitFreeSurface =   /* Implicit free surface on/off flag */
(PID.TID 0000.0001)                   T
(PID.TID 0000.0001)     ;
(PID.TID 0000.0001) freeSurfFac =   /* Implicit free surface factor */
(PID.TID 0000.0001)                 1.000000000000000E+00
(PID.TID 0000.0001)     ;
(PID.TID 0000.0001) implicSurfPress =  /* Surface Pressure implicit factor (0-1)*/
(PID.TID 0000.0001)                 1.000000000000000E+00
(PID.TID 0000.0001)     ;
(PID.TID 0000.0001) implicDiv2Dflow =  /* Barot. Flow Div. implicit factor (0-1)*/
(PID.TID 0000.0001)                 1.000000000000000E+00
(PID.TID 0000.0001)     ;
(PID.TID 0000.0001) uniformLin_PhiSurf = /* use uniform Bo_surf on/off flag*/
(PID.TID 0000.0001)                   T
(PID.TID 0000.0001)     ;
(PID.TID 0000.0001) uniformFreeSurfLev = /* free-surface level-index is uniform */
(PID.TID 0000.0001)                   T
(PID.TID 0000.0001)     ;
(PID.TID 0000.0001) hFacMin =   /* minimum partial cell factor (hFac) */
(PID.TID 0000.0001)                 2.000000000000000E-01
(PID.TID 0000.0001)     ;
(PID.TID 0000.0001) hFacMinDr = /* minimum partial cell thickness ( m) */
(PID.TID 0000.0001)                 2.000000000000000E-01
(PID.TID 0000.0001)     ;
(PID.TID 0000.0001) exactConserv =  /* Exact Volume Conservation on/off flag*/
(PID.TID 0000.0001)                   F
(PID.TID 0000.0001)     ;
(PID.TID 0000.0001) linFSConserveTr = /* Tracer correction for Lin Free Surface on/off flag*/
(PID.TID 0000.0001)                   F
(PID.TID 0000.0001)     ;
(PID.TID 0000.0001) nonlinFreeSurf = /* Non-linear Free Surf. options (-1,0,1,2,3)*/
(PID.TID 0000.0001)                       0
(PID.TID 0000.0001)      -1,0= Off ; 1,2,3= On, 2=+rescale gU,gV, 3=+update cg2d solv.
(PID.TID 0000.0001)     ;
(PID.TID 0000.0001) hFacInf =   /* lower threshold for hFac (nonlinFreeSurf only)*/
(PID.TID 0000.0001)                 2.000000000000000E-01
(PID.TID 0000.0001)     ;
(PID.TID 0000.0001) hFacSup =   /* upper threshold for hFac (nonlinFreeSurf only)*/
(PID.TID 0000.0001)                 2.000000000000000E+00
(PID.TID 0000.0001)     ;
(PID.TID 0000.0001) select_rStar = /* r* Vertical coord. options (=0 r coord.; >0 uses r*)*/
(PID.TID 0000.0001)                       0
(PID.TID 0000.0001)     ;
(PID.TID 0000.0001) useRealFreshWaterFlux = /* Real Fresh Water Flux on/off flag*/
(PID.TID 0000.0001)                   F
(PID.TID 0000.0001)     ;
(PID.TID 0000.0001) temp_EvPrRn = /* Temp. of Evap/Prec/R (UNSET=use local T)(oC)*/
(PID.TID 0000.0001)                 1.234567000000000E+05
(PID.TID 0000.0001)     ;
(PID.TID 0000.0001) salt_EvPrRn = /* Salin. of Evap/Prec/R (UNSET=use local S)(psu)*/
(PID.TID 0000.0001)                 0.000000000000000E+00
(PID.TID 0000.0001)     ;
(PID.TID 0000.0001) selectAddFluid = /* option for mass source/sink of fluid (=0: off) */
(PID.TID 0000.0001)                       0
(PID.TID 0000.0001)     ;
(PID.TID 0000.0001) temp_addMass = /* Temp. of addMass array (UNSET=use local T)(oC)*/
(PID.TID 0000.0001)                 1.234567000000000E+05
(PID.TID 0000.0001)     ;
(PID.TID 0000.0001) salt_addMass = /* Salin. of addMass array (UNSET=use local S)(psu)*/
(PID.TID 0000.0001)                 0.000000000000000E+00
(PID.TID 0000.0001)     ;
(PID.TID 0000.0001) convertFW2Salt = /* convert F.W. Flux to Salt Flux (-1=use local S)(psu)*/
(PID.TID 0000.0001)                 3.500000000000000E+01
(PID.TID 0000.0001)     ;
(PID.TID 0000.0001) use3Dsolver = /* use 3-D pressure solver on/off flag */
(PID.TID 0000.0001)                   F
(PID.TID 0000.0001)     ;
(PID.TID 0000.0001) nonHydrostatic =  /* Non-Hydrostatic on/off flag */
(PID.TID 0000.0001)                   F
(PID.TID 0000.0001)     ;
(PID.TID 0000.0001) nh_Am2 = /* Non-Hydrostatic terms scaling factor */
(PID.TID 0000.0001)                 1.000000000000000E+00
(PID.TID 0000.0001)     ;
(PID.TID 0000.0001) implicitNHPress = /* Non-Hyd Pressure implicit factor (0-1)*/
(PID.TID 0000.0001)                 1.000000000000000E+00
(PID.TID 0000.0001)     ;
(PID.TID 0000.0001) selectNHfreeSurf = /* Non-Hyd (free-)Surface option */
(PID.TID 0000.0001)                       0
(PID.TID 0000.0001)     ;
(PID.TID 0000.0001) quasiHydrostatic = /* Quasi-Hydrostatic on/off flag */
(PID.TID 0000.0001)                   F
(PID.TID 0000.0001)     ;
(PID.TID 0000.0001) calc_wVelocity = /* vertical velocity calculation on/off flag */
(PID.TID 0000.0001)                   T
(PID.TID 0000.0001)     ;
(PID.TID 0000.0001) momStepping =  /* Momentum equation on/off flag */
(PID.TID 0000.0001)                   T
(PID.TID 0000.0001)     ;
(PID.TID 0000.0001) vectorInvariantMomentum= /* Vector-Invariant Momentum on/off */
(PID.TID 0000.0001)                   F
(PID.TID 0000.0001)     ;
(PID.TID 0000.0001) momAdvection =  /* Momentum advection on/off flag */
(PID.TID 0000.0001)                   T
(PID.TID 0000.0001)     ;
(PID.TID 0000.0001) momViscosity =  /* Momentum viscosity on/off flag */
(PID.TID 0000.0001)                   T
(PID.TID 0000.0001)     ;
(PID.TID 0000.0001) momImplVertAdv= /* Momentum implicit vert. advection on/off*/
(PID.TID 0000.0001)                   F
(PID.TID 0000.0001)     ;
(PID.TID 0000.0001) implicitViscosity = /* Implicit viscosity on/off flag */
(PID.TID 0000.0001)                   F
(PID.TID 0000.0001)     ;
(PID.TID 0000.0001) metricTerms =  /* metric-Terms on/off flag */
(PID.TID 0000.0001)                   F
(PID.TID 0000.0001)     ;
(PID.TID 0000.0001) useNHMTerms = /* Non-Hydrostatic Metric-Terms on/off */
(PID.TID 0000.0001)                   F
(PID.TID 0000.0001)     ;
(PID.TID 0000.0001) selectCoriMap = /* Coriolis Map options (0,1,2,3)*/
(PID.TID 0000.0001)                       1
(PID.TID 0000.0001)     0= f-Plane ; 1= Beta-Plane ; 2= Spherical ; 3= read from file
(PID.TID 0000.0001)     ;
(PID.TID 0000.0001) use3dCoriolis = /* 3-D Coriolis on/off flag */
(PID.TID 0000.0001)                   F
(PID.TID 0000.0001)     ;
(PID.TID 0000.0001) useCoriolis =  /* Coriolis on/off flag */
(PID.TID 0000.0001)                   T
(PID.TID 0000.0001)     ;
(PID.TID 0000.0001) useCDscheme =  /* CD scheme on/off flag */
(PID.TID 0000.0001)                   F
(PID.TID 0000.0001)     ;
(PID.TID 0000.0001) useEnergyConservingCoriolis= /* Flx-Form Coriolis scheme flag */
(PID.TID 0000.0001)                   F
(PID.TID 0000.0001)     ;
(PID.TID 0000.0001) useJamartWetPoints= /* Coriolis WetPoints method flag */
(PID.TID 0000.0001)                   F
(PID.TID 0000.0001)     ;
(PID.TID 0000.0001) useJamartMomAdv= /* V.I Non-linear terms Jamart flag */
(PID.TID 0000.0001)                   F
(PID.TID 0000.0001)     ;
(PID.TID 0000.0001) useAbsVorticity= /* V.I Works with f+zeta in Coriolis */
(PID.TID 0000.0001)                   F
(PID.TID 0000.0001)     ;
(PID.TID 0000.0001) selectVortScheme= /* V.I Scheme selector for Vorticity-Term */
(PID.TID 0000.0001)               123456789
(PID.TID 0000.0001)    = 0 : enstrophy (Shallow-Water Eq.) conserving scheme by Sadourny, JAS 75
(PID.TID 0000.0001)    = 1 : same as 0 with modified hFac
(PID.TID 0000.0001)    = 2 : energy conserving scheme (used by Sadourny in JAS 75 paper)
(PID.TID 0000.0001)    = 3 : energy (general) and enstrophy (2D, nonDiv.) conserving scheme
(PID.TID 0000.0001)          from Sadourny (Burridge & Haseler, ECMWF Rep.4, 1977)
(PID.TID 0000.0001)     ;
(PID.TID 0000.0001) upwindVorticity= /* V.I Upwind bias vorticity flag */
(PID.TID 0000.0001)                   F
(PID.TID 0000.0001)     ;
(PID.TID 0000.0001) highOrderVorticity= /* V.I High order vort. advect. flag */
(PID.TID 0000.0001)                   F
(PID.TID 0000.0001)     ;
(PID.TID 0000.0001) upwindShear= /* V.I Upwind vertical Shear advection flag */
(PID.TID 0000.0001)                   F
(PID.TID 0000.0001)     ;
(PID.TID 0000.0001) selectKEscheme= /* V.I Kinetic Energy scheme selector */
(PID.TID 0000.0001)                       0
(PID.TID 0000.0001)     ;
(PID.TID 0000.0001) momForcing =  /* Momentum forcing on/off flag */
(PID.TID 0000.0001)                   T
(PID.TID 0000.0001)     ;
(PID.TID 0000.0001) momPressureForcing =  /* Momentum pressure term on/off flag */
(PID.TID 0000.0001)                   T
(PID.TID 0000.0001)     ;
(PID.TID 0000.0001) implicitIntGravWave= /* Implicit Internal Gravity Wave flag */
(PID.TID 0000.0001)                   F
(PID.TID 0000.0001)     ;
(PID.TID 0000.0001) staggerTimeStep =    /* Stagger time stepping on/off flag */
(PID.TID 0000.0001)                   F
(PID.TID 0000.0001)     ;
(PID.TID 0000.0001) doResetHFactors = /* reset thickness factors @ each time-step */
(PID.TID 0000.0001)                   F
(PID.TID 0000.0001)     ;
(PID.TID 0000.0001) multiDimAdvection =  /* enable/disable Multi-Dim Advection */
(PID.TID 0000.0001)                   T
(PID.TID 0000.0001)     ;
(PID.TID 0000.0001) useMultiDimAdvec =   /* Multi-Dim Advection is/is-not used */
(PID.TID 0000.0001)                   F
(PID.TID 0000.0001)     ;
(PID.TID 0000.0001) implicitDiffusion = /* Implicit Diffusion on/off flag */
(PID.TID 0000.0001)                   F
(PID.TID 0000.0001)     ;
(PID.TID 0000.0001) tempStepping =  /* Temperature equation on/off flag */
(PID.TID 0000.0001)                   T
(PID.TID 0000.0001)     ;
(PID.TID 0000.0001) tempAdvection = /* Temperature advection on/off flag */
(PID.TID 0000.0001)                   T
(PID.TID 0000.0001)     ;
(PID.TID 0000.0001) tempImplVertAdv = /* Temp. implicit vert. advection on/off */
(PID.TID 0000.0001)                   F
(PID.TID 0000.0001)     ;
(PID.TID 0000.0001) tempForcing  =  /* Temperature forcing on/off flag */
(PID.TID 0000.0001)                   T
(PID.TID 0000.0001)     ;
(PID.TID 0000.0001) doThetaClimRelax = /* apply SST relaxation on/off flag */
(PID.TID 0000.0001)                   F
(PID.TID 0000.0001)     ;
(PID.TID 0000.0001) tempIsActiveTr = /* Temp. is a dynamically Active Tracer */
(PID.TID 0000.0001)                   T
(PID.TID 0000.0001)     ;
(PID.TID 0000.0001) saltStepping =  /* Salinity equation on/off flag */
(PID.TID 0000.0001)                   T
(PID.TID 0000.0001)     ;
(PID.TID 0000.0001) saltAdvection = /* Salinity advection on/off flag */
(PID.TID 0000.0001)                   T
(PID.TID 0000.0001)     ;
(PID.TID 0000.0001) saltImplVertAdv = /* Sali. implicit vert. advection on/off */
(PID.TID 0000.0001)                   F
(PID.TID 0000.0001)     ;
(PID.TID 0000.0001) saltForcing  =  /* Salinity forcing on/off flag */
(PID.TID 0000.0001)                   T
(PID.TID 0000.0001)     ;
(PID.TID 0000.0001) doSaltClimRelax = /* apply SSS relaxation on/off flag */
(PID.TID 0000.0001)                   F
(PID.TID 0000.0001)     ;
(PID.TID 0000.0001) saltIsActiveTr = /* Salt  is a dynamically Active Tracer */
(PID.TID 0000.0001)                   F
(PID.TID 0000.0001)     ;
(PID.TID 0000.0001)  readBinaryPrec = /* Precision used for reading binary files */
(PID.TID 0000.0001)                      64
(PID.TID 0000.0001)     ;
(PID.TID 0000.0001) writeBinaryPrec = /* Precision used for writing binary files */
(PID.TID 0000.0001)                      32
(PID.TID 0000.0001)     ;
(PID.TID 0000.0001)  globalFiles = /* write "global" (=not per tile) files */
(PID.TID 0000.0001)                   F
(PID.TID 0000.0001)     ;
(PID.TID 0000.0001)  useSingleCpuIO = /* only master MPI process does I/O */
(PID.TID 0000.0001)                   F
(PID.TID 0000.0001)     ;
(PID.TID 0000.0001) /* debLev[*]  : level of debug & auxiliary message printing */
(PID.TID 0000.0001) debLevZero =  0 ; /* level of disabled aux. msg printing */
(PID.TID 0000.0001)    debLevA =  1 ; /* level of minimum  aux. msg printing */
(PID.TID 0000.0001)    debLevB =  2 ; /* level of low aux. print (report read-file opening)*/
(PID.TID 0000.0001)    debLevC =  3 ; /* level of moderate debug prt (most pkgs debug msg) */
(PID.TID 0000.0001)    debLevD =  4 ; /* level of enhanced debug prt (add DEBUG_STATS prt) */
(PID.TID 0000.0001)    debLevE =  5 ; /* level of extensive debug printing */
(PID.TID 0000.0001) debugLevel =  /* select debug printing level */
(PID.TID 0000.0001)                       2
(PID.TID 0000.0001)     ;
(PID.TID 0000.0001) //
(PID.TID 0000.0001) // Elliptic solver(s) paramters ( PARM02 in namelist )
(PID.TID 0000.0001) //
(PID.TID 0000.0001) cg2dMaxIters =   /* Upper limit on 2d con. grad iterations  */
(PID.TID 0000.0001)                    1000
(PID.TID 0000.0001)     ;
(PID.TID 0000.0001) cg2dChkResFreq =   /* 2d con. grad convergence test frequency */
(PID.TID 0000.0001)                       1
(PID.TID 0000.0001)     ;
(PID.TID 0000.0001) cg2dUseMinResSol= /* use cg2d last-iter(=0) / min-resid.(=1) solution */
(PID.TID 0000.0001)                       0
(PID.TID 0000.0001)     ;
(PID.TID 0000.0001) cg2dTargetResidual =   /* 2d con. grad target residual  */
(PID.TID 0000.0001)                 1.000000000000000E-09
(PID.TID 0000.0001)     ;
(PID.TID 0000.0001) cg2dTargetResWunit =   /* CG2d target residual [W units] */
(PID.TID 0000.0001)                -1.000000000000000E+00
(PID.TID 0000.0001)     ;
(PID.TID 0000.0001) cg2dPreCondFreq =   /* Freq. for updating cg2d preconditioner */
(PID.TID 0000.0001)                       1
(PID.TID 0000.0001)     ;
(PID.TID 0000.0001) useSRCGSolver =  /* use single reduction CG solver(s) */
(PID.TID 0000.0001)                   F
(PID.TID 0000.0001)     ;
(PID.TID 0000.0001) printResidualFreq = /* Freq. for printing CG residual */
(PID.TID 0000.0001)                       0
(PID.TID 0000.0001)     ;
(PID.TID 0000.0001) //
(PID.TID 0000.0001) // Time stepping paramters ( PARM03 in namelist )
(PID.TID 0000.0001) //
(PID.TID 0000.0001) deltaTMom =   /* Momentum equation timestep ( s ) */
(PID.TID 0000.0001)                 6.000000000000000E+02
(PID.TID 0000.0001)     ;
(PID.TID 0000.0001) deltaTFreeSurf = /* FreeSurface equation timestep ( s ) */
(PID.TID 0000.0001)                 6.000000000000000E+02
(PID.TID 0000.0001)     ;
(PID.TID 0000.0001) dTtracerLev =  /* Tracer equation timestep ( s ) */
(PID.TID 0000.0001)     8 @  6.000000000000000E+02              /* K =  1:  8 */
(PID.TID 0000.0001)     ;
(PID.TID 0000.0001) deltaTClock  =   /* Model clock timestep ( s ) */
(PID.TID 0000.0001)                 6.000000000000000E+02
(PID.TID 0000.0001)     ;
(PID.TID 0000.0001) cAdjFreq =   /* Convective adjustment interval ( s ) */
(PID.TID 0000.0001)                 0.000000000000000E+00
(PID.TID 0000.0001)     ;
(PID.TID 0000.0001) momForcingOutAB = /* =1: take Momentum Forcing out of Adams-Bash. stepping */
(PID.TID 0000.0001)                       0
(PID.TID 0000.0001)     ;
(PID.TID 0000.0001) tracForcingOutAB = /* =1: take T,S,pTr Forcing out of Adams-Bash. stepping */
(PID.TID 0000.0001)                       0
(PID.TID 0000.0001)     ;
(PID.TID 0000.0001) momDissip_In_AB = /* put Dissipation Tendency in Adams-Bash. stepping */
(PID.TID 0000.0001)                   T
(PID.TID 0000.0001)     ;
(PID.TID 0000.0001) doAB_onGtGs = /* apply AB on Tendencies (rather than on T,S)*/
(PID.TID 0000.0001)                   T
(PID.TID 0000.0001)     ;
(PID.TID 0000.0001) abEps =   /* Adams-Bashforth-2 stabilizing weight */
(PID.TID 0000.0001)                 1.000000000000000E-01
(PID.TID 0000.0001)     ;
(PID.TID 0000.0001) pickupStrictlyMatch= /* stop if pickup do not strictly match */
(PID.TID 0000.0001)                   T
(PID.TID 0000.0001)     ;
(PID.TID 0000.0001) nIter0   =   /* Run starting timestep number */
(PID.TID 0000.0001)                       0
(PID.TID 0000.0001)     ;
(PID.TID 0000.0001) nTimeSteps = /* Number of timesteps */
(PID.TID 0000.0001)                      18
(PID.TID 0000.0001)     ;
(PID.TID 0000.0001) nEndIter =   /* Run ending timestep number */
(PID.TID 0000.0001)                      18
(PID.TID 0000.0001)     ;
(PID.TID 0000.0001) baseTime =   /* Model base time ( s ) */
(PID.TID 0000.0001)                 0.000000000000000E+00
(PID.TID 0000.0001)     ;
(PID.TID 0000.0001) startTime =  /* Run start time ( s ) */
(PID.TID 0000.0001)                 0.000000000000000E+00
(PID.TID 0000.0001)     ;
(PID.TID 0000.0001) endTime  =   /* Integration ending time ( s ) */
(PID.TID 0000.0001)                 1.080000000000000E+04
(PID.TID 0000.0001)     ;
(PID.TID 0000.0001) pChkPtFreq = /* Permanent restart/pickup file interval ( s ) */
(PID.TID 0000.0001)                 0.000000000000000E+00
(PID.TID 0000.0001)     ;
(PID.TID 0000.0001) chkPtFreq  = /* Rolling restart/pickup file interval ( s ) */
(PID.TID 0000.0001)                 0.000000000000000E+00
(PID.TID 0000.0001)     ;
(PID.TID 0000.0001) pickup_write_mdsio =   /* Model IO flag. */
(PID.TID 0000.0001)                   T
(PID.TID 0000.0001)     ;
(PID.TID 0000.0001) pickup_read_mdsio =   /* Model IO flag. */
(PID.TID 0000.0001)                   T
(PID.TID 0000.0001)     ;
(PID.TID 0000.0001) pickup_write_immed =   /* Model IO flag. */
(PID.TID 0000.0001)                   F
(PID.TID 0000.0001)     ;
(PID.TID 0000.0001) writePickupAtEnd =   /* Model IO flag. */
(PID.TID 0000.0001)                   T
(PID.TID 0000.0001)     ;
(PID.TID 0000.0001) dumpFreq =   /* Model state write out interval ( s ). */
(PID.TID 0000.0001)                 4.320000000000000E+05
(PID.TID 0000.0001)     ;
(PID.TID 0000.0001) dumpInitAndLast= /* write out Initial & Last iter. model state */
(PID.TID 0000.0001)                   T
(PID.TID 0000.0001)     ;
(PID.TID 0000.0001) snapshot_mdsio =   /* Model IO flag. */
(PID.TID 0000.0001)                   T
(PID.TID 0000.0001)     ;
(PID.TID 0000.0001) monitorFreq =   /* Monitor output interval ( s ). */
(PID.TID 0000.0001)                 1.000000000000000E+00
(PID.TID 0000.0001)     ;
(PID.TID 0000.0001) monitorSelect = /* select group of variables to monitor */
(PID.TID 0000.0001)                       1
(PID.TID 0000.0001)     ;
(PID.TID 0000.0001) monitor_stdio =   /* Model IO flag. */
(PID.TID 0000.0001)                   T
(PID.TID 0000.0001)     ;
(PID.TID 0000.0001) externForcingPeriod =   /* forcing period (s) */
(PID.TID 0000.0001)                 0.000000000000000E+00
(PID.TID 0000.0001)     ;
(PID.TID 0000.0001) externForcingCycle =   /* period of the cyle (s). */
(PID.TID 0000.0001)                 0.000000000000000E+00
(PID.TID 0000.0001)     ;
(PID.TID 0000.0001) tauThetaClimRelax =   /* relaxation time scale (s) */
(PID.TID 0000.0001)                 0.000000000000000E+00
(PID.TID 0000.0001)     ;
(PID.TID 0000.0001) tauSaltClimRelax =   /* relaxation time scale (s) */
(PID.TID 0000.0001)                 0.000000000000000E+00
(PID.TID 0000.0001)     ;
(PID.TID 0000.0001) latBandClimRelax =   /* max. Lat. where relaxation */
(PID.TID 0000.0001)                 6.300000000000000E+05
(PID.TID 0000.0001)     ;
(PID.TID 0000.0001) //
(PID.TID 0000.0001) // Gridding paramters ( PARM04 in namelist )
(PID.TID 0000.0001) //
(PID.TID 0000.0001) usingCartesianGrid = /* Cartesian coordinates flag ( True/False ) */
(PID.TID 0000.0001)                   T
(PID.TID 0000.0001)     ;
(PID.TID 0000.0001) usingCylindricalGrid = /* Cylindrical coordinates flag ( True/False ) */
(PID.TID 0000.0001)                   F
(PID.TID 0000.0001)     ;
(PID.TID 0000.0001) usingSphericalPolarGrid = /* Spherical coordinates flag ( True/False ) */
(PID.TID 0000.0001)                   F
(PID.TID 0000.0001)     ;
(PID.TID 0000.0001) usingCurvilinearGrid = /* Curvilinear coordinates flag ( True/False ) */
(PID.TID 0000.0001)                   F
(PID.TID 0000.0001)     ;
(PID.TID 0000.0001) selectSigmaCoord = /* Hybrid-Sigma Vert. Coordinate option */
(PID.TID 0000.0001)                       0
(PID.TID 0000.0001)     ;
(PID.TID 0000.0001) Ro_SeaLevel = /* r(1) ( units of r ==  m ) */
(PID.TID 0000.0001)                 0.000000000000000E+00
(PID.TID 0000.0001)     ;
(PID.TID 0000.0001) rSigmaBnd = /* r/sigma transition ( units of r ==  m ) */
(PID.TID 0000.0001)                 1.234567000000000E+05
(PID.TID 0000.0001)     ;
(PID.TID 0000.0001) rkSign =   /* index orientation relative to vertical coordinate */
(PID.TID 0000.0001)                -1.000000000000000E+00
(PID.TID 0000.0001)     ;
(PID.TID 0000.0001) gravitySign = /* gravity orientation relative to vertical coordinate */
(PID.TID 0000.0001)                -1.000000000000000E+00
(PID.TID 0000.0001)     ;
(PID.TID 0000.0001) mass2rUnit = /* convert mass per unit area [kg/m2] to r-units [m] */
(PID.TID 0000.0001)                 1.000200040008002E-03
(PID.TID 0000.0001)     ;
(PID.TID 0000.0001) rUnit2mass = /* convert r-units [m] to mass per unit area [kg/m2] */
(PID.TID 0000.0001)                 9.998000000000000E+02
(PID.TID 0000.0001)     ;
(PID.TID 0000.0001) drC =   /* C spacing ( units of r ) */
(PID.TID 0000.0001)                 2.812500000000000E+02,      /* K =  1 */
(PID.TID 0000.0001)     7 @  5.625000000000000E+02,             /* K =  2:  8 */
(PID.TID 0000.0001)                 2.812500000000000E+02       /* K =  9 */
(PID.TID 0000.0001)     ;
(PID.TID 0000.0001) drF =   /* W spacing ( units of r ) */
(PID.TID 0000.0001)     8 @  5.625000000000000E+02              /* K =  1:  8 */
(PID.TID 0000.0001)     ;
(PID.TID 0000.0001) delX = /* U spacing ( m - cartesian, degrees - spherical ) */
(PID.TID 0000.0001)    80 @  5.000000000000000E+03              /* I =  1: 80 */
(PID.TID 0000.0001)     ;
(PID.TID 0000.0001) delY = /* V spacing ( m - cartesian, degrees - spherical ) */
(PID.TID 0000.0001)    42 @  5.000000000000000E+03              /* J =  1: 42 */
(PID.TID 0000.0001)     ;
(PID.TID 0000.0001) xgOrigin = /* X-axis origin of West  edge (cartesian: m, lat-lon: deg) */
(PID.TID 0000.0001)                 0.000000000000000E+00
(PID.TID 0000.0001)     ;
(PID.TID 0000.0001) ygOrigin = /* Y-axis origin of South edge (cartesian: m, lat-lon: deg) */
(PID.TID 0000.0001)                 0.000000000000000E+00
(PID.TID 0000.0001)     ;
(PID.TID 0000.0001) rSphere =  /* Radius ( ignored - cartesian, m - spherical ) */
(PID.TID 0000.0001)                 6.370000000000000E+06
(PID.TID 0000.0001)     ;
(PID.TID 0000.0001) deepAtmosphere = /* Deep/Shallow Atmosphere flag (True/False) */
(PID.TID 0000.0001)                   F
(PID.TID 0000.0001)     ;
(PID.TID 0000.0001) xC =  /* xC(:,1,:,1) : P-point X coord ( deg. or m if cartesian) */
(PID.TID 0000.0001)                 2.500000000000000E+03,      /* I =  1 */
(PID.TID 0000.0001)                 7.500000000000000E+03,      /* I =  2 */
(PID.TID 0000.0001)                 1.250000000000000E+04,      /* I =  3 */
(PID.TID 0000.0001)      . . .
(PID.TID 0000.0001)                 8.750000000000000E+04,      /* I = 18 */
(PID.TID 0000.0001)                 9.250000000000000E+04,      /* I = 19 */
(PID.TID 0000.0001)                 9.750000000000000E+04,      /* I = 20 */
(PID.TID 0000.0001)                 1.025000000000000E+05,      /* I = 21 */
(PID.TID 0000.0001)                 1.075000000000000E+05,      /* I = 22 */
(PID.TID 0000.0001)                 1.125000000000000E+05,      /* I = 23 */
(PID.TID 0000.0001)      . . .
(PID.TID 0000.0001)                 1.875000000000000E+05,      /* I = 38 */
(PID.TID 0000.0001)                 1.925000000000000E+05,      /* I = 39 */
(PID.TID 0000.0001)                 1.975000000000000E+05,      /* I = 40 */
(PID.TID 0000.0001)                 2.025000000000000E+05,      /* I = 41 */
(PID.TID 0000.0001)                 2.075000000000000E+05,      /* I = 42 */
(PID.TID 0000.0001)                 2.125000000000000E+05,      /* I = 43 */
(PID.TID 0000.0001)      . . .
(PID.TID 0000.0001)                 2.875000000000000E+05,      /* I = 58 */
(PID.TID 0000.0001)                 2.925000000000000E+05,      /* I = 59 */
(PID.TID 0000.0001)                 2.975000000000000E+05,      /* I = 60 */
(PID.TID 0000.0001)                 3.025000000000000E+05,      /* I = 61 */
(PID.TID 0000.0001)                 3.075000000000000E+05,      /* I = 62 */
(PID.TID 0000.0001)                 3.125000000000000E+05,      /* I = 63 */
(PID.TID 0000.0001)      . . .
(PID.TID 0000.0001)                 3.875000000000000E+05,      /* I = 78 */
(PID.TID 0000.0001)                 3.925000000000000E+05,      /* I = 79 */
(PID.TID 0000.0001)                 3.975000000000000E+05       /* I = 80 */
(PID.TID 0000.0001)     ;
(PID.TID 0000.0001) yC =  /* yC(1,:,1,:) : P-point Y coord ( deg. or m if cartesian) */
(PID.TID 0000.0001)                 2.500000000000000E+03,      /* J =  1 */
(PID.TID 0000.0001)                 7.500000000000000E+03,      /* J =  2 */
(PID.TID 0000.0001)                 1.250000000000000E+04,      /* J =  3 */
(PID.TID 0000.0001)                 1.750000000000000E+04,      /* J =  4 */
(PID.TID 0000.0001)                 2.250000000000000E+04,      /* J =  5 */
(PID.TID 0000.0001)                 2.750000000000000E+04,      /* J =  6 */
(PID.TID 0000.0001)                 3.250000000000000E+04,      /* J =  7 */
(PID.TID 0000.0001)                 3.750000000000000E+04,      /* J =  8 */
(PID.TID 0000.0001)                 4.250000000000000E+04,      /* J =  9 */
(PID.TID 0000.0001)                 4.750000000000000E+04,      /* J = 10 */
(PID.TID 0000.0001)                 5.250000000000000E+04,      /* J = 11 */
(PID.TID 0000.0001)                 5.750000000000000E+04,      /* J = 12 */
(PID.TID 0000.0001)                 6.250000000000000E+04,      /* J = 13 */
(PID.TID 0000.0001)                 6.750000000000000E+04,      /* J = 14 */
(PID.TID 0000.0001)                 7.250000000000000E+04,      /* J = 15 */
(PID.TID 0000.0001)                 7.750000000000000E+04,      /* J = 16 */
(PID.TID 0000.0001)                 8.250000000000000E+04,      /* J = 17 */
(PID.TID 0000.0001)                 8.750000000000000E+04,      /* J = 18 */
(PID.TID 0000.0001)                 9.250000000000000E+04,      /* J = 19 */
(PID.TID 0000.0001)                 9.750000000000000E+04,      /* J = 20 */
(PID.TID 0000.0001)                 1.025000000000000E+05,      /* J = 21 */
(PID.TID 0000.0001)                 1.075000000000000E+05,      /* J = 22 */
(PID.TID 0000.0001)                 1.125000000000000E+05,      /* J = 23 */
(PID.TID 0000.0001)                 1.175000000000000E+05,      /* J = 24 */
(PID.TID 0000.0001)                 1.225000000000000E+05,      /* J = 25 */
(PID.TID 0000.0001)                 1.275000000000000E+05,      /* J = 26 */
(PID.TID 0000.0001)                 1.325000000000000E+05,      /* J = 27 */
(PID.TID 0000.0001)                 1.375000000000000E+05,      /* J = 28 */
(PID.TID 0000.0001)                 1.425000000000000E+05,      /* J = 29 */
(PID.TID 0000.0001)                 1.475000000000000E+05,      /* J = 30 */
(PID.TID 0000.0001)                 1.525000000000000E+05,      /* J = 31 */
(PID.TID 0000.0001)                 1.575000000000000E+05,      /* J = 32 */
(PID.TID 0000.0001)                 1.625000000000000E+05,      /* J = 33 */
(PID.TID 0000.0001)                 1.675000000000000E+05,      /* J = 34 */
(PID.TID 0000.0001)                 1.725000000000000E+05,      /* J = 35 */
(PID.TID 0000.0001)                 1.775000000000000E+05,      /* J = 36 */
(PID.TID 0000.0001)                 1.825000000000000E+05,      /* J = 37 */
(PID.TID 0000.0001)                 1.875000000000000E+05,      /* J = 38 */
(PID.TID 0000.0001)                 1.925000000000000E+05,      /* J = 39 */
(PID.TID 0000.0001)                 1.975000000000000E+05,      /* J = 40 */
(PID.TID 0000.0001)                 2.025000000000000E+05,      /* J = 41 */
(PID.TID 0000.0001)                 2.075000000000000E+05       /* J = 42 */
(PID.TID 0000.0001)     ;
(PID.TID 0000.0001) rcoord = /* P-point R coordinate (  units of r ) */
(PID.TID 0000.0001)                -2.812500000000000E+02,      /* K =  1 */
(PID.TID 0000.0001)                -8.437500000000000E+02,      /* K =  2 */
(PID.TID 0000.0001)                -1.406250000000000E+03,      /* K =  3 */
(PID.TID 0000.0001)                -1.968750000000000E+03,      /* K =  4 */
(PID.TID 0000.0001)                -2.531250000000000E+03,      /* K =  5 */
(PID.TID 0000.0001)                -3.093750000000000E+03,      /* K =  6 */
(PID.TID 0000.0001)                -3.656250000000000E+03,      /* K =  7 */
(PID.TID 0000.0001)                -4.218750000000000E+03       /* K =  8 */
(PID.TID 0000.0001)     ;
(PID.TID 0000.0001) rF =   /* W-Interf. R coordinate (  units of r ) */
(PID.TID 0000.0001)                 0.000000000000000E+00,      /* K =  1 */
(PID.TID 0000.0001)                -5.625000000000000E+02,      /* K =  2 */
(PID.TID 0000.0001)                -1.125000000000000E+03,      /* K =  3 */
(PID.TID 0000.0001)                -1.687500000000000E+03,      /* K =  4 */
(PID.TID 0000.0001)                -2.250000000000000E+03,      /* K =  5 */
(PID.TID 0000.0001)                -2.812500000000000E+03,      /* K =  6 */
(PID.TID 0000.0001)                -3.375000000000000E+03,      /* K =  7 */
(PID.TID 0000.0001)                -3.937500000000000E+03,      /* K =  8 */
(PID.TID 0000.0001)                -4.500000000000000E+03       /* K =  9 */
(PID.TID 0000.0001)     ;
(PID.TID 0000.0001) deepFacC = /* deep-model grid factor @ cell-Center (-) */
(PID.TID 0000.0001)     8 @  1.000000000000000E+00              /* K =  1:  8 */
(PID.TID 0000.0001)     ;
(PID.TID 0000.0001) deepFacF = /* deep-model grid factor @ W-Interface (-) */
(PID.TID 0000.0001)     9 @  1.000000000000000E+00              /* K =  1:  9 */
(PID.TID 0000.0001)     ;
(PID.TID 0000.0001) rVel2wUnit = /* convert units: rVel -> wSpeed (=1 if z-coord)*/
(PID.TID 0000.0001)     9 @  1.000000000000000E+00              /* K =  1:  9 */
(PID.TID 0000.0001)     ;
(PID.TID 0000.0001) wUnit2rVel = /* convert units: wSpeed -> rVel (=1 if z-coord)*/
(PID.TID 0000.0001)     9 @  1.000000000000000E+00              /* K =  1:  9 */
(PID.TID 0000.0001)     ;
(PID.TID 0000.0001) dBdrRef = /* Vertical grad. of reference buoyancy [(m/s/r)^2] */
(PID.TID 0000.0001)                 0.000000000000000E+00,      /* K =  1 */
(PID.TID 0000.0001)                 6.944468479999999E-07,      /* K =  2 */
(PID.TID 0000.0001)                 6.944433600000000E-07,      /* K =  3 */
(PID.TID 0000.0001)                 6.944444064000000E-07,      /* K =  4 */
(PID.TID 0000.0001)                 6.944447552000002E-07,      /* K =  5 */
(PID.TID 0000.0001)                 6.944444064000000E-07,      /* K =  6 */
(PID.TID 0000.0001)                 6.944433600000000E-07,      /* K =  7 */
(PID.TID 0000.0001)                 6.944468479999999E-07       /* K =  8 */
(PID.TID 0000.0001)     ;
(PID.TID 0000.0001) rotateGrid = /* use rotated grid ( True/False ) */
(PID.TID 0000.0001)                   F
(PID.TID 0000.0001)     ;
(PID.TID 0000.0001) phiEuler = /* Euler angle, rotation about original z-coordinate [rad] */
(PID.TID 0000.0001)                 0.000000000000000E+00
(PID.TID 0000.0001)     ;
(PID.TID 0000.0001) thetaEuler = /* Euler angle, rotation about new x-coordinate [rad] */
(PID.TID 0000.0001)                 0.000000000000000E+00
(PID.TID 0000.0001)     ;
(PID.TID 0000.0001) psiEuler = /* Euler angle, rotation about new z-coordinate [rad] */
(PID.TID 0000.0001)                 0.000000000000000E+00
(PID.TID 0000.0001)     ;
(PID.TID 0000.0001) dxF =  /* dxF(:,1,:,1) ( units: m ) */
(PID.TID 0000.0001)    80 @  5.000000000000000E+03              /* I =  1: 80 */
(PID.TID 0000.0001)     ;
(PID.TID 0000.0001) dxF =  /* dxF(1,:,1,:) ( units: m ) */
(PID.TID 0000.0001)    42 @  5.000000000000000E+03              /* J =  1: 42 */
(PID.TID 0000.0001)     ;
(PID.TID 0000.0001) dyF =  /* dyF(:,1,:,1) ( units: m ) */
(PID.TID 0000.0001)    80 @  5.000000000000000E+03              /* I =  1: 80 */
(PID.TID 0000.0001)     ;
(PID.TID 0000.0001) dyF =  /* dyF(1,:,1,:) ( units: m ) */
(PID.TID 0000.0001)    42 @  5.000000000000000E+03              /* J =  1: 42 */
(PID.TID 0000.0001)     ;
(PID.TID 0000.0001) dxG =  /* dxG(:,1,:,1) ( units: m ) */
(PID.TID 0000.0001)    80 @  5.000000000000000E+03              /* I =  1: 80 */
(PID.TID 0000.0001)     ;
(PID.TID 0000.0001) dxG =  /* dxG(1,:,1,:) ( units: m ) */
(PID.TID 0000.0001)    42 @  5.000000000000000E+03              /* J =  1: 42 */
(PID.TID 0000.0001)     ;
(PID.TID 0000.0001) dyG =  /* dyG(:,1,:,1) ( units: m ) */
(PID.TID 0000.0001)    80 @  5.000000000000000E+03              /* I =  1: 80 */
(PID.TID 0000.0001)     ;
(PID.TID 0000.0001) dyG =  /* dyG(1,:,1,:) ( units: m ) */
(PID.TID 0000.0001)    42 @  5.000000000000000E+03              /* J =  1: 42 */
(PID.TID 0000.0001)     ;
(PID.TID 0000.0001) dxC =  /* dxC(:,1,:,1) ( units: m ) */
(PID.TID 0000.0001)    80 @  5.000000000000000E+03              /* I =  1: 80 */
(PID.TID 0000.0001)     ;
(PID.TID 0000.0001) dxC =  /* dxC(1,:,1,:) ( units: m ) */
(PID.TID 0000.0001)    42 @  5.000000000000000E+03              /* J =  1: 42 */
(PID.TID 0000.0001)     ;
(PID.TID 0000.0001) dyC =  /* dyC(:,1,:,1) ( units: m ) */
(PID.TID 0000.0001)    80 @  5.000000000000000E+03              /* I =  1: 80 */
(PID.TID 0000.0001)     ;
(PID.TID 0000.0001) dyC =  /* dyC(1,:,1,:) ( units: m ) */
(PID.TID 0000.0001)    42 @  5.000000000000000E+03              /* J =  1: 42 */
(PID.TID 0000.0001)     ;
(PID.TID 0000.0001) dxV =  /* dxV(:,1,:,1) ( units: m ) */
(PID.TID 0000.0001)    80 @  5.000000000000000E+03              /* I =  1: 80 */
(PID.TID 0000.0001)     ;
(PID.TID 0000.0001) dxV =  /* dxV(1,:,1,:) ( units: m ) */
(PID.TID 0000.0001)    42 @  5.000000000000000E+03              /* J =  1: 42 */
(PID.TID 0000.0001)     ;
(PID.TID 0000.0001) dyU =  /* dyU(:,1,:,1) ( units: m ) */
(PID.TID 0000.0001)    80 @  5.000000000000000E+03              /* I =  1: 80 */
(PID.TID 0000.0001)     ;
(PID.TID 0000.0001) dyU =  /* dyU(1,:,1,:) ( units: m ) */
(PID.TID 0000.0001)    42 @  5.000000000000000E+03              /* J =  1: 42 */
(PID.TID 0000.0001)     ;
(PID.TID 0000.0001) rA  =  /* rA (:,1,:,1) ( units: m^2 ) */
(PID.TID 0000.0001)    80 @  2.500000000000000E+07              /* I =  1: 80 */
(PID.TID 0000.0001)     ;
(PID.TID 0000.0001) rA  =  /* rA (1,:,1,:) ( units: m^2 ) */
(PID.TID 0000.0001)    42 @  2.500000000000000E+07              /* J =  1: 42 */
(PID.TID 0000.0001)     ;
(PID.TID 0000.0001) rAw =  /* rAw(:,1,:,1) ( units: m^2 ) */
(PID.TID 0000.0001)    80 @  2.500000000000000E+07              /* I =  1: 80 */
(PID.TID 0000.0001)     ;
(PID.TID 0000.0001) rAw =  /* rAw(1,:,1,:) ( units: m^2 ) */
(PID.TID 0000.0001)    42 @  2.500000000000000E+07              /* J =  1: 42 */
(PID.TID 0000.0001)     ;
(PID.TID 0000.0001) rAs =  /* rAs(:,1,:,1) ( units: m^2 ) */
(PID.TID 0000.0001)    80 @  2.500000000000000E+07              /* I =  1: 80 */
(PID.TID 0000.0001)     ;
(PID.TID 0000.0001) rAs =  /* rAs(1,:,1,:) ( units: m^2 ) */
(PID.TID 0000.0001)    42 @  2.500000000000000E+07              /* J =  1: 42 */
(PID.TID 0000.0001)     ;
(PID.TID 0000.0001) globalArea = /* Integrated horizontal Area (m^2) */
(PID.TID 0000.0001)                 8.400000000000000E+10
(PID.TID 0000.0001)     ;
(PID.TID 0000.0001) // =======================================================
(PID.TID 0000.0001) // End of Model config. summary
(PID.TID 0000.0001) // =======================================================
(PID.TID 0000.0001) 
(PID.TID 0000.0001) == Packages configuration : Check & print summary ==
(PID.TID 0000.0001) 
(PID.TID 0000.0001) GAD_CHECK: #define ALLOW_GENERIC_ADVDIFF
(PID.TID 0000.0001) // =======================================================
(PID.TID 0000.0001) // Check Model config. (CONFIG_CHECK):
(PID.TID 0000.0001) // CONFIG_CHECK : Normal End
(PID.TID 0000.0001) // =======================================================
(PID.TID 0000.0001) 
(PID.TID 0000.0001) Start initial hydrostatic pressure computation
(PID.TID 0000.0001) Pressure is predetermined for buoyancyRelation OCEANIC
(PID.TID 0000.0001) 
(PID.TID 0000.0001)  MDS_READ_FIELD: opening global file: windx.sin_y
(PID.TID 0000.0001) FLT_INIT_VARIA: reading Floats from: flt_ini_pos.bin
(PID.TID 0000.0001)  MDS_READVEC_LOC: open file: flt_ini_pos.bin
(PID.TID 0000.0001)  bi,bj=   0   0 , npart,max_npart= 1.40000000E+02 1.40000000E+02
(PID.TID 0000.0001) FLT_INIT_VARIA: max npart=      140 , sum npart_tile=      140
(PID.TID 0000.0001) 
(PID.TID 0000.0001) // =======================================================
(PID.TID 0000.0001) // Model current state
(PID.TID 0000.0001) // =======================================================
(PID.TID 0000.0001) 
(PID.TID 0000.0001) // =======================================================
(PID.TID 0000.0001) // Begin MONITOR dynamic field statistics
(PID.TID 0000.0001) // =======================================================
(PID.TID 0000.0001) %MON time_tsnumber                =                     0
(PID.TID 0000.0001) %MON time_secondsf                =   0.0000000000000E+00
(PID.TID 0000.0001) %MON dynstat_eta_max              =   0.0000000000000E+00
(PID.TID 0000.0001) %MON dynstat_eta_min              =   0.0000000000000E+00
(PID.TID 0000.0001) %MON dynstat_eta_mean             =   0.0000000000000E+00
(PID.TID 0000.0001) %MON dynstat_eta_sd               =   0.0000000000000E+00
(PID.TID 0000.0001) %MON dynstat_eta_del2             =   0.0000000000000E+00
(PID.TID 0000.0001) %MON dynstat_uvel_max             =   0.0000000000000E+00
(PID.TID 0000.0001) %MON dynstat_uvel_min             =   0.0000000000000E+00
(PID.TID 0000.0001) %MON dynstat_uvel_mean            =   0.0000000000000E+00
(PID.TID 0000.0001) %MON dynstat_uvel_sd              =   0.0000000000000E+00
(PID.TID 0000.0001) %MON dynstat_uvel_del2            =   0.0000000000000E+00
(PID.TID 0000.0001) %MON dynstat_vvel_max             =   0.0000000000000E+00
(PID.TID 0000.0001) %MON dynstat_vvel_min             =   0.0000000000000E+00
(PID.TID 0000.0001) %MON dynstat_vvel_mean            =   0.0000000000000E+00
(PID.TID 0000.0001) %MON dynstat_vvel_sd              =   0.0000000000000E+00
(PID.TID 0000.0001) %MON dynstat_vvel_del2            =   0.0000000000000E+00
(PID.TID 0000.0001) %MON dynstat_wvel_max             =  -0.0000000000000E+00
(PID.TID 0000.0001) %MON dynstat_wvel_min             =  -0.0000000000000E+00
(PID.TID 0000.0001) %MON dynstat_wvel_mean            =   0.0000000000000E+00
(PID.TID 0000.0001) %MON dynstat_wvel_sd              =   0.0000000000000E+00
(PID.TID 0000.0001) %MON dynstat_wvel_del2            =   0.0000000000000E+00
(PID.TID 0000.0001) %MON dynstat_theta_max            =   6.9683400000000E-01
(PID.TID 0000.0001) %MON dynstat_theta_min            =  -6.9683400000000E-01
(PID.TID 0000.0001) %MON dynstat_theta_mean           =   1.8778127528405E-02
(PID.TID 0000.0001) %MON dynstat_theta_sd             =   4.5245485394765E-01
(PID.TID 0000.0001) %MON dynstat_theta_del2           =   0.0000000000000E+00
(PID.TID 0000.0001) %MON dynstat_salt_max             =   3.5000000000000E+01
(PID.TID 0000.0001) %MON dynstat_salt_min             =   3.5000000000000E+01
(PID.TID 0000.0001) %MON dynstat_salt_mean            =   3.5000000000000E+01
(PID.TID 0000.0001) %MON dynstat_salt_sd              =   1.0658141036402E-13
(PID.TID 0000.0001) %MON dynstat_salt_del2            =   0.0000000000000E+00
(PID.TID 0000.0001) %MON advcfl_uvel_max              =   0.0000000000000E+00
(PID.TID 0000.0001) %MON advcfl_vvel_max              =   0.0000000000000E+00
(PID.TID 0000.0001) %MON advcfl_wvel_max              =   0.0000000000000E+00
(PID.TID 0000.0001) %MON advcfl_W_hf_max              =   0.0000000000000E+00
(PID.TID 0000.0001) %MON pe_b_mean                    =   0.0000000000000E+00
(PID.TID 0000.0001) %MON ke_max                       =   0.0000000000000E+00
(PID.TID 0000.0001) %MON ke_mean                      =   0.0000000000000E+00
(PID.TID 0000.0001) %MON ke_vol                       =   3.6207071198500E+14
(PID.TID 0000.0001) // =======================================================
(PID.TID 0000.0001) // End MONITOR dynamic field statistics
(PID.TID 0000.0001) // =======================================================
(PID.TID 0000.0001) SOLVE_FOR_PRESSURE: putPmEinXvector =    F
 cg2d: Sum(rhs),rhsMax =   0.00000000000000E+00  0.00000000000000E+00
(PID.TID 0000.0001)      cg2d_init_res =   0.00000000000000E+00
(PID.TID 0000.0001)      cg2d_iters(min,last) =      -1       0
(PID.TID 0000.0001)      cg2d_last_res =   0.00000000000000E+00
(PID.TID 0000.0001) // =======================================================
(PID.TID 0000.0001) // Begin MONITOR dynamic field statistics
(PID.TID 0000.0001) // =======================================================
(PID.TID 0000.0001) %MON time_tsnumber                =                     1
(PID.TID 0000.0001) %MON time_secondsf                =   6.0000000000000E+02
(PID.TID 0000.0001) %MON dynstat_eta_max              =   0.0000000000000E+00
(PID.TID 0000.0001) %MON dynstat_eta_min              =   0.0000000000000E+00
(PID.TID 0000.0001) %MON dynstat_eta_mean             =   0.0000000000000E+00
(PID.TID 0000.0001) %MON dynstat_eta_sd               =   0.0000000000000E+00
(PID.TID 0000.0001) %MON dynstat_eta_del2             =   0.0000000000000E+00
(PID.TID 0000.0001) %MON dynstat_uvel_max             =   1.2239899424644E-02
(PID.TID 0000.0001) %MON dynstat_uvel_min             =   0.0000000000000E+00
(PID.TID 0000.0001) %MON dynstat_uvel_mean            =   1.1233966444734E-03
(PID.TID 0000.0001) %MON dynstat_uvel_sd              =   2.9687727494889E-03
(PID.TID 0000.0001) %MON dynstat_uvel_del2            =   4.4431997683441E-07
(PID.TID 0000.0001) %MON dynstat_vvel_max             =   0.0000000000000E+00
(PID.TID 0000.0001) %MON dynstat_vvel_min             =   0.0000000000000E+00
(PID.TID 0000.0001) %MON dynstat_vvel_mean            =   0.0000000000000E+00
(PID.TID 0000.0001) %MON dynstat_vvel_sd              =   0.0000000000000E+00
(PID.TID 0000.0001) %MON dynstat_vvel_del2            =   0.0000000000000E+00
(PID.TID 0000.0001) %MON dynstat_wvel_max             =   2.9103830456734E-19
(PID.TID 0000.0001) %MON dynstat_wvel_min             =  -2.9103830456734E-19
(PID.TID 0000.0001) %MON dynstat_wvel_mean            =   0.0000000000000E+00
(PID.TID 0000.0001) %MON dynstat_wvel_sd              =   2.0865239445862E-21
(PID.TID 0000.0001) %MON dynstat_wvel_del2            =   5.2503486555959E-23
(PID.TID 0000.0001) %MON dynstat_theta_max            =   6.9683400000000E-01
(PID.TID 0000.0001) %MON dynstat_theta_min            =  -6.9683399622455E-01
(PID.TID 0000.0001) %MON dynstat_theta_mean           =   1.8778127528407E-02
(PID.TID 0000.0001) %MON dynstat_theta_sd             =   4.5245485248682E-01
(PID.TID 0000.0001) %MON dynstat_theta_del2           =   5.1032580930849E-12
(PID.TID 0000.0001) %MON dynstat_salt_max             =   3.5000000000000E+01
(PID.TID 0000.0001) %MON dynstat_salt_min             =   3.5000000000000E+01
(PID.TID 0000.0001) %MON dynstat_salt_mean            =   3.5000000000000E+01
(PID.TID 0000.0001) %MON dynstat_salt_sd              =   1.0658141036402E-13
(PID.TID 0000.0001) %MON dynstat_salt_del2            =   0.0000000000000E+00
(PID.TID 0000.0001) %MON advcfl_uvel_max              =   1.4687879309573E-03
(PID.TID 0000.0001) %MON advcfl_vvel_max              =   0.0000000000000E+00
(PID.TID 0000.0001) %MON advcfl_wvel_max              =   6.2088171641032E-19
(PID.TID 0000.0001) %MON advcfl_W_hf_max              =   0.0000000000000E+00
(PID.TID 0000.0001) %MON pe_b_mean                    =   0.0000000000000E+00
(PID.TID 0000.0001) %MON ke_max                       =   7.4907568962699E-05
(PID.TID 0000.0001) %MON ke_mean                      =   5.0202326065744E-06
(PID.TID 0000.0001) %MON ke_vol                       =   3.6207071198500E+14
(PID.TID 0000.0001) // =======================================================
(PID.TID 0000.0001) // End MONITOR dynamic field statistics
(PID.TID 0000.0001) // =======================================================
 cg2d: Sum(rhs),rhsMax =   2.70006239588838E-13  2.22276186514094E-04
(PID.TID 0000.0001)      cg2d_init_res =   8.45016423813075E+00
(PID.TID 0000.0001)      cg2d_iters(min,last) =      -1     128
(PID.TID 0000.0001)      cg2d_last_res =   9.40806375088508E-10
(PID.TID 0000.0001) // =======================================================
(PID.TID 0000.0001) // Begin MONITOR dynamic field statistics
(PID.TID 0000.0001) // =======================================================
(PID.TID 0000.0001) %MON time_tsnumber                =                     2
(PID.TID 0000.0001) %MON time_secondsf                =   1.2000000000000E+03
(PID.TID 0000.0001) %MON dynstat_eta_max              =   1.8730803587714E-04
(PID.TID 0000.0001) %MON dynstat_eta_min              =  -1.9122470255126E-04
(PID.TID 0000.0001) %MON dynstat_eta_mean             =   1.7948251552683E-17
(PID.TID 0000.0001) %MON dynstat_eta_sd               =   1.2087773342641E-04
(PID.TID 0000.0001) %MON dynstat_eta_del2             =   1.0550776820795E-07
(PID.TID 0000.0001) %MON dynstat_uvel_max             =   2.4414885590600E-02
(PID.TID 0000.0001) %MON dynstat_uvel_min             =  -6.3799649522780E-05
(PID.TID 0000.0001) %MON dynstat_uvel_mean            =   2.2467880858456E-03
(PID.TID 0000.0001) %MON dynstat_uvel_sd              =   5.9373491250389E-03
(PID.TID 0000.0001) %MON dynstat_uvel_del2            =   8.5418125058715E-07
(PID.TID 0000.0001) %MON dynstat_vvel_max             =   9.7009065580562E-05
(PID.TID 0000.0001) %MON dynstat_vvel_min             =  -1.0849730935372E-03
(PID.TID 0000.0001) %MON dynstat_vvel_mean            =  -1.0905214088461E-04
(PID.TID 0000.0001) %MON dynstat_vvel_sd              =   2.8356106852878E-04
(PID.TID 0000.0001) %MON dynstat_vvel_del2            =   3.1569875875418E-08
(PID.TID 0000.0001) %MON dynstat_wvel_max             =   4.6419888458042E-06
(PID.TID 0000.0001) %MON dynstat_wvel_min             =  -4.6419799607850E-06
(PID.TID 0000.0001) %MON dynstat_wvel_mean            =  -3.9213582089073E-22
(PID.TID 0000.0001) %MON dynstat_wvel_sd              =   1.7569528383918E-06
(PID.TID 0000.0001) %MON dynstat_wvel_del2            =   4.0465411148798E-09
(PID.TID 0000.0001) %MON dynstat_theta_max            =   6.9683399971448E-01
(PID.TID 0000.0001) %MON dynstat_theta_min            =  -6.9683399244910E-01
(PID.TID 0000.0001) %MON dynstat_theta_mean           =   1.8778127528406E-02
(PID.TID 0000.0001) %MON dynstat_theta_sd             =   4.5245485102599E-01
(PID.TID 0000.0001) %MON dynstat_theta_del2           =   9.6709151386412E-12
(PID.TID 0000.0001) %MON dynstat_salt_max             =   3.5000000000000E+01
(PID.TID 0000.0001) %MON dynstat_salt_min             =   3.5000000000000E+01
(PID.TID 0000.0001) %MON dynstat_salt_mean            =   3.5000000000000E+01
(PID.TID 0000.0001) %MON dynstat_salt_sd              =   1.0658141036402E-13
(PID.TID 0000.0001) %MON dynstat_salt_del2            =   0.0000000000000E+00
(PID.TID 0000.0001) %MON advcfl_uvel_max              =   2.9297862708719E-03
(PID.TID 0000.0001) %MON advcfl_vvel_max              =   1.3019677122446E-04
(PID.TID 0000.0001) %MON advcfl_wvel_max              =   4.9514547688578E-06
(PID.TID 0000.0001) %MON advcfl_W_hf_max              =   1.7040895076697E-05
(PID.TID 0000.0001) %MON pe_b_mean                    =   1.6627138627443E-11
(PID.TID 0000.0001) %MON ke_max                       =   2.9857408782818E-04
(PID.TID 0000.0001) %MON ke_mean                      =   2.0125745469321E-05
(PID.TID 0000.0001) %MON ke_vol                       =   3.6207071198500E+14
(PID.TID 0000.0001) // =======================================================
(PID.TID 0000.0001) // End MONITOR dynamic field statistics
(PID.TID 0000.0001) // =======================================================
 cg2d: Sum(rhs),rhsMax =  -2.44426701101474E-12  3.53667109828164E-04
(PID.TID 0000.0001)      cg2d_init_res =   3.83363032505311E+00
(PID.TID 0000.0001)      cg2d_iters(min,last) =      -1     132
(PID.TID 0000.0001)      cg2d_last_res =   7.17254490824953E-10
(PID.TID 0000.0001) // =======================================================
(PID.TID 0000.0001) // Begin MONITOR dynamic field statistics
(PID.TID 0000.0001) // =======================================================
(PID.TID 0000.0001) %MON time_tsnumber                =                     3
(PID.TID 0000.0001) %MON time_secondsf                =   1.8000000000000E+03
(PID.TID 0000.0001) %MON dynstat_eta_max              =   3.3545421841303E-04
(PID.TID 0000.0001) %MON dynstat_eta_min              =  -3.4277641544374E-04
(PID.TID 0000.0001) %MON dynstat_eta_mean             =  -1.0646840251943E-17
(PID.TID 0000.0001) %MON dynstat_eta_sd               =   2.1362092184489E-04
(PID.TID 0000.0001) %MON dynstat_eta_del2             =   1.7457059394135E-07
(PID.TID 0000.0001) %MON dynstat_uvel_max             =   3.6458840690321E-02
(PID.TID 0000.0001) %MON dynstat_uvel_min             =  -1.4736854703573E-04
(PID.TID 0000.0001) %MON dynstat_uvel_mean            =   3.3596574065792E-03
(PID.TID 0000.0001) %MON dynstat_uvel_sd              =   8.8786853926424E-03
(PID.TID 0000.0001) %MON dynstat_uvel_del2            =   1.2456992990269E-06
(PID.TID 0000.0001) %MON dynstat_vvel_max             =   2.5755414506968E-04
(PID.TID 0000.0001) %MON dynstat_vvel_min             =  -2.8318564279660E-03
(PID.TID 0000.0001) %MON dynstat_vvel_mean            =  -2.8647088673665E-04
(PID.TID 0000.0001) %MON dynstat_vvel_sd              =   7.4422259327585E-04
(PID.TID 0000.0001) %MON dynstat_vvel_del2            =   7.9437269024440E-08
(PID.TID 0000.0001) %MON dynstat_wvel_max             =   1.1913891675127E-05
(PID.TID 0000.0001) %MON dynstat_wvel_min             =  -1.1914812071081E-05
(PID.TID 0000.0001) %MON dynstat_wvel_mean            =   2.2656736318131E-21
(PID.TID 0000.0001) %MON dynstat_wvel_sd              =   4.7671370902888E-06
(PID.TID 0000.0001) %MON dynstat_wvel_del2            =   1.0020559502550E-08
(PID.TID 0000.0001) %MON dynstat_theta_max            =   6.9683477732398E-01
(PID.TID 0000.0001) %MON dynstat_theta_min            =  -6.9683430475068E-01
(PID.TID 0000.0001) %MON dynstat_theta_mean           =   1.8778127528405E-02
(PID.TID 0000.0001) %MON dynstat_theta_sd             =   4.5245484956551E-01
(PID.TID 0000.0001) %MON dynstat_theta_del2           =   1.3667984162885E-09
(PID.TID 0000.0001) %MON dynstat_salt_max             =   3.5000000000000E+01
(PID.TID 0000.0001) %MON dynstat_salt_min             =   3.5000000000000E+01
(PID.TID 0000.0001) %MON dynstat_salt_mean            =   3.5000000000000E+01
(PID.TID 0000.0001) %MON dynstat_salt_sd              =   1.0658141036402E-13
(PID.TID 0000.0001) %MON dynstat_salt_del2            =   0.0000000000000E+00
(PID.TID 0000.0001) %MON advcfl_uvel_max              =   4.3750608828385E-03
(PID.TID 0000.0001) %MON advcfl_vvel_max              =   3.3982277135592E-04
(PID.TID 0000.0001) %MON advcfl_wvel_max              =   1.2709132875820E-05
(PID.TID 0000.0001) %MON advcfl_W_hf_max              =   4.0811166349265E-05
(PID.TID 0000.0001) %MON pe_b_mean                    =   5.1929300367401E-11
(PID.TID 0000.0001) %MON ke_max                       =   6.6832842921930E-04
(PID.TID 0000.0001) %MON ke_mean                      =   4.5218765287584E-05
(PID.TID 0000.0001) %MON ke_vol                       =   3.6207071198500E+14
(PID.TID 0000.0001) // =======================================================
(PID.TID 0000.0001) // End MONITOR dynamic field statistics
(PID.TID 0000.0001) // =======================================================
 cg2d: Sum(rhs),rhsMax =   1.12265752250096E-12  4.80056180285465E-04
(PID.TID 0000.0001)      cg2d_init_res =   2.58954852574225E+00
(PID.TID 0000.0001)      cg2d_iters(min,last) =      -1     131
(PID.TID 0000.0001)      cg2d_last_res =   9.96336758124565E-10
(PID.TID 0000.0001) // =======================================================
(PID.TID 0000.0001) // Begin MONITOR dynamic field statistics
(PID.TID 0000.0001) // =======================================================
(PID.TID 0000.0001) %MON time_tsnumber                =                     4
(PID.TID 0000.0001) %MON time_secondsf                =   2.4000000000000E+03
(PID.TID 0000.0001) %MON dynstat_eta_max              =   4.6152903928550E-04
(PID.TID 0000.0001) %MON dynstat_eta_min              =  -4.7166157866740E-04
(PID.TID 0000.0001) %MON dynstat_eta_mean             =  -7.1893924127811E-17
(PID.TID 0000.0001) %MON dynstat_eta_sd               =   2.9397654590214E-04
(PID.TID 0000.0001) %MON dynstat_eta_del2             =   2.4103141817295E-07
(PID.TID 0000.0001) %MON dynstat_uvel_max             =   4.8350314993999E-02
(PID.TID 0000.0001) %MON dynstat_uvel_min             =  -2.4590624604690E-04
(PID.TID 0000.0001) %MON dynstat_uvel_mean            =   4.4593366324405E-03
(PID.TID 0000.0001) %MON dynstat_uvel_sd              =   1.1786044594844E-02
(PID.TID 0000.0001) %MON dynstat_uvel_del2            =   1.6191701002192E-06
(PID.TID 0000.0001) %MON dynstat_vvel_max             =   4.7193899833792E-04
(PID.TID 0000.0001) %MON dynstat_vvel_min             =  -5.2392567603088E-03
(PID.TID 0000.0001) %MON dynstat_vvel_mean            =  -5.3109316321452E-04
(PID.TID 0000.0001) %MON dynstat_vvel_sd              =   1.3794320940283E-03
(PID.TID 0000.0001) %MON dynstat_vvel_del2            =   1.4293758710875E-07
(PID.TID 0000.0001) %MON dynstat_wvel_max             =   2.2055988381225E-05
(PID.TID 0000.0001) %MON dynstat_wvel_min             =  -2.2050187673092E-05
(PID.TID 0000.0001) %MON dynstat_wvel_mean            =  -6.9713034825018E-22
(PID.TID 0000.0001) %MON dynstat_wvel_sd              =   8.8748377496959E-06
(PID.TID 0000.0001) %MON dynstat_wvel_del2            =   1.7539601838183E-08
(PID.TID 0000.0001) %MON dynstat_theta_max            =   6.9683647444602E-01
(PID.TID 0000.0001) %MON dynstat_theta_min            =  -6.9683511470810E-01
(PID.TID 0000.0001) %MON dynstat_theta_mean           =   1.8778127528391E-02
(PID.TID 0000.0001) %MON dynstat_theta_sd             =   4.5245484810623E-01
(PID.TID 0000.0001) %MON dynstat_theta_del2           =   4.1251178422011E-09
(PID.TID 0000.0001) %MON dynstat_salt_max             =   3.5000000000000E+01
(PID.TID 0000.0001) %MON dynstat_salt_min             =   3.5000000000000E+01
(PID.TID 0000.0001) %MON dynstat_salt_mean            =   3.5000000000000E+01
(PID.TID 0000.0001) %MON dynstat_salt_sd              =   1.0658141036402E-13
(PID.TID 0000.0001) %MON dynstat_salt_del2            =   0.0000000000000E+00
(PID.TID 0000.0001) %MON advcfl_uvel_max              =   5.8020377992799E-03
(PID.TID 0000.0001) %MON advcfl_vvel_max              =   6.2871081123706E-04
(PID.TID 0000.0001) %MON advcfl_wvel_max              =   2.3526387606640E-05
(PID.TID 0000.0001) %MON advcfl_W_hf_max              =   7.0451869081148E-05
(PID.TID 0000.0001) %MON pe_b_mean                    =   9.8344543196234E-11
(PID.TID 0000.0001) %MON ke_max                       =   1.1817259691101E-03
(PID.TID 0000.0001) %MON ke_mean                      =   8.0209779894065E-05
(PID.TID 0000.0001) %MON ke_vol                       =   3.6207071198500E+14
(PID.TID 0000.0001) // =======================================================
(PID.TID 0000.0001) // End MONITOR dynamic field statistics
(PID.TID 0000.0001) // =======================================================
 cg2d: Sum(rhs),rhsMax =   6.29540863883449E-12  6.02088377772809E-04
(PID.TID 0000.0001)      cg2d_init_res =   2.11267375281453E+00
(PID.TID 0000.0001)      cg2d_iters(min,last) =      -1     131
(PID.TID 0000.0001)      cg2d_last_res =   8.56478981805036E-10
(PID.TID 0000.0001) // =======================================================
(PID.TID 0000.0001) // Begin MONITOR dynamic field statistics
(PID.TID 0000.0001) // =======================================================
(PID.TID 0000.0001) %MON time_tsnumber                =                     5
(PID.TID 0000.0001) %MON time_secondsf                =   3.0000000000000E+03
(PID.TID 0000.0001) %MON dynstat_eta_max              =   5.8809643086805E-04
(PID.TID 0000.0001) %MON dynstat_eta_min              =  -6.0086179465053E-04
(PID.TID 0000.0001) %MON dynstat_eta_mean             =  -1.3691533810247E-16
(PID.TID 0000.0001) %MON dynstat_eta_sd               =   3.7487810348487E-04
(PID.TID 0000.0001) %MON dynstat_eta_del2             =   3.0775996539601E-07
(PID.TID 0000.0001) %MON dynstat_uvel_max             =   6.0054230424285E-02
(PID.TID 0000.0001) %MON dynstat_uvel_min             =  -3.5351280478513E-04
(PID.TID 0000.0001) %MON dynstat_uvel_mean            =   5.5418143634716E-03
(PID.TID 0000.0001) %MON dynstat_uvel_sd              =   1.4649087442803E-02
(PID.TID 0000.0001) %MON dynstat_uvel_del2            =   1.9754392899841E-06
(PID.TID 0000.0001) %MON dynstat_vvel_max             =   7.3683258837508E-04
(PID.TID 0000.0001) %MON dynstat_vvel_min             =  -8.2981813130119E-03
(PID.TID 0000.0001) %MON dynstat_vvel_mean            =  -8.4202726269408E-04
(PID.TID 0000.0001) %MON dynstat_vvel_sd              =   2.1868894936863E-03
(PID.TID 0000.0001) %MON dynstat_vvel_del2            =   2.2093560797006E-07
(PID.TID 0000.0001) %MON dynstat_wvel_max             =   3.4948116144493E-05
(PID.TID 0000.0001) %MON dynstat_wvel_min             =  -3.4939619130789E-05
(PID.TID 0000.0001) %MON dynstat_wvel_mean            =   0.0000000000000E+00
(PID.TID 0000.0001) %MON dynstat_wvel_sd              =   1.4057654596075E-05
(PID.TID 0000.0001) %MON dynstat_wvel_del2            =   2.6299384610864E-08
(PID.TID 0000.0001) %MON dynstat_theta_max            =   6.9683945655607E-01
(PID.TID 0000.0001) %MON dynstat_theta_min            =  -6.9683650878505E-01
(PID.TID 0000.0001) %MON dynstat_theta_mean           =   1.8778127528355E-02
(PID.TID 0000.0001) %MON dynstat_theta_sd             =   4.5245484664913E-01
(PID.TID 0000.0001) %MON dynstat_theta_del2           =   8.4906572708196E-09
(PID.TID 0000.0001) %MON dynstat_salt_max             =   3.5000000000000E+01
(PID.TID 0000.0001) %MON dynstat_salt_min             =   3.5000000000000E+01
(PID.TID 0000.0001) %MON dynstat_salt_mean            =   3.5000000000000E+01
(PID.TID 0000.0001) %MON dynstat_salt_sd              =   1.0658141036402E-13
(PID.TID 0000.0001) %MON dynstat_salt_del2            =   0.0000000000000E+00
(PID.TID 0000.0001) %MON advcfl_uvel_max              =   7.2065076509142E-03
(PID.TID 0000.0001) %MON advcfl_vvel_max              =   9.9578175756143E-04
(PID.TID 0000.0001) %MON advcfl_wvel_max              =   3.7277990554126E-05
(PID.TID 0000.0001) %MON advcfl_W_hf_max              =   1.0480537375727E-04
(PID.TID 0000.0001) %MON pe_b_mean                    =   1.5992083549934E-10
(PID.TID 0000.0001) %MON ke_max                       =   1.8357473941561E-03
(PID.TID 0000.0001) %MON ke_mean                      =   1.2496180916288E-04
(PID.TID 0000.0001) %MON ke_vol                       =   3.6207071198500E+14
(PID.TID 0000.0001) // =======================================================
(PID.TID 0000.0001) // End MONITOR dynamic field statistics
(PID.TID 0000.0001) // =======================================================
 cg2d: Sum(rhs),rhsMax =   9.81970060820458E-12  7.19562080459562E-04
(PID.TID 0000.0001)      cg2d_init_res =   1.82678339193397E+00
(PID.TID 0000.0001)      cg2d_iters(min,last) =      -1     131
(PID.TID 0000.0001)      cg2d_last_res =   7.71812803214735E-10
(PID.TID 0000.0001) S/R MDS_READVEC_LOC: file=float_trajectories.001.001.data not found
(PID.TID 0000.0001) S/R MDS_READVEC_LOC: file=float_trajectories.002.001.data not found
(PID.TID 0000.0001) S/R MDS_READVEC_LOC: file=float_trajectories.001.002.data not found
(PID.TID 0000.0001) S/R MDS_READVEC_LOC: file=float_trajectories.002.002.data not found
(PID.TID 0000.0001) // =======================================================
(PID.TID 0000.0001) // Begin MONITOR dynamic field statistics
(PID.TID 0000.0001) // =======================================================
(PID.TID 0000.0001) %MON time_tsnumber                =                     6
(PID.TID 0000.0001) %MON time_secondsf                =   3.6000000000000E+03
(PID.TID 0000.0001) %MON dynstat_eta_max              =   7.1707777299117E-04
(PID.TID 0000.0001) %MON dynstat_eta_min              =  -7.3276857421853E-04
(PID.TID 0000.0001) %MON dynstat_eta_mean             =  -2.0108904157366E-16
(PID.TID 0000.0001) %MON dynstat_eta_sd               =   4.5709619666739E-04
(PID.TID 0000.0001) %MON dynstat_eta_del2             =   3.7497783307714E-07
(PID.TID 0000.0001) %MON dynstat_uvel_max             =   7.1535988676937E-02
(PID.TID 0000.0001) %MON dynstat_uvel_min             =  -4.6455387666681E-04
(PID.TID 0000.0001) %MON dynstat_uvel_mean            =   6.6031221601375E-03
(PID.TID 0000.0001) %MON dynstat_uvel_sd              =   1.7457611135119E-02
(PID.TID 0000.0001) %MON dynstat_uvel_del2            =   2.3151973919508E-06
(PID.TID 0000.0001) %MON dynstat_vvel_max             =   1.0497153114704E-03
(PID.TID 0000.0001) %MON dynstat_vvel_min             =  -1.1996183986715E-02
(PID.TID 0000.0001) %MON dynstat_vvel_mean            =  -1.2181050272192E-03
(PID.TID 0000.0001) %MON dynstat_vvel_sd              =   3.1635393258611E-03
(PID.TID 0000.0001) %MON dynstat_vvel_del2            =   3.1235281572925E-07
(PID.TID 0000.0001) %MON dynstat_wvel_max             =   5.0469755455388E-05
(PID.TID 0000.0001) %MON dynstat_wvel_min             =  -5.0462449544127E-05
(PID.TID 0000.0001) %MON dynstat_wvel_mean            =   2.4399562188756E-20
(PID.TID 0000.0001) %MON dynstat_wvel_sd              =   2.0293438850405E-05
(PID.TID 0000.0001) %MON dynstat_wvel_del2            =   3.5998411316944E-08
(PID.TID 0000.0001) %MON dynstat_theta_max            =   6.9684397081868E-01
(PID.TID 0000.0001) %MON dynstat_theta_min            =  -6.9683860771170E-01
(PID.TID 0000.0001) %MON dynstat_theta_mean           =   1.8778127528280E-02
(PID.TID 0000.0001) %MON dynstat_theta_sd             =   4.5245484519532E-01
(PID.TID 0000.0001) %MON dynstat_theta_del2           =   1.4613112743737E-08
(PID.TID 0000.0001) %MON dynstat_salt_max             =   3.5000000000000E+01
(PID.TID 0000.0001) %MON dynstat_salt_min             =   3.5000000000000E+01
(PID.TID 0000.0001) %MON dynstat_salt_mean            =   3.5000000000000E+01
(PID.TID 0000.0001) %MON dynstat_salt_sd              =   1.0658141036402E-13
(PID.TID 0000.0001) %MON dynstat_salt_del2            =   0.0000000000000E+00
(PID.TID 0000.0001) %MON advcfl_uvel_max              =   8.5843186412325E-03
(PID.TID 0000.0001) %MON advcfl_vvel_max              =   1.4395420784058E-03
(PID.TID 0000.0001) %MON advcfl_wvel_max              =   5.3834405819081E-05
(PID.TID 0000.0001) %MON advcfl_W_hf_max              =   1.4279612968442E-04
(PID.TID 0000.0001) %MON pe_b_mean                    =   2.3776072542824E-10
(PID.TID 0000.0001) %MON ke_max                       =   2.6269806554423E-03
(PID.TID 0000.0001) %MON ke_mean                      =   1.7930258662186E-04
(PID.TID 0000.0001) %MON ke_vol                       =   3.6207071198500E+14
(PID.TID 0000.0001) // =======================================================
(PID.TID 0000.0001) // End MONITOR dynamic field statistics
(PID.TID 0000.0001) // =======================================================
 cg2d: Sum(rhs),rhsMax =   1.24344978758018E-11  8.32286634003165E-04
(PID.TID 0000.0001)      cg2d_init_res =   1.62932521030622E+00
(PID.TID 0000.0001)      cg2d_iters(min,last) =      -1     131
(PID.TID 0000.0001)      cg2d_last_res =   7.16889091584176E-10
(PID.TID 0000.0001) // =======================================================
(PID.TID 0000.0001) // Begin MONITOR dynamic field statistics
(PID.TID 0000.0001) // =======================================================
(PID.TID 0000.0001) %MON time_tsnumber                =                     7
(PID.TID 0000.0001) %MON time_secondsf                =   4.2000000000000E+03
(PID.TID 0000.0001) %MON dynstat_eta_max              =   8.4675619624432E-04
(PID.TID 0000.0001) %MON dynstat_eta_min              =  -8.6545596080612E-04
(PID.TID 0000.0001) %MON dynstat_eta_mean             =  -2.6194254557292E-16
(PID.TID 0000.0001) %MON dynstat_eta_sd               =   5.3990853006310E-04
(PID.TID 0000.0001) %MON dynstat_eta_del2             =   4.4264542207290E-07
(PID.TID 0000.0001) %MON dynstat_uvel_max             =   8.2761700778592E-02
(PID.TID 0000.0001) %MON dynstat_uvel_min             =  -5.7357083548500E-04
(PID.TID 0000.0001) %MON dynstat_uvel_mean            =   7.6393700643578E-03
(PID.TID 0000.0001) %MON dynstat_uvel_sd              =   2.0201626693222E-02
(PID.TID 0000.0001) %MON dynstat_uvel_del2            =   2.6390550331789E-06
(PID.TID 0000.0001) %MON dynstat_vvel_max             =   1.4075159822278E-03
(PID.TID 0000.0001) %MON dynstat_vvel_min             =  -1.6319353998623E-02
(PID.TID 0000.0001) %MON dynstat_vvel_mean            =  -1.6579107930811E-03
(PID.TID 0000.0001) %MON dynstat_vvel_sd              =   4.3057200492556E-03
(PID.TID 0000.0001) %MON dynstat_vvel_del2            =   4.1617157484021E-07
(PID.TID 0000.0001) %MON dynstat_wvel_max             =   6.8517169517233E-05
(PID.TID 0000.0001) %MON dynstat_wvel_min             =  -6.8520185430851E-05
(PID.TID 0000.0001) %MON dynstat_wvel_mean            =  -1.8125389054505E-20
(PID.TID 0000.0001) %MON dynstat_wvel_sd              =   2.7548221814647E-05
(PID.TID 0000.0001) %MON dynstat_wvel_del2            =   4.6370999230482E-08
(PID.TID 0000.0001) %MON dynstat_theta_max            =   6.9685028596717E-01
(PID.TID 0000.0001) %MON dynstat_theta_min            =  -6.9684153113493E-01
(PID.TID 0000.0001) %MON dynstat_theta_mean           =   1.8778127528144E-02
(PID.TID 0000.0001) %MON dynstat_theta_sd             =   4.5245484374587E-01
(PID.TID 0000.0001) %MON dynstat_theta_del2           =   2.2580544171816E-08
(PID.TID 0000.0001) %MON dynstat_salt_max             =   3.5000000000000E+01
(PID.TID 0000.0001) %MON dynstat_salt_min             =   3.5000000000000E+01
(PID.TID 0000.0001) %MON dynstat_salt_mean            =   3.5000000000000E+01
(PID.TID 0000.0001) %MON dynstat_salt_sd              =   1.0658141036402E-13
(PID.TID 0000.0001) %MON dynstat_salt_del2            =   0.0000000000000E+00
(PID.TID 0000.0001) %MON advcfl_uvel_max              =   9.9314040934311E-03
(PID.TID 0000.0001) %MON advcfl_vvel_max              =   1.9583224798347E-03
(PID.TID 0000.0001) %MON advcfl_wvel_max              =   7.3088197792907E-05
(PID.TID 0000.0001) %MON advcfl_W_hf_max              =   1.8341030063373E-04
(PID.TID 0000.0001) %MON pe_b_mean                    =   3.3171512920761E-10
(PID.TID 0000.0001) %MON ke_max                       =   3.5516444259964E-03
(PID.TID 0000.0001) %MON ke_mean                      =   2.4302561175851E-04
(PID.TID 0000.0001) %MON ke_vol                       =   3.6207071198500E+14
(PID.TID 0000.0001) // =======================================================
(PID.TID 0000.0001) // End MONITOR dynamic field statistics
(PID.TID 0000.0001) // =======================================================
 cg2d: Sum(rhs),rhsMax =   1.42676981340628E-11  9.40099717944664E-04
(PID.TID 0000.0001)      cg2d_init_res =   1.49160726351268E+00
(PID.TID 0000.0001)      cg2d_iters(min,last) =      -1     131
(PID.TID 0000.0001)      cg2d_last_res =   6.77659661900229E-10
(PID.TID 0000.0001) // =======================================================
(PID.TID 0000.0001) // Begin MONITOR dynamic field statistics
(PID.TID 0000.0001) // =======================================================
(PID.TID 0000.0001) %MON time_tsnumber                =                     8
(PID.TID 0000.0001) %MON time_secondsf                =   4.8000000000000E+03
(PID.TID 0000.0001) %MON dynstat_eta_max              =   9.7696396536415E-04
(PID.TID 0000.0001) %MON dynstat_eta_min              =  -9.9859047457711E-04
(PID.TID 0000.0001) %MON dynstat_eta_mean             =  -3.1516665504092E-16
(PID.TID 0000.0001) %MON dynstat_eta_sd               =   6.2323604504416E-04
(PID.TID 0000.0001) %MON dynstat_eta_del2             =   5.1084117462437E-07
(PID.TID 0000.0001) %MON dynstat_uvel_max             =   9.3698111863387E-02
(PID.TID 0000.0001) %MON dynstat_uvel_min             =  -6.7543170114614E-04
(PID.TID 0000.0001) %MON dynstat_uvel_mean            =   8.6467615676665E-03
(PID.TID 0000.0001) %MON dynstat_uvel_sd              =   2.2871388419730E-02
(PID.TID 0000.0001) %MON dynstat_uvel_del2            =   2.9475502933630E-06
(PID.TID 0000.0001) %MON dynstat_vvel_max             =   1.8069861753966E-03
(PID.TID 0000.0001) %MON dynstat_vvel_min             =  -2.1251955660869E-02
(PID.TID 0000.0001) %MON dynstat_vvel_mean            =  -2.1597950086383E-03
(PID.TID 0000.0001) %MON dynstat_vvel_sd              =   5.6091765331169E-03
(PID.TID 0000.0001) %MON dynstat_vvel_del2            =   5.3143297737546E-07
(PID.TID 0000.0001) %MON dynstat_wvel_max             =   8.8966539395507E-05
(PID.TID 0000.0001) %MON dynstat_wvel_min             =  -8.8997320371700E-05
(PID.TID 0000.0001) %MON dynstat_wvel_mean            =  -1.3942606965004E-21
(PID.TID 0000.0001) %MON dynstat_wvel_sd              =   3.5782955482920E-05
(PID.TID 0000.0001) %MON dynstat_wvel_del2            =   5.7193471214613E-08
(PID.TID 0000.0001) %MON dynstat_theta_max            =   6.9685865524382E-01
(PID.TID 0000.0001) %MON dynstat_theta_min            =  -6.9684539369270E-01
(PID.TID 0000.0001) %MON dynstat_theta_mean           =   1.8778127527926E-02
(PID.TID 0000.0001) %MON dynstat_theta_sd             =   4.5245484230161E-01
(PID.TID 0000.0001) %MON dynstat_theta_del2           =   3.2433249595252E-08
(PID.TID 0000.0001) %MON dynstat_salt_max             =   3.5000000000000E+01
(PID.TID 0000.0001) %MON dynstat_salt_min             =   3.5000000000000E+01
(PID.TID 0000.0001) %MON dynstat_salt_mean            =   3.5000000000000E+01
(PID.TID 0000.0001) %MON dynstat_salt_sd              =   1.0658141036402E-13
(PID.TID 0000.0001) %MON dynstat_salt_del2            =   0.0000000000000E+00
(PID.TID 0000.0001) %MON advcfl_uvel_max              =   1.1243773423606E-02
(PID.TID 0000.0001) %MON advcfl_vvel_max              =   2.5502346793043E-03
(PID.TID 0000.0001) %MON advcfl_wvel_max              =   9.4930475063147E-05
(PID.TID 0000.0001) %MON advcfl_W_hf_max              =   2.2571096506931E-04
(PID.TID 0000.0001) %MON pe_b_mean                    =   4.4200789601842E-10
(PID.TID 0000.0001) %MON ke_max                       =   4.6055882172610E-03
(PID.TID 0000.0001) %MON ke_mean                      =   3.1589084866170E-04
(PID.TID 0000.0001) %MON ke_vol                       =   3.6207071198500E+14
(PID.TID 0000.0001) // =======================================================
(PID.TID 0000.0001) // End MONITOR dynamic field statistics
(PID.TID 0000.0001) // =======================================================
 cg2d: Sum(rhs),rhsMax =   1.57456270244438E-11  1.04285377450300E-03
(PID.TID 0000.0001)      cg2d_init_res =   1.39398210590184E+00
(PID.TID 0000.0001)      cg2d_iters(min,last) =      -1     131
(PID.TID 0000.0001)      cg2d_last_res =   6.48961045226442E-10
(PID.TID 0000.0001) // =======================================================
(PID.TID 0000.0001) // Begin MONITOR dynamic field statistics
(PID.TID 0000.0001) // =======================================================
(PID.TID 0000.0001) %MON time_tsnumber                =                     9
(PID.TID 0000.0001) %MON time_secondsf                =   5.4000000000000E+03
(PID.TID 0000.0001) %MON dynstat_eta_max              =   1.1085841010646E-03
(PID.TID 0000.0001) %MON dynstat_eta_min              =  -1.1329424771825E-03
(PID.TID 0000.0001) %MON dynstat_eta_mean             =  -3.7149903635499E-16
(PID.TID 0000.0001) %MON dynstat_eta_sd               =   7.0719407316879E-04
(PID.TID 0000.0001) %MON dynstat_eta_del2             =   5.7966888250210E-07
(PID.TID 0000.0001) %MON dynstat_uvel_max             =   1.0431271471192E-01
(PID.TID 0000.0001) %MON dynstat_uvel_min             =  -7.6532549621503E-04
(PID.TID 0000.0001) %MON dynstat_uvel_mean            =   9.6216076838241E-03
(PID.TID 0000.0001) %MON dynstat_uvel_sd              =   2.5457429404939E-02
(PID.TID 0000.0001) %MON dynstat_uvel_del2            =   3.2411608456097E-06
(PID.TID 0000.0001) %MON dynstat_vvel_max             =   2.2448563713592E-03
(PID.TID 0000.0001) %MON dynstat_vvel_min             =  -2.6776283592098E-02
(PID.TID 0000.0001) %MON dynstat_vvel_mean            =  -2.7218833058597E-03
(PID.TID 0000.0001) %MON dynstat_vvel_sd              =   7.0690745709938E-03
(PID.TID 0000.0001) %MON dynstat_vvel_del2            =   6.5722990865415E-07
(PID.TID 0000.0001) %MON dynstat_wvel_max             =   1.1167706184068E-04
(PID.TID 0000.0001) %MON dynstat_wvel_min             =  -1.1176496042302E-04
(PID.TID 0000.0001) %MON dynstat_wvel_mean            =  -5.1587645770514E-20
(PID.TID 0000.0001) %MON dynstat_wvel_sd              =   4.4955597016680E-05
(PID.TID 0000.0001) %MON dynstat_wvel_del2            =   6.8284421075960E-08
(PID.TID 0000.0001) %MON dynstat_theta_max            =   6.9686931727176E-01
(PID.TID 0000.0001) %MON dynstat_theta_min            =  -6.9685030590730E-01
(PID.TID 0000.0001) %MON dynstat_theta_mean           =   1.8778127527600E-02
(PID.TID 0000.0001) %MON dynstat_theta_sd             =   4.5245484086301E-01
(PID.TID 0000.0001) %MON dynstat_theta_del2           =   4.4174764064684E-08
(PID.TID 0000.0001) %MON dynstat_salt_max             =   3.5000000000000E+01
(PID.TID 0000.0001) %MON dynstat_salt_min             =   3.5000000000000E+01
(PID.TID 0000.0001) %MON dynstat_salt_mean            =   3.5000000000000E+01
(PID.TID 0000.0001) %MON dynstat_salt_sd              =   1.0658141036402E-13
(PID.TID 0000.0001) %MON dynstat_salt_del2            =   0.0000000000000E+00
(PID.TID 0000.0001) %MON advcfl_uvel_max              =   1.2517525765430E-02
(PID.TID 0000.0001) %MON advcfl_vvel_max              =   3.2131540310518E-03
(PID.TID 0000.0001) %MON advcfl_wvel_max              =   1.1921595778455E-04
(PID.TID 0000.0001) %MON advcfl_W_hf_max              =   2.6883517412594E-04
(PID.TID 0000.0001) %MON pe_b_mean                    =   5.6911774408643E-10
(PID.TID 0000.0001) %MON ke_max                       =   5.7842975269140E-03
(PID.TID 0000.0001) %MON ke_mean                      =   3.9762560271268E-04
(PID.TID 0000.0001) %MON ke_vol                       =   3.6207071198500E+14
(PID.TID 0000.0001) // =======================================================
(PID.TID 0000.0001) // End MONITOR dynamic field statistics
(PID.TID 0000.0001) // =======================================================
 cg2d: Sum(rhs),rhsMax =   1.64845914696343E-11  1.14040180730229E-03
(PID.TID 0000.0001)      cg2d_init_res =   1.32324143707686E+00
(PID.TID 0000.0001)      cg2d_iters(min,last) =      -1     130
(PID.TID 0000.0001)      cg2d_last_res =   9.92371426140425E-10
(PID.TID 0000.0001) // =======================================================
(PID.TID 0000.0001) // Begin MONITOR dynamic field statistics
(PID.TID 0000.0001) // =======================================================
(PID.TID 0000.0001) %MON time_tsnumber                =                    10
(PID.TID 0000.0001) %MON time_secondsf                =   6.0000000000000E+03
(PID.TID 0000.0001) %MON dynstat_eta_max              =   1.2409107536706E-03
(PID.TID 0000.0001) %MON dynstat_eta_min              =  -1.2686734932750E-03
(PID.TID 0000.0001) %MON dynstat_eta_mean             =  -3.6144761181382E-16
(PID.TID 0000.0001) %MON dynstat_eta_sd               =   7.9187661053975E-04
(PID.TID 0000.0001) %MON dynstat_eta_del2             =   6.4921452684491E-07
(PID.TID 0000.0001) %MON dynstat_uvel_max             =   1.1457387995749E-01
(PID.TID 0000.0001) %MON dynstat_uvel_min             =  -8.3873584675316E-04
(PID.TID 0000.0001) %MON dynstat_uvel_mean            =   1.0560340194055E-02
(PID.TID 0000.0001) %MON dynstat_uvel_sd              =   2.7950596235572E-02
(PID.TID 0000.0001) %MON dynstat_uvel_del2            =   3.5203147735835E-06
(PID.TID 0000.0001) %MON dynstat_vvel_max             =   2.7178183961567E-03
(PID.TID 0000.0001) %MON dynstat_vvel_min             =  -3.2872721799560E-02
(PID.TID 0000.0001) %MON dynstat_vvel_mean            =  -3.3420832899921E-03
(PID.TID 0000.0001) %MON dynstat_vvel_sd              =   8.6800188979574E-03
(PID.TID 0000.0001) %MON dynstat_vvel_del2            =   7.9270143675752E-07
(PID.TID 0000.0001) %MON dynstat_wvel_max             =   1.3649235535486E-04
(PID.TID 0000.0001) %MON dynstat_wvel_min             =  -1.3668304088003E-04
(PID.TID 0000.0001) %MON dynstat_wvel_mean            =   5.5770427860015E-20
(PID.TID 0000.0001) %MON dynstat_wvel_sd              =   5.5021149776131E-05
(PID.TID 0000.0001) %MON dynstat_wvel_del2            =   7.9502387644257E-08
(PID.TID 0000.0001) %MON dynstat_theta_max            =   6.9688249454721E-01
(PID.TID 0000.0001) %MON dynstat_theta_min            =  -6.9685637461434E-01
(PID.TID 0000.0001) %MON dynstat_theta_mean           =   1.8778127527138E-02
(PID.TID 0000.0001) %MON dynstat_theta_sd             =   4.5245483942997E-01
(PID.TID 0000.0001) %MON dynstat_theta_del2           =   5.7781400174376E-08
(PID.TID 0000.0001) %MON dynstat_salt_max             =   3.5000000000000E+01
(PID.TID 0000.0001) %MON dynstat_salt_min             =   3.5000000000000E+01
(PID.TID 0000.0001) %MON dynstat_salt_mean            =   3.5000000000000E+01
(PID.TID 0000.0001) %MON dynstat_salt_sd              =   1.0658141036402E-13
(PID.TID 0000.0001) %MON dynstat_salt_del2            =   0.0000000000000E+00
(PID.TID 0000.0001) %MON advcfl_uvel_max              =   1.3748865594898E-02
(PID.TID 0000.0001) %MON advcfl_vvel_max              =   3.9447266159471E-03
(PID.TID 0000.0001) %MON advcfl_wvel_max              =   1.4579524360537E-04
(PID.TID 0000.0001) %MON advcfl_W_hf_max              =   3.1198743139196E-04
(PID.TID 0000.0001) %MON pe_b_mean                    =   7.1357550374259E-10
(PID.TID 0000.0001) %MON ke_max                       =   7.0829033589972E-03
(PID.TID 0000.0001) %MON ke_mean                      =   4.8792551664533E-04
(PID.TID 0000.0001) %MON ke_vol                       =   3.6207071198500E+14
(PID.TID 0000.0001) // =======================================================
(PID.TID 0000.0001) // End MONITOR dynamic field statistics
(PID.TID 0000.0001) // =======================================================
 cg2d: Sum(rhs),rhsMax =   1.51771928358357E-11  1.23259446076410E-03
(PID.TID 0000.0001)      cg2d_init_res =   1.27118828756518E+00
(PID.TID 0000.0001)      cg2d_iters(min,last) =      -1     130
(PID.TID 0000.0001)      cg2d_last_res =   9.66968983973570E-10
(PID.TID 0000.0001) // =======================================================
(PID.TID 0000.0001) // Begin MONITOR dynamic field statistics
(PID.TID 0000.0001) // =======================================================
(PID.TID 0000.0001) %MON time_tsnumber                =                    11
(PID.TID 0000.0001) %MON time_secondsf                =   6.6000000000000E+03
(PID.TID 0000.0001) %MON dynstat_eta_max              =   1.3739322299118E-03
(PID.TID 0000.0001) %MON dynstat_eta_min              =  -1.4052868218263E-03
(PID.TID 0000.0001) %MON dynstat_eta_mean             =  -3.3690437437996E-16
(PID.TID 0000.0001) %MON dynstat_eta_sd               =   8.7735768481048E-04
(PID.TID 0000.0001) %MON dynstat_eta_del2             =   7.1954512285634E-07
(PID.TID 0000.0001) %MON dynstat_uvel_max             =   1.2445097573542E-01
(PID.TID 0000.0001) %MON dynstat_uvel_min             =  -8.9142445633744E-04
(PID.TID 0000.0001) %MON dynstat_uvel_mean            =   1.1459524446764E-02
(PID.TID 0000.0001) %MON dynstat_uvel_sd              =   3.0342082465063E-02
(PID.TID 0000.0001) %MON dynstat_uvel_del2            =   3.7854001201308E-06
(PID.TID 0000.0001) %MON dynstat_vvel_max             =   3.2225014372053E-03
(PID.TID 0000.0001) %MON dynstat_vvel_min             =  -3.9519818170296E-02
(PID.TID 0000.0001) %MON dynstat_vvel_mean            =  -4.0180920138626E-03
(PID.TID 0000.0001) %MON dynstat_vvel_sd              =   1.0436073266976E-02
(PID.TID 0000.0001) %MON dynstat_vvel_del2            =   9.3702683864037E-07
(PID.TID 0000.0001) %MON dynstat_wvel_max             =   1.6324205070969E-04
(PID.TID 0000.0001) %MON dynstat_wvel_min             =  -1.6360240478846E-04
(PID.TID 0000.0001) %MON dynstat_wvel_mean            =  -2.2308171144006E-20
(PID.TID 0000.0001) %MON dynstat_wvel_sd              =   6.5931714253761E-05
(PID.TID 0000.0001) %MON dynstat_wvel_del2            =   9.0741500084655E-08
(PID.TID 0000.0001) %MON dynstat_theta_max            =   6.9689839268090E-01
(PID.TID 0000.0001) %MON dynstat_theta_min            =  -6.9686370304377E-01
(PID.TID 0000.0001) %MON dynstat_theta_mean           =   1.8778127526502E-02
(PID.TID 0000.0001) %MON dynstat_theta_sd             =   4.5245483800166E-01
(PID.TID 0000.0001) %MON dynstat_theta_del2           =   7.3210392570546E-08
(PID.TID 0000.0001) %MON dynstat_salt_max             =   3.5000000000000E+01
(PID.TID 0000.0001) %MON dynstat_salt_min             =   3.5000000000000E+01
(PID.TID 0000.0001) %MON dynstat_salt_mean            =   3.5000000000000E+01
(PID.TID 0000.0001) %MON dynstat_salt_sd              =   1.0658141036402E-13
(PID.TID 0000.0001) %MON dynstat_salt_del2            =   0.0000000000000E+00
(PID.TID 0000.0001) %MON advcfl_uvel_max              =   1.4934117088250E-02
(PID.TID 0000.0001) %MON advcfl_vvel_max              =   4.7423781804355E-03
(PID.TID 0000.0001) %MON advcfl_wvel_max              =   1.7450923177436E-04
(PID.TID 0000.0001) %MON advcfl_W_hf_max              =   3.6532693863158E-04
(PID.TID 0000.0001) %MON pe_b_mean                    =   8.7594788961234E-10
(PID.TID 0000.0001) %MON ke_max                       =   8.4961933842161E-03
(PID.TID 0000.0001) %MON ke_mean                      =   5.8645567786141E-04
(PID.TID 0000.0001) %MON ke_vol                       =   3.6207071198500E+14
(PID.TID 0000.0001) // =======================================================
(PID.TID 0000.0001) // End MONITOR dynamic field statistics
(PID.TID 0000.0001) // =======================================================
 cg2d: Sum(rhs),rhsMax =   1.32160948851379E-11  1.31928110331146E-03
(PID.TID 0000.0001)      cg2d_init_res =   1.23261871715852E+00
(PID.TID 0000.0001)      cg2d_iters(min,last) =      -1     130
(PID.TID 0000.0001)      cg2d_last_res =   9.49886537258192E-10
(PID.TID 0000.0001)  MDS_READVEC_LOC: open file: float_trajectories.001.001.data
(PID.TID 0000.0001)  MDS_READVEC_LOC: open file: float_trajectories.002.001.data
(PID.TID 0000.0001)  MDS_READVEC_LOC: open file: float_trajectories.001.002.data
(PID.TID 0000.0001)  MDS_READVEC_LOC: open file: float_trajectories.002.002.data
(PID.TID 0000.0001) // =======================================================
(PID.TID 0000.0001) // Begin MONITOR dynamic field statistics
(PID.TID 0000.0001) // =======================================================
(PID.TID 0000.0001) %MON time_tsnumber                =                    12
(PID.TID 0000.0001) %MON time_secondsf                =   7.2000000000000E+03
(PID.TID 0000.0001) %MON dynstat_eta_max              =   1.5086002212069E-03
(PID.TID 0000.0001) %MON dynstat_eta_min              =  -1.5427919878677E-03
(PID.TID 0000.0001) %MON dynstat_eta_mean             =  -3.0097759589947E-16
(PID.TID 0000.0001) %MON dynstat_eta_sd               =   9.6370677514318E-04
(PID.TID 0000.0001) %MON dynstat_eta_del2             =   7.9071132171301E-07
(PID.TID 0000.0001) %MON dynstat_uvel_max             =   1.3391448093442E-01
(PID.TID 0000.0001) %MON dynstat_uvel_min             =  -9.1942239437464E-04
(PID.TID 0000.0001) %MON dynstat_uvel_mean            =   1.2315871699269E-02
(PID.TID 0000.0001) %MON dynstat_uvel_sd              =   3.2623460838257E-02
(PID.TID 0000.0001) %MON dynstat_uvel_del2            =   4.0367733480163E-06
(PID.TID 0000.0001) %MON dynstat_vvel_max             =   3.7554600500089E-03
(PID.TID 0000.0001) %MON dynstat_vvel_min             =  -4.6694351625243E-02
(PID.TID 0000.0001) %MON dynstat_vvel_mean            =  -4.7474044269204E-03
(PID.TID 0000.0001) %MON dynstat_vvel_sd              =   1.2330782378848E-02
(PID.TID 0000.0001) %MON dynstat_vvel_del2            =   1.0894196043058E-06
(PID.TID 0000.0001) %MON dynstat_wvel_max             =   1.9174371233660E-04
(PID.TID 0000.0001) %MON dynstat_wvel_min             =  -1.9236715049235E-04
(PID.TID 0000.0001) %MON dynstat_wvel_mean            =   5.8558949253015E-20
(PID.TID 0000.0001) %MON dynstat_wvel_sd              =   7.7636682249317E-05
(PID.TID 0000.0001) %MON dynstat_wvel_del2            =   1.0192593834395E-07
(PID.TID 0000.0001) %MON dynstat_theta_max            =   6.9691719988736E-01
(PID.TID 0000.0001) %MON dynstat_theta_min            =  -6.9687239084814E-01
(PID.TID 0000.0001) %MON dynstat_theta_mean           =   1.8778127525658E-02
(PID.TID 0000.0001) %MON dynstat_theta_sd             =   4.5245483657634E-01
(PID.TID 0000.0001) %MON dynstat_theta_del2           =   9.0406480275096E-08
(PID.TID 0000.0001) %MON dynstat_salt_max             =   3.5000000000000E+01
(PID.TID 0000.0001) %MON dynstat_salt_min             =   3.5000000000000E+01
(PID.TID 0000.0001) %MON dynstat_salt_mean            =   3.5000000000000E+01
(PID.TID 0000.0001) %MON dynstat_salt_sd              =   1.0658141036402E-13
(PID.TID 0000.0001) %MON dynstat_salt_del2            =   0.0000000000000E+00
(PID.TID 0000.0001) %MON advcfl_uvel_max              =   1.6069737712130E-02
(PID.TID 0000.0001) %MON advcfl_vvel_max              =   5.6033221950291E-03
(PID.TID 0000.0001) %MON advcfl_wvel_max              =   2.0519162719184E-04
(PID.TID 0000.0001) %MON advcfl_W_hf_max              =   4.3403612457973E-04
(PID.TID 0000.0001) %MON pe_b_mean                    =   1.0568533446998E-09
(PID.TID 0000.0001) %MON ke_max                       =   1.0018624243968E-02
(PID.TID 0000.0001) %MON ke_mean                      =   6.9285183463163E-04
(PID.TID 0000.0001) %MON ke_vol                       =   3.6207071198500E+14
(PID.TID 0000.0001) // =======================================================
(PID.TID 0000.0001) // End MONITOR dynamic field statistics
(PID.TID 0000.0001) // =======================================================
 cg2d: Sum(rhs),rhsMax =   1.14539489004528E-11  1.40031014470139E-03
(PID.TID 0000.0001)      cg2d_init_res =   1.20408858344897E+00
(PID.TID 0000.0001)      cg2d_iters(min,last) =      -1     130
(PID.TID 0000.0001)      cg2d_last_res =   9.39630822300047E-10
(PID.TID 0000.0001) // =======================================================
(PID.TID 0000.0001) // Begin MONITOR dynamic field statistics
(PID.TID 0000.0001) // =======================================================
(PID.TID 0000.0001) %MON time_tsnumber                =                    13
(PID.TID 0000.0001) %MON time_secondsf                =   7.8000000000000E+03
(PID.TID 0000.0001) %MON dynstat_eta_max              =   1.6453080830687E-03
(PID.TID 0000.0001) %MON dynstat_eta_min              =  -1.6822326596496E-03
(PID.TID 0000.0001) %MON dynstat_eta_mean             =  -2.5907647672784E-16
(PID.TID 0000.0001) %MON dynstat_eta_sd               =   1.0509904841799E-03
(PID.TID 0000.0001) %MON dynstat_eta_del2             =   8.6274810103293E-07
(PID.TID 0000.0001) %MON dynstat_uvel_max             =   1.4293609330535E-01
(PID.TID 0000.0001) %MON dynstat_uvel_min             =  -9.1902661725591E-04
(PID.TID 0000.0001) %MON dynstat_uvel_mean            =   1.3126250954337E-02
(PID.TID 0000.0001) %MON dynstat_uvel_sd              =   3.4786714189438E-02
(PID.TID 0000.0001) %MON dynstat_uvel_del2            =   4.2747668705834E-06
(PID.TID 0000.0001) %MON dynstat_vvel_max             =   4.3131642481414E-03
(PID.TID 0000.0001) %MON dynstat_vvel_min             =  -5.4391655451636E-02
(PID.TID 0000.0001) %MON dynstat_vvel_mean            =  -5.5273225866358E-03
(PID.TID 0000.0001) %MON dynstat_vvel_sd              =   1.4357195656008E-02
(PID.TID 0000.0001) %MON dynstat_vvel_del2            =   1.2491218987003E-06
(PID.TID 0000.0001) %MON dynstat_wvel_max             =   2.2180489758725E-04
(PID.TID 0000.0001) %MON dynstat_wvel_min             =  -2.2281695115462E-04
(PID.TID 0000.0001) %MON dynstat_wvel_mean            =   5.2981906467014E-20
(PID.TID 0000.0001) %MON dynstat_wvel_sd              =   9.0082952575119E-05
(PID.TID 0000.0001) %MON dynstat_wvel_del2            =   1.1300400189523E-07
(PID.TID 0000.0001) %MON dynstat_theta_max            =   6.9693908694558E-01
(PID.TID 0000.0001) %MON dynstat_theta_min            =  -6.9688253410755E-01
(PID.TID 0000.0001) %MON dynstat_theta_mean           =   1.8778127524560E-02
(PID.TID 0000.0001) %MON dynstat_theta_sd             =   4.5245483515114E-01
(PID.TID 0000.0001) %MON dynstat_theta_del2           =   1.0930694488531E-07
(PID.TID 0000.0001) %MON dynstat_salt_max             =   3.5000000000000E+01
(PID.TID 0000.0001) %MON dynstat_salt_min             =   3.5000000000000E+01
(PID.TID 0000.0001) %MON dynstat_salt_mean            =   3.5000000000000E+01
(PID.TID 0000.0001) %MON dynstat_salt_sd              =   1.0658141036402E-13
(PID.TID 0000.0001) %MON dynstat_salt_del2            =   0.0000000000000E+00
(PID.TID 0000.0001) %MON advcfl_uvel_max              =   1.7152331196642E-02
(PID.TID 0000.0001) %MON advcfl_vvel_max              =   6.5269986541963E-03
(PID.TID 0000.0001) %MON advcfl_wvel_max              =   2.3767141456493E-04
(PID.TID 0000.0001) %MON advcfl_W_hf_max              =   5.0794504586472E-04
(PID.TID 0000.0001) %MON pe_b_mean                    =   1.2569629292401E-09
(PID.TID 0000.0001) %MON ke_max                       =   1.1644335067724E-02
(PID.TID 0000.0001) %MON ke_mean                      =   8.0672171752854E-04
(PID.TID 0000.0001) %MON ke_vol                       =   3.6207071198500E+14
(PID.TID 0000.0001) // =======================================================
(PID.TID 0000.0001) // End MONITOR dynamic field statistics
(PID.TID 0000.0001) // =======================================================
 cg2d: Sum(rhs),rhsMax =   9.43600753089413E-12  1.47552889876276E-03
(PID.TID 0000.0001)      cg2d_init_res =   1.18326337899090E+00
(PID.TID 0000.0001)      cg2d_iters(min,last) =      -1     130
(PID.TID 0000.0001)      cg2d_last_res =   9.35058231581075E-10
(PID.TID 0000.0001) // =======================================================
(PID.TID 0000.0001) // Begin MONITOR dynamic field statistics
(PID.TID 0000.0001) // =======================================================
(PID.TID 0000.0001) %MON time_tsnumber                =                    14
(PID.TID 0000.0001) %MON time_secondsf                =   8.4000000000000E+03
(PID.TID 0000.0001) %MON dynstat_eta_max              =   1.7834120112577E-03
(PID.TID 0000.0001) %MON dynstat_eta_min              =  -1.8235223223704E-03
(PID.TID 0000.0001) %MON dynstat_eta_mean             =  -2.1576250671710E-16
(PID.TID 0000.0001) %MON dynstat_eta_sd               =   1.1392712980168E-03
(PID.TID 0000.0001) %MON dynstat_eta_del2             =   9.3567534988975E-07
(PID.TID 0000.0001) %MON dynstat_uvel_max             =   1.5148883249318E-01
(PID.TID 0000.0001) %MON dynstat_uvel_min             =  -8.8680053771963E-04
(PID.TID 0000.0001) %MON dynstat_uvel_mean            =   1.3887700233241E-02
(PID.TID 0000.0001) %MON dynstat_uvel_sd              =   3.6824264919647E-02
(PID.TID 0000.0001) %MON dynstat_uvel_del2            =   4.4996957604626E-06
(PID.TID 0000.0001) %MON dynstat_vvel_max             =   4.8919894169600E-03
(PID.TID 0000.0001) %MON dynstat_vvel_min             =  -6.2578578015352E-02
(PID.TID 0000.0001) %MON dynstat_vvel_mean            =  -6.3549655519696E-03
(PID.TID 0000.0001) %MON dynstat_vvel_sd              =   1.6507892790581E-02
(PID.TID 0000.0001) %MON dynstat_vvel_del2            =   1.4153997465130E-06
(PID.TID 0000.0001) %MON dynstat_wvel_max             =   2.5407710155352E-04
(PID.TID 0000.0001) %MON dynstat_wvel_min             =  -2.5478922595414E-04
(PID.TID 0000.0001) %MON dynstat_wvel_mean            =   1.7567684775905E-19
(PID.TID 0000.0001) %MON dynstat_wvel_sd              =   1.0321514408347E-04
(PID.TID 0000.0001) %MON dynstat_wvel_del2            =   1.2394241491970E-07
(PID.TID 0000.0001) %MON dynstat_theta_max            =   6.9696420730132E-01
(PID.TID 0000.0001) %MON dynstat_theta_min            =  -6.9689422529688E-01
(PID.TID 0000.0001) %MON dynstat_theta_mean           =   1.8778127523164E-02
(PID.TID 0000.0001) %MON dynstat_theta_sd             =   4.5245483372196E-01
(PID.TID 0000.0001) %MON dynstat_theta_del2           =   1.2984524258947E-07
(PID.TID 0000.0001) %MON dynstat_salt_max             =   3.5000000000000E+01
(PID.TID 0000.0001) %MON dynstat_salt_min             =   3.5000000000000E+01
(PID.TID 0000.0001) %MON dynstat_salt_mean            =   3.5000000000000E+01
(PID.TID 0000.0001) %MON dynstat_salt_sd              =   1.0658141036402E-13
(PID.TID 0000.0001) %MON dynstat_salt_del2            =   0.0000000000000E+00
(PID.TID 0000.0001) %MON advcfl_uvel_max              =   1.8178659899181E-02
(PID.TID 0000.0001) %MON advcfl_vvel_max              =   7.5094293618423E-03
(PID.TID 0000.0001) %MON advcfl_wvel_max              =   2.7177517435108E-04
(PID.TID 0000.0001) %MON advcfl_W_hf_max              =   5.8678244215151E-04
(PID.TID 0000.0001) %MON pe_b_mean                    =   1.4769956430050E-09
(PID.TID 0000.0001) %MON ke_max                       =   1.3367162229794E-02
(PID.TID 0000.0001) %MON ke_mean                      =   9.2764646151414E-04
(PID.TID 0000.0001) %MON ke_vol                       =   3.6207071198500E+14
(PID.TID 0000.0001) // =======================================================
(PID.TID 0000.0001) // End MONITOR dynamic field statistics
(PID.TID 0000.0001) // =======================================================
 cg2d: Sum(rhs),rhsMax =   7.58859641791787E-12  1.54478344764935E-03
(PID.TID 0000.0001)      cg2d_init_res =   1.16854144134200E+00
(PID.TID 0000.0001)      cg2d_iters(min,last) =      -1     130
(PID.TID 0000.0001)      cg2d_last_res =   9.35281145303630E-10
(PID.TID 0000.0001) // =======================================================
(PID.TID 0000.0001) // Begin MONITOR dynamic field statistics
(PID.TID 0000.0001) // =======================================================
(PID.TID 0000.0001) %MON time_tsnumber                =                    15
(PID.TID 0000.0001) %MON time_secondsf                =   9.0000000000000E+03
(PID.TID 0000.0001) %MON dynstat_eta_max              =   1.9239107678927E-03
(PID.TID 0000.0001) %MON dynstat_eta_min              =  -1.9660013672932E-03
(PID.TID 0000.0001) %MON dynstat_eta_mean             =  -1.6780631252067E-16
(PID.TID 0000.0001) %MON dynstat_eta_sd               =   1.2286070186312E-03
(PID.TID 0000.0001) %MON dynstat_eta_del2             =   1.0094988154024E-06
(PID.TID 0000.0001) %MON dynstat_uvel_max             =   1.5954713818577E-01
(PID.TID 0000.0001) %MON dynstat_uvel_min             =  -9.4106825361660E-04
(PID.TID 0000.0001) %MON dynstat_uvel_mean            =   1.4597437230511E-02
(PID.TID 0000.0001) %MON dynstat_uvel_sd              =   3.8729002969686E-02
(PID.TID 0000.0001) %MON dynstat_uvel_del2            =   4.7118637250179E-06
(PID.TID 0000.0001) %MON dynstat_vvel_max             =   5.4882069040973E-03
(PID.TID 0000.0001) %MON dynstat_vvel_min             =  -7.1218279873500E-02
(PID.TID 0000.0001) %MON dynstat_vvel_mean            =  -7.2272799300961E-03
(PID.TID 0000.0001) %MON dynstat_vvel_sd              =   1.8775010969719E-02
(PID.TID 0000.0001) %MON dynstat_vvel_del2            =   1.5875390475901E-06
(PID.TID 0000.0001) %MON dynstat_wvel_max             =   2.8842618895172E-04
(PID.TID 0000.0001) %MON dynstat_wvel_min             =  -2.8904073255298E-04
(PID.TID 0000.0001) %MON dynstat_wvel_mean            =  -1.6731128358004E-20
(PID.TID 0000.0001) %MON dynstat_wvel_sd              =   1.1697581293093E-04
(PID.TID 0000.0001) %MON dynstat_wvel_del2            =   1.3472130118370E-07
(PID.TID 0000.0001) %MON dynstat_theta_max            =   6.9699269742698E-01
(PID.TID 0000.0001) %MON dynstat_theta_min            =  -6.9690755321630E-01
(PID.TID 0000.0001) %MON dynstat_theta_mean           =   1.8778127521420E-02
(PID.TID 0000.0001) %MON dynstat_theta_sd             =   4.5245483228323E-01
(PID.TID 0000.0001) %MON dynstat_theta_del2           =   1.5195344277067E-07
(PID.TID 0000.0001) %MON dynstat_salt_max             =   3.5000000000000E+01
(PID.TID 0000.0001) %MON dynstat_salt_min             =   3.5000000000000E+01
(PID.TID 0000.0001) %MON dynstat_salt_mean            =   3.5000000000000E+01
(PID.TID 0000.0001) %MON dynstat_salt_sd              =   1.0658141036402E-13
(PID.TID 0000.0001) %MON dynstat_salt_del2            =   0.0000000000000E+00
(PID.TID 0000.0001) %MON advcfl_uvel_max              =   1.9145656582293E-02
(PID.TID 0000.0001) %MON advcfl_vvel_max              =   8.5461935848200E-03
(PID.TID 0000.0001) %MON advcfl_wvel_max              =   3.0831011472317E-04
(PID.TID 0000.0001) %MON advcfl_W_hf_max              =   6.7024210826230E-04
(PID.TID 0000.0001) %MON pe_b_mean                    =   1.7177141201540E-09
(PID.TID 0000.0001) %MON ke_max                       =   1.5180655341957E-02
(PID.TID 0000.0001) %MON ke_mean                      =   1.0551821237527E-03
(PID.TID 0000.0001) %MON ke_vol                       =   3.6207071198500E+14
(PID.TID 0000.0001) // =======================================================
(PID.TID 0000.0001) // End MONITOR dynamic field statistics
(PID.TID 0000.0001) // =======================================================
 cg2d: Sum(rhs),rhsMax =   5.14432940690313E-12  1.60791856057540E-03
(PID.TID 0000.0001)      cg2d_init_res =   1.15881627694517E+00
(PID.TID 0000.0001)      cg2d_iters(min,last) =      -1     130
(PID.TID 0000.0001)      cg2d_last_res =   9.39609888361721E-10
(PID.TID 0000.0001) // =======================================================
(PID.TID 0000.0001) // Begin MONITOR dynamic field statistics
(PID.TID 0000.0001) // =======================================================
(PID.TID 0000.0001) %MON time_tsnumber                =                    16
(PID.TID 0000.0001) %MON time_secondsf                =   9.6000000000000E+03
(PID.TID 0000.0001) %MON dynstat_eta_max              =   2.0657668215883E-03
(PID.TID 0000.0001) %MON dynstat_eta_min              =  -2.1096617150526E-03
(PID.TID 0000.0001) %MON dynstat_eta_mean             =  -1.0773996827464E-16
(PID.TID 0000.0001) %MON dynstat_eta_sd               =   1.3190505264595E-03
(PID.TID 0000.0001) %MON dynstat_eta_del2             =   1.0842111784871E-06
(PID.TID 0000.0001) %MON dynstat_uvel_max             =   1.6708696330426E-01
(PID.TID 0000.0001) %MON dynstat_uvel_min             =  -1.1394685949671E-03
(PID.TID 0000.0001) %MON dynstat_uvel_mean            =   1.5252869308822E-02
(PID.TID 0000.0001) %MON dynstat_uvel_sd              =   4.0494312212348E-02
(PID.TID 0000.0001) %MON dynstat_uvel_del2            =   4.9115684185024E-06
(PID.TID 0000.0001) %MON dynstat_vvel_max             =   6.0979759198481E-03
(PID.TID 0000.0001) %MON dynstat_vvel_min             =  -8.0280624697406E-02
(PID.TID 0000.0001) %MON dynstat_vvel_mean            =  -8.1410510418005E-03
(PID.TID 0000.0001) %MON dynstat_vvel_sd              =   2.1150273676779E-02
(PID.TID 0000.0001) %MON dynstat_vvel_del2            =   1.7648424320601E-06
(PID.TID 0000.0001) %MON dynstat_wvel_max             =   3.2419547630674E-04
(PID.TID 0000.0001) %MON dynstat_wvel_min             =  -3.2513857764426E-04
(PID.TID 0000.0001) %MON dynstat_wvel_mean            =   4.1827820895011E-20
(PID.TID 0000.0001) %MON dynstat_wvel_sd              =   1.3130567741584E-04
(PID.TID 0000.0001) %MON dynstat_wvel_del2            =   1.4533006309816E-07
(PID.TID 0000.0001) %MON dynstat_theta_max            =   6.9702516331375E-01
(PID.TID 0000.0001) %MON dynstat_theta_min            =  -6.9692260289168E-01
(PID.TID 0000.0001) %MON dynstat_theta_mean           =   1.8778127519270E-02
(PID.TID 0000.0001) %MON dynstat_theta_sd             =   4.5245483082779E-01
(PID.TID 0000.0001) %MON dynstat_theta_del2           =   1.7556372016954E-07
(PID.TID 0000.0001) %MON dynstat_salt_max             =   3.5000000000000E+01
(PID.TID 0000.0001) %MON dynstat_salt_min             =   3.5000000000000E+01
(PID.TID 0000.0001) %MON dynstat_salt_mean            =   3.5000000000000E+01
(PID.TID 0000.0001) %MON dynstat_salt_sd              =   1.0658141036402E-13
(PID.TID 0000.0001) %MON dynstat_salt_del2            =   0.0000000000000E+00
(PID.TID 0000.0001) %MON advcfl_uvel_max              =   2.0050435596511E-02
(PID.TID 0000.0001) %MON advcfl_vvel_max              =   9.6336749636888E-03
(PID.TID 0000.0001) %MON advcfl_wvel_max              =   3.4681448282055E-04
(PID.TID 0000.0001) %MON advcfl_W_hf_max              =   7.5798263820003E-04
(PID.TID 0000.0001) %MON pe_b_mean                    =   1.9799205574878E-09
(PID.TID 0000.0001) %MON ke_max                       =   1.7078094455284E-02
(PID.TID 0000.0001) %MON ke_mean                      =   1.1888612919236E-03
(PID.TID 0000.0001) %MON ke_vol                       =   3.6207071198500E+14
(PID.TID 0000.0001) // =======================================================
(PID.TID 0000.0001) // End MONITOR dynamic field statistics
(PID.TID 0000.0001) // =======================================================
 cg2d: Sum(rhs),rhsMax =   3.63797880709171E-12  1.69285452157213E-03
(PID.TID 0000.0001)      cg2d_init_res =   1.13419437754552E+00
(PID.TID 0000.0001)      cg2d_iters(min,last) =      -1     130
(PID.TID 0000.0001)      cg2d_last_res =   9.31796754883087E-10
(PID.TID 0000.0001) // =======================================================
(PID.TID 0000.0001) // Begin MONITOR dynamic field statistics
(PID.TID 0000.0001) // =======================================================
(PID.TID 0000.0001) %MON time_tsnumber                =                    17
(PID.TID 0000.0001) %MON time_secondsf                =   1.0200000000000E+04
(PID.TID 0000.0001) %MON dynstat_eta_max              =   2.2089714547267E-03
(PID.TID 0000.0001) %MON dynstat_eta_min              =  -2.2557078322850E-03
(PID.TID 0000.0001) %MON dynstat_eta_mean             =  -3.3948787305721E-17
(PID.TID 0000.0001) %MON dynstat_eta_sd               =   1.4106495213178E-03
(PID.TID 0000.0001) %MON dynstat_eta_del2             =   1.1597930840388E-06
(PID.TID 0000.0001) %MON dynstat_uvel_max             =   1.7408586195872E-01
(PID.TID 0000.0001) %MON dynstat_uvel_min             =  -1.3628169856366E-03
(PID.TID 0000.0001) %MON dynstat_uvel_mean            =   1.5851602800588E-02
(PID.TID 0000.0001) %MON dynstat_uvel_sd              =   4.2114095195723E-02
(PID.TID 0000.0001) %MON dynstat_uvel_del2            =   5.0991061448660E-06
(PID.TID 0000.0001) %MON dynstat_vvel_max             =   6.7173371042979E-03
(PID.TID 0000.0001) %MON dynstat_vvel_min             =  -8.9734011793207E-02
(PID.TID 0000.0001) %MON dynstat_vvel_mean            =  -9.0929146645706E-03
(PID.TID 0000.0001) %MON dynstat_vvel_sd              =   2.3625020962975E-02
(PID.TID 0000.0001) %MON dynstat_vvel_del2            =   1.9466268984743E-06
(PID.TID 0000.0001) %MON dynstat_wvel_max             =   3.6120051505221E-04
(PID.TID 0000.0001) %MON dynstat_wvel_min             =  -3.6259026547778E-04
(PID.TID 0000.0001) %MON dynstat_wvel_mean            =  -4.3500933730811E-19
(PID.TID 0000.0001) %MON dynstat_wvel_sd              =   1.4614385013223E-04
(PID.TID 0000.0001) %MON dynstat_wvel_del2            =   1.5576422569127E-07
(PID.TID 0000.0001) %MON dynstat_theta_max            =   6.9706173893209E-01
(PID.TID 0000.0001) %MON dynstat_theta_min            =  -6.9693945545062E-01
(PID.TID 0000.0001) %MON dynstat_theta_mean           =   1.8778127516657E-02
(PID.TID 0000.0001) %MON dynstat_theta_sd             =   4.5245482934671E-01
(PID.TID 0000.0001) %MON dynstat_theta_del2           =   2.0060914716173E-07
(PID.TID 0000.0001) %MON dynstat_salt_max             =   3.5000000000000E+01
(PID.TID 0000.0001) %MON dynstat_salt_min             =   3.5000000000000E+01
(PID.TID 0000.0001) %MON dynstat_salt_mean            =   3.5000000000000E+01
(PID.TID 0000.0001) %MON dynstat_salt_sd              =   1.0658141036402E-13
(PID.TID 0000.0001) %MON dynstat_salt_del2            =   0.0000000000000E+00
(PID.TID 0000.0001) %MON advcfl_uvel_max              =   2.0890303435047E-02
(PID.TID 0000.0001) %MON advcfl_vvel_max              =   1.0768081415185E-02
(PID.TID 0000.0001) %MON advcfl_wvel_max              =   3.8676294984297E-04
(PID.TID 0000.0001) %MON advcfl_W_hf_max              =   8.4962732101337E-04
(PID.TID 0000.0001) %MON pe_b_mean                    =   2.2644521778856E-09
(PID.TID 0000.0001) %MON ke_max                       =   1.9052508424401E-02
(PID.TID 0000.0001) %MON ke_mean                      =   1.3281947774837E-03
(PID.TID 0000.0001) %MON ke_vol                       =   3.6207071198500E+14
(PID.TID 0000.0001) // =======================================================
(PID.TID 0000.0001) // End MONITOR dynamic field statistics
(PID.TID 0000.0001) // =======================================================
 cg2d: Sum(rhs),rhsMax =   1.36424205265939E-12  1.84615904127558E-03
(PID.TID 0000.0001)      cg2d_init_res =   1.06985383449370E+00
(PID.TID 0000.0001)      cg2d_iters(min,last) =      -1     130
(PID.TID 0000.0001)      cg2d_last_res =   8.90585945135405E-10
(PID.TID 0000.0001) S/R MDS_READVEC_LOC: file=float_profiles.001.001.data not found
(PID.TID 0000.0001) S/R MDS_READVEC_LOC: file=float_profiles.002.001.data not found
(PID.TID 0000.0001) S/R MDS_READVEC_LOC: file=float_profiles.001.002.data not found
(PID.TID 0000.0001) S/R MDS_READVEC_LOC: file=float_profiles.002.002.data not found
(PID.TID 0000.0001)  MDS_READVEC_LOC: open file: float_trajectories.001.001.data
(PID.TID 0000.0001)  MDS_READVEC_LOC: open file: float_trajectories.002.001.data
(PID.TID 0000.0001)  MDS_READVEC_LOC: open file: float_trajectories.001.002.data
(PID.TID 0000.0001)  MDS_READVEC_LOC: open file: float_trajectories.002.002.data
(PID.TID 0000.0001) // =======================================================
(PID.TID 0000.0001) // Begin MONITOR dynamic field statistics
(PID.TID 0000.0001) // =======================================================
(PID.TID 0000.0001) %MON time_tsnumber                =                    18
(PID.TID 0000.0001) %MON time_secondsf                =   1.0800000000000E+04
(PID.TID 0000.0001) %MON dynstat_eta_max              =   2.3545805862695E-03
(PID.TID 0000.0001) %MON dynstat_eta_min              =  -2.4040673779878E-03
(PID.TID 0000.0001) %MON dynstat_eta_mean             =   3.1567124462632E-17
(PID.TID 0000.0001) %MON dynstat_eta_sd               =   1.5034462170741E-03
(PID.TID 0000.0001) %MON dynstat_eta_del2             =   1.2362140674188E-06
(PID.TID 0000.0001) %MON dynstat_uvel_max             =   1.8052307191811E-01
(PID.TID 0000.0001) %MON dynstat_uvel_min             =  -1.6122792865185E-03
(PID.TID 0000.0001) %MON dynstat_uvel_mean            =   1.6391451584898E-02
(PID.TID 0000.0001) %MON dynstat_uvel_sd              =   4.3582796181111E-02
(PID.TID 0000.0001) %MON dynstat_uvel_del2            =   5.2747759936178E-06
(PID.TID 0000.0001) %MON dynstat_vvel_max             =   7.3422080948999E-03
(PID.TID 0000.0001) %MON dynstat_vvel_min             =  -9.9545491499738E-02
(PID.TID 0000.0001) %MON dynstat_vvel_mean            =  -1.0079369310398E-02
(PID.TID 0000.0001) %MON dynstat_vvel_sd              =   2.6190241078864E-02
(PID.TID 0000.0001) %MON dynstat_vvel_del2            =   2.1322221409990E-06
(PID.TID 0000.0001) %MON dynstat_wvel_max             =   3.9924856516798E-04
(PID.TID 0000.0001) %MON dynstat_wvel_min             =  -4.0123118354229E-04
(PID.TID 0000.0001) %MON dynstat_wvel_mean            =  -4.0154708059211E-19
(PID.TID 0000.0001) %MON dynstat_wvel_sd              =   1.6142807636759E-04
(PID.TID 0000.0001) %MON dynstat_wvel_del2            =   1.6602317679934E-07
(PID.TID 0000.0001) %MON dynstat_theta_max            =   6.9710231128269E-01
(PID.TID 0000.0001) %MON dynstat_theta_min            =  -6.9695818797811E-01
(PID.TID 0000.0001) %MON dynstat_theta_mean           =   1.8778127513517E-02
(PID.TID 0000.0001) %MON dynstat_theta_sd             =   4.5245482782922E-01
(PID.TID 0000.0001) %MON dynstat_theta_del2           =   2.2702400771867E-07
(PID.TID 0000.0001) %MON dynstat_salt_max             =   3.5000000000000E+01
(PID.TID 0000.0001) %MON dynstat_salt_min             =   3.5000000000000E+01
(PID.TID 0000.0001) %MON dynstat_salt_mean            =   3.5000000000000E+01
(PID.TID 0000.0001) %MON dynstat_salt_sd              =   1.0658141036402E-13
(PID.TID 0000.0001) %MON dynstat_salt_del2            =   0.0000000000000E+00
(PID.TID 0000.0001) %MON advcfl_uvel_max              =   2.1662768630173E-02
(PID.TID 0000.0001) %MON advcfl_vvel_max              =   1.1945458979969E-02
(PID.TID 0000.0001) %MON advcfl_wvel_max              =   4.2797992911177E-04
(PID.TID 0000.0001) %MON advcfl_W_hf_max              =   9.4476422555952E-04
(PID.TID 0000.0001) %MON pe_b_mean                    =   2.5721760793358E-09
(PID.TID 0000.0001) %MON ke_max                       =   2.1096694386073E-02
(PID.TID 0000.0001) %MON ke_mean                      =   1.4726733880038E-03
(PID.TID 0000.0001) %MON ke_vol                       =   3.6207071198500E+14
(PID.TID 0000.0001) // =======================================================
(PID.TID 0000.0001) // End MONITOR dynamic field statistics
(PID.TID 0000.0001) // =======================================================
(PID.TID 0000.0001)  FLT_WRITE_PICKUP:          140.00 floats written
(PID.TID 0000.0001) %CHECKPOINT        18 ckptA
(PID.TID 0000.0001)   Seconds in section "ALL                    [THE_MODEL_MAIN]":
(PID.TID 0000.0001)           User time:   2.8599999999999999
(PID.TID 0000.0001)         System time:  2.00000000000000004E-002
(PID.TID 0000.0001)     Wall clock time:   2.9029691219329834
(PID.TID 0000.0001)          No. starts:           1
(PID.TID 0000.0001)           No. stops:           1
(PID.TID 0000.0001)   Seconds in section "INITIALISE_FIXED       [THE_MODEL_MAIN]":
(PID.TID 0000.0001)           User time:  4.00000000000000008E-002
(PID.TID 0000.0001)         System time:   0.0000000000000000
(PID.TID 0000.0001)     Wall clock time:  5.37710189819335938E-002
(PID.TID 0000.0001)          No. starts:           1
(PID.TID 0000.0001)           No. stops:           1
(PID.TID 0000.0001)   Seconds in section "THE_MAIN_LOOP          [THE_MODEL_MAIN]":
(PID.TID 0000.0001)           User time:   2.8199999999999998
(PID.TID 0000.0001)         System time:  2.00000000000000004E-002
(PID.TID 0000.0001)     Wall clock time:   2.8491628170013428
(PID.TID 0000.0001)          No. starts:           1
(PID.TID 0000.0001)           No. stops:           1
(PID.TID 0000.0001)   Seconds in section "INITIALISE_VARIA    [THE_MAIN_LOOP]":
(PID.TID 0000.0001)           User time:  3.00000000000000058E-002
(PID.TID 0000.0001)         System time:  1.00000000000000002E-002
(PID.TID 0000.0001)     Wall clock time:  3.96549701690673828E-002
(PID.TID 0000.0001)          No. starts:           1
(PID.TID 0000.0001)           No. stops:           1
(PID.TID 0000.0001)   Seconds in section "MAIN LOOP           [THE_MAIN_LOOP]":
(PID.TID 0000.0001)           User time:   2.7900000000000000
(PID.TID 0000.0001)         System time:  1.00000000000000002E-002
(PID.TID 0000.0001)     Wall clock time:   2.8094801902770996
(PID.TID 0000.0001)          No. starts:           1
(PID.TID 0000.0001)           No. stops:           1
(PID.TID 0000.0001)   Seconds in section "MAIN_DO_LOOP        [THE_MAIN_LOOP]":
(PID.TID 0000.0001)           User time:   2.7900000000000005
(PID.TID 0000.0001)         System time:  1.00000000000000002E-002
(PID.TID 0000.0001)     Wall clock time:   2.8093178272247314
(PID.TID 0000.0001)          No. starts:          18
(PID.TID 0000.0001)           No. stops:          18
(PID.TID 0000.0001)   Seconds in section "FORWARD_STEP        [MAIN_DO_LOOP]":
(PID.TID 0000.0001)           User time:   2.7900000000000005
(PID.TID 0000.0001)         System time:  1.00000000000000002E-002
(PID.TID 0000.0001)     Wall clock time:   2.8090116977691650
(PID.TID 0000.0001)          No. starts:          18
(PID.TID 0000.0001)           No. stops:          18
(PID.TID 0000.0001)   Seconds in section "LOAD_FIELDS_DRIVER  [FORWARD_STEP]":
(PID.TID 0000.0001)           User time:   0.0000000000000000
(PID.TID 0000.0001)         System time:   0.0000000000000000
(PID.TID 0000.0001)     Wall clock time:  4.69923019409179688E-004
(PID.TID 0000.0001)          No. starts:          18
(PID.TID 0000.0001)           No. stops:          18
(PID.TID 0000.0001)   Seconds in section "EXTERNAL_FLDS_LOAD [LOAD_FLDS_DRIVER]":
(PID.TID 0000.0001)           User time:   0.0000000000000000
(PID.TID 0000.0001)         System time:   0.0000000000000000
(PID.TID 0000.0001)     Wall clock time:  1.58309936523437500E-004
(PID.TID 0000.0001)          No. starts:          18
(PID.TID 0000.0001)           No. stops:          18
(PID.TID 0000.0001)   Seconds in section "DO_ATMOSPHERIC_PHYS [FORWARD_STEP]":
(PID.TID 0000.0001)           User time:   0.0000000000000000
(PID.TID 0000.0001)         System time:   0.0000000000000000
(PID.TID 0000.0001)     Wall clock time:  1.53779983520507813E-004
(PID.TID 0000.0001)          No. starts:          18
(PID.TID 0000.0001)           No. stops:          18
(PID.TID 0000.0001)   Seconds in section "DO_OCEANIC_PHYS     [FORWARD_STEP]":
(PID.TID 0000.0001)           User time:  1.00000000000002309E-002
(PID.TID 0000.0001)         System time:   0.0000000000000000
(PID.TID 0000.0001)     Wall clock time:  1.75921916961669922E-002
(PID.TID 0000.0001)          No. starts:          18
(PID.TID 0000.0001)           No. stops:          18
(PID.TID 0000.0001)   Seconds in section "THERMODYNAMICS      [FORWARD_STEP]":
(PID.TID 0000.0001)           User time:  0.47999999999999954
(PID.TID 0000.0001)         System time:   0.0000000000000000
(PID.TID 0000.0001)     Wall clock time:  0.48562026023864746
(PID.TID 0000.0001)          No. starts:          18
(PID.TID 0000.0001)           No. stops:          18
(PID.TID 0000.0001)   Seconds in section "DYNAMICS            [FORWARD_STEP]":
(PID.TID 0000.0001)           User time:  0.77000000000000091
(PID.TID 0000.0001)         System time:   0.0000000000000000
(PID.TID 0000.0001)     Wall clock time:  0.76157999038696289
(PID.TID 0000.0001)          No. starts:          18
(PID.TID 0000.0001)           No. stops:          18
(PID.TID 0000.0001)   Seconds in section "SOLVE_FOR_PRESSURE  [FORWARD_STEP]":
(PID.TID 0000.0001)           User time:   1.1000000000000005
(PID.TID 0000.0001)         System time:   0.0000000000000000
(PID.TID 0000.0001)     Wall clock time:   1.0954535007476807
(PID.TID 0000.0001)          No. starts:          18
(PID.TID 0000.0001)           No. stops:          18
(PID.TID 0000.0001)   Seconds in section "MOM_CORRECTION_STEP [FORWARD_STEP]":
(PID.TID 0000.0001)           User time:  9.99999999999978684E-003
(PID.TID 0000.0001)         System time:   0.0000000000000000
(PID.TID 0000.0001)     Wall clock time:  2.40859985351562500E-002
(PID.TID 0000.0001)          No. starts:          18
(PID.TID 0000.0001)           No. stops:          18
(PID.TID 0000.0001)   Seconds in section "INTEGR_CONTINUITY   [FORWARD_STEP]":
(PID.TID 0000.0001)           User time:  4.00000000000000355E-002
(PID.TID 0000.0001)         System time:   0.0000000000000000
(PID.TID 0000.0001)     Wall clock time:  3.64539623260498047E-002
(PID.TID 0000.0001)          No. starts:          18
(PID.TID 0000.0001)           No. stops:          18
(PID.TID 0000.0001)   Seconds in section "TRC_CORRECTION_STEP [FORWARD_STEP]":
(PID.TID 0000.0001)           User time:  1.99999999999995737E-002
(PID.TID 0000.0001)         System time:   0.0000000000000000
(PID.TID 0000.0001)     Wall clock time:  1.21002197265625000E-002
(PID.TID 0000.0001)          No. starts:          18
(PID.TID 0000.0001)           No. stops:          18
(PID.TID 0000.0001)   Seconds in section "BLOCKING_EXCHANGES  [FORWARD_STEP]":
(PID.TID 0000.0001)           User time:   0.0000000000000000
(PID.TID 0000.0001)         System time:   0.0000000000000000
(PID.TID 0000.0001)     Wall clock time:  1.22764110565185547E-002
(PID.TID 0000.0001)          No. starts:          18
(PID.TID 0000.0001)           No. stops:          18
(PID.TID 0000.0001)   Seconds in section "FLOATS            [FORWARD_STEP]":
(PID.TID 0000.0001)           User time:   0.0000000000000000
(PID.TID 0000.0001)         System time:   0.0000000000000000
(PID.TID 0000.0001)     Wall clock time:  8.06498527526855469E-003
(PID.TID 0000.0001)          No. starts:          18
(PID.TID 0000.0001)           No. stops:          18
(PID.TID 0000.0001)   Seconds in section "FLOATS RUNGA2      [FLT  LOOP]":
(PID.TID 0000.0001)           User time:   0.0000000000000000
(PID.TID 0000.0001)         System time:   0.0000000000000000
(PID.TID 0000.0001)     Wall clock time:  7.44581222534179688E-004
(PID.TID 0000.0001)          No. starts:          18
(PID.TID 0000.0001)           No. stops:          18
(PID.TID 0000.0001)   Seconds in section "FLOATS EXCHG       [FLT  LOOP]":
(PID.TID 0000.0001)           User time:   0.0000000000000000
(PID.TID 0000.0001)         System time:   0.0000000000000000
(PID.TID 0000.0001)     Wall clock time:  1.94835662841796875E-003
(PID.TID 0000.0001)          No. starts:          18
(PID.TID 0000.0001)           No. stops:          18
(PID.TID 0000.0001)   Seconds in section "FLOATS DOWN        [FLT  LOOP]":
(PID.TID 0000.0001)           User time:   0.0000000000000000
(PID.TID 0000.0001)         System time:   0.0000000000000000
(PID.TID 0000.0001)     Wall clock time:  1.91688537597656250E-004
(PID.TID 0000.0001)          No. starts:          18
(PID.TID 0000.0001)           No. stops:          18
(PID.TID 0000.0001)   Seconds in section "MONITOR             [FORWARD_STEP]":
(PID.TID 0000.0001)           User time:  0.34000000000000030
(PID.TID 0000.0001)         System time:   0.0000000000000000
(PID.TID 0000.0001)     Wall clock time:  0.32615423202514648
(PID.TID 0000.0001)          No. starts:          18
(PID.TID 0000.0001)           No. stops:          18
(PID.TID 0000.0001)   Seconds in section "DO_THE_MODEL_IO     [FORWARD_STEP]":
(PID.TID 0000.0001)           User time:  1.00000000000002309E-002
(PID.TID 0000.0001)         System time:  1.00000000000000002E-002
(PID.TID 0000.0001)     Wall clock time:  1.14505290985107422E-002
(PID.TID 0000.0001)          No. starts:          18
(PID.TID 0000.0001)           No. stops:          18
(PID.TID 0000.0001)   Seconds in section "DO_WRITE_PICKUP     [FORWARD_STEP]":
(PID.TID 0000.0001)           User time:  9.99999999999978684E-003
(PID.TID 0000.0001)         System time:   0.0000000000000000
(PID.TID 0000.0001)     Wall clock time:  1.51681900024414063E-002
(PID.TID 0000.0001)          No. starts:          18
(PID.TID 0000.0001)           No. stops:          18
(PID.TID 0000.0001)   Seconds in section "FLOATS TRAJ        [FLT  LOOP]":
(PID.TID 0000.0001)           User time:   0.0000000000000000
(PID.TID 0000.0001)         System time:   0.0000000000000000
(PID.TID 0000.0001)     Wall clock time:  3.13186645507812500E-003
(PID.TID 0000.0001)          No. starts:           3
(PID.TID 0000.0001)           No. stops:           3
(PID.TID 0000.0001)   Seconds in section "FLOATS UP          [FLT  LOOP]":
(PID.TID 0000.0001)           User time:   0.0000000000000000
(PID.TID 0000.0001)         System time:   0.0000000000000000
(PID.TID 0000.0001)     Wall clock time:  1.36113166809082031E-003
(PID.TID 0000.0001)          No. starts:           1
(PID.TID 0000.0001)           No. stops:           1
(PID.TID 0000.0001) // ======================================================
(PID.TID 0000.0001) // Tile <-> Tile communication statistics
(PID.TID 0000.0001) // ======================================================
(PID.TID 0000.0001) // o Tile number: 000001
(PID.TID 0000.0001) //         No. X exchanges =              0
(PID.TID 0000.0001) //            Max. X spins =              0
(PID.TID 0000.0001) //            Min. X spins =     1000000000
(PID.TID 0000.0001) //          Total. X spins =              0
(PID.TID 0000.0001) //            Avg. X spins =       0.00E+00
(PID.TID 0000.0001) //         No. Y exchanges =              0
(PID.TID 0000.0001) //            Max. Y spins =              0
(PID.TID 0000.0001) //            Min. Y spins =     1000000000
(PID.TID 0000.0001) //          Total. Y spins =              0
(PID.TID 0000.0001) //            Avg. Y spins =       0.00E+00
(PID.TID 0000.0001) // o Tile number: 000002
(PID.TID 0000.0001) //         No. X exchanges =              0
(PID.TID 0000.0001) //            Max. X spins =              0
(PID.TID 0000.0001) //            Min. X spins =     1000000000
(PID.TID 0000.0001) //          Total. X spins =              0
(PID.TID 0000.0001) //            Avg. X spins =       0.00E+00
(PID.TID 0000.0001) //         No. Y exchanges =              0
(PID.TID 0000.0001) //            Max. Y spins =              0
(PID.TID 0000.0001) //            Min. Y spins =     1000000000
(PID.TID 0000.0001) //          Total. Y spins =              0
(PID.TID 0000.0001) //            Avg. Y spins =       0.00E+00
(PID.TID 0000.0001) // o Tile number: 000003
(PID.TID 0000.0001) //         No. X exchanges =              0
(PID.TID 0000.0001) //            Max. X spins =              0
(PID.TID 0000.0001) //            Min. X spins =     1000000000
(PID.TID 0000.0001) //          Total. X spins =              0
(PID.TID 0000.0001) //            Avg. X spins =       0.00E+00
(PID.TID 0000.0001) //         No. Y exchanges =              0
(PID.TID 0000.0001) //            Max. Y spins =              0
(PID.TID 0000.0001) //            Min. Y spins =     1000000000
(PID.TID 0000.0001) //          Total. Y spins =              0
(PID.TID 0000.0001) //            Avg. Y spins =       0.00E+00
(PID.TID 0000.0001) // o Tile number: 000004
(PID.TID 0000.0001) //         No. X exchanges =              0
(PID.TID 0000.0001) //            Max. X spins =              0
(PID.TID 0000.0001) //            Min. X spins =     1000000000
(PID.TID 0000.0001) //          Total. X spins =              0
(PID.TID 0000.0001) //            Avg. X spins =       0.00E+00
(PID.TID 0000.0001) //         No. Y exchanges =              0
(PID.TID 0000.0001) //            Max. Y spins =              0
(PID.TID 0000.0001) //            Min. Y spins =     1000000000
(PID.TID 0000.0001) //          Total. Y spins =              0
(PID.TID 0000.0001) //            Avg. Y spins =       0.00E+00
(PID.TID 0000.0001) // o Thread number: 000001
(PID.TID 0000.0001) //            No. barriers =          15702
(PID.TID 0000.0001) //      Max. barrier spins =              1
(PID.TID 0000.0001) //      Min. barrier spins =              1
(PID.TID 0000.0001) //     Total barrier spins =          15702
(PID.TID 0000.0001) //      Avg. barrier spins =       1.00E+00
PROGRAM MAIN: Execution ended Normally
