(PID.TID 0000.0001) 
(PID.TID 0000.0001) // ======================================================
(PID.TID 0000.0001) //                      MITgcm UV
(PID.TID 0000.0001) //                      =========
(PID.TID 0000.0001) // ======================================================
(PID.TID 0000.0001) // execution environment starting up...
(PID.TID 0000.0001) 
(PID.TID 0000.0001) // MITgcmUV version:  checkpoint68w
(PID.TID 0000.0001) // Build user:        jm_c
(PID.TID 0000.0001) // Build host:        villon
(PID.TID 0000.0001) // Build date:        Sun Apr 28 23:25:32 EDT 2024
(PID.TID 0000.0001) 
(PID.TID 0000.0001) // =======================================================
(PID.TID 0000.0001) // Execution Environment parameter file "eedata"
(PID.TID 0000.0001) // =======================================================
(PID.TID 0000.0001) ># Example "eedata" file
(PID.TID 0000.0001) ># Lines beginning "#" are comments
(PID.TID 0000.0001) ># nTx - No. threads per process in X
(PID.TID 0000.0001) ># nTy - No. threads per process in Y
(PID.TID 0000.0001) > &EEPARMS
(PID.TID 0000.0001) > nTx=1,
(PID.TID 0000.0001) > nTy=1,
(PID.TID 0000.0001) > /
(PID.TID 0000.0001) ># Note: Some systems use & as the
(PID.TID 0000.0001) ># namelist terminator. Other systems
(PID.TID 0000.0001) ># use a / character (as shown here).
(PID.TID 0000.0001) 
(PID.TID 0000.0001) // =======================================================
(PID.TID 0000.0001) // Computational Grid Specification ( see files "SIZE.h" )
(PID.TID 0000.0001) //                                  ( and "eedata"       )
(PID.TID 0000.0001) // =======================================================
(PID.TID 0000.0001)      nPx =    1 ; /* No. processes in X */
(PID.TID 0000.0001)      nPy =    1 ; /* No. processes in Y */
(PID.TID 0000.0001)      nSx =    3 ; /* No. tiles in X per process */
(PID.TID 0000.0001)      nSy =    2 ; /* No. tiles in Y per process */
(PID.TID 0000.0001)      sNx =   30 ; /* Tile size in X */
(PID.TID 0000.0001)      sNy =   20 ; /* Tile size in Y */
(PID.TID 0000.0001)      OLx =    2 ; /* Tile overlap distance in X */
(PID.TID 0000.0001)      OLy =    2 ; /* Tile overlap distance in Y */
(PID.TID 0000.0001)      nTx =    1 ; /* No. threads in X per process */
(PID.TID 0000.0001)      nTy =    1 ; /* No. threads in Y per process */
(PID.TID 0000.0001)       Nr =   15 ; /* No. levels in the vertical   */
(PID.TID 0000.0001)       Nx =   90 ; /* Total domain size in X ( = nPx*nSx*sNx ) */
(PID.TID 0000.0001)       Ny =   40 ; /* Total domain size in Y ( = nPy*nSy*sNy ) */
(PID.TID 0000.0001)   nTiles =    6 ; /* Total no. tiles per process ( = nSx*nSy ) */
(PID.TID 0000.0001)   nProcs =    1 ; /* Total no. processes ( = nPx*nPy ) */
(PID.TID 0000.0001) nThreads =    1 ; /* Total no. threads per process ( = nTx*nTy ) */
(PID.TID 0000.0001) usingMPI =    F ; /* Flag used to control whether MPI is in use */
(PID.TID 0000.0001)                   /*  note: To execute a program with MPI calls */
(PID.TID 0000.0001)                   /*  it must be launched appropriately e.g     */
(PID.TID 0000.0001)                   /*  "mpirun -np 64 ......"                    */
(PID.TID 0000.0001) useCoupler=   F ; /* Flag used to control communications with   */
(PID.TID 0000.0001)                   /*  other model components, through a coupler */
(PID.TID 0000.0001) useNest2W_parent =    F ;/* Control 2-W Nesting comm */
(PID.TID 0000.0001) useNest2W_child  =    F ;/* Control 2-W Nesting comm */
(PID.TID 0000.0001) debugMode =    F ; /* print debug msg. (sequence of S/R calls)  */
(PID.TID 0000.0001) printMapIncludesZeros=    F ; /* print zeros in Std.Output maps */
(PID.TID 0000.0001) maxLengthPrt1D=   65 /* maxLength of 1D array printed to StdOut */
(PID.TID 0000.0001) 
(PID.TID 0000.0001) // ======================================================
(PID.TID 0000.0001) // Mapping of tiles to threads
(PID.TID 0000.0001) // ======================================================
(PID.TID 0000.0001) // -o- Thread   1, tiles (   1:   3,   1:   2)
(PID.TID 0000.0001) 
(PID.TID 0000.0001) // ======================================================
(PID.TID 0000.0001) // Tile <-> Tile connectvity table
(PID.TID 0000.0001) // ======================================================
(PID.TID 0000.0001) // Tile number: 000001 (process no. = 000000)
(PID.TID 0000.0001) //        WEST: Tile = 000003, Process = 000000, Comm = put
(PID.TID 0000.0001) //                bi = 000003, bj = 000001
(PID.TID 0000.0001) //        EAST: Tile = 000002, Process = 000000, Comm = put
(PID.TID 0000.0001) //                bi = 000002, bj = 000001
(PID.TID 0000.0001) //       SOUTH: Tile = 000004, Process = 000000, Comm = put
(PID.TID 0000.0001) //                bi = 000001, bj = 000002
(PID.TID 0000.0001) //       NORTH: Tile = 000004, Process = 000000, Comm = put
(PID.TID 0000.0001) //                bi = 000001, bj = 000002
(PID.TID 0000.0001) // Tile number: 000002 (process no. = 000000)
(PID.TID 0000.0001) //        WEST: Tile = 000001, Process = 000000, Comm = put
(PID.TID 0000.0001) //                bi = 000001, bj = 000001
(PID.TID 0000.0001) //        EAST: Tile = 000003, Process = 000000, Comm = put
(PID.TID 0000.0001) //                bi = 000003, bj = 000001
(PID.TID 0000.0001) //       SOUTH: Tile = 000005, Process = 000000, Comm = put
(PID.TID 0000.0001) //                bi = 000002, bj = 000002
(PID.TID 0000.0001) //       NORTH: Tile = 000005, Process = 000000, Comm = put
(PID.TID 0000.0001) //                bi = 000002, bj = 000002
(PID.TID 0000.0001) // Tile number: 000003 (process no. = 000000)
(PID.TID 0000.0001) //        WEST: Tile = 000002, Process = 000000, Comm = put
(PID.TID 0000.0001) //                bi = 000002, bj = 000001
(PID.TID 0000.0001) //        EAST: Tile = 000001, Process = 000000, Comm = put
(PID.TID 0000.0001) //                bi = 000001, bj = 000001
(PID.TID 0000.0001) //       SOUTH: Tile = 000006, Process = 000000, Comm = put
(PID.TID 0000.0001) //                bi = 000003, bj = 000002
(PID.TID 0000.0001) //       NORTH: Tile = 000006, Process = 000000, Comm = put
(PID.TID 0000.0001) //                bi = 000003, bj = 000002
(PID.TID 0000.0001) // Tile number: 000004 (process no. = 000000)
(PID.TID 0000.0001) //        WEST: Tile = 000006, Process = 000000, Comm = put
(PID.TID 0000.0001) //                bi = 000003, bj = 000002
(PID.TID 0000.0001) //        EAST: Tile = 000005, Process = 000000, Comm = put
(PID.TID 0000.0001) //                bi = 000002, bj = 000002
(PID.TID 0000.0001) //       SOUTH: Tile = 000001, Process = 000000, Comm = put
(PID.TID 0000.0001) //                bi = 000001, bj = 000001
(PID.TID 0000.0001) //       NORTH: Tile = 000001, Process = 000000, Comm = put
(PID.TID 0000.0001) //                bi = 000001, bj = 000001
(PID.TID 0000.0001) // Tile number: 000005 (process no. = 000000)
(PID.TID 0000.0001) //        WEST: Tile = 000004, Process = 000000, Comm = put
(PID.TID 0000.0001) //                bi = 000001, bj = 000002
(PID.TID 0000.0001) //        EAST: Tile = 000006, Process = 000000, Comm = put
(PID.TID 0000.0001) //                bi = 000003, bj = 000002
(PID.TID 0000.0001) //       SOUTH: Tile = 000002, Process = 000000, Comm = put
(PID.TID 0000.0001) //                bi = 000002, bj = 000001
(PID.TID 0000.0001) //       NORTH: Tile = 000002, Process = 000000, Comm = put
(PID.TID 0000.0001) //                bi = 000002, bj = 000001
(PID.TID 0000.0001) // Tile number: 000006 (process no. = 000000)
(PID.TID 0000.0001) //        WEST: Tile = 000005, Process = 000000, Comm = put
(PID.TID 0000.0001) //                bi = 000002, bj = 000002
(PID.TID 0000.0001) //        EAST: Tile = 000004, Process = 000000, Comm = put
(PID.TID 0000.0001) //                bi = 000001, bj = 000002
(PID.TID 0000.0001) //       SOUTH: Tile = 000003, Process = 000000, Comm = put
(PID.TID 0000.0001) //                bi = 000003, bj = 000001
(PID.TID 0000.0001) //       NORTH: Tile = 000003, Process = 000000, Comm = put
(PID.TID 0000.0001) //                bi = 000003, bj = 000001
(PID.TID 0000.0001) 
(PID.TID 0000.0001)  INI_PARMS: opening model parameter file "data"
(PID.TID 0000.0001)  OPEN_COPY_DATA_FILE: opening file data
(PID.TID 0000.0001) // =======================================================
(PID.TID 0000.0001) // Parameter file "data"
(PID.TID 0000.0001) // =======================================================
(PID.TID 0000.0001) ># ====================
(PID.TID 0000.0001) ># | Model parameters |
(PID.TID 0000.0001) ># ====================
(PID.TID 0000.0001) >#
(PID.TID 0000.0001) ># Continuous equation parameters
(PID.TID 0000.0001) > &PARM01
(PID.TID 0000.0001) > tRef = 15*20.,
(PID.TID 0000.0001) > sRef = 15*35.,
(PID.TID 0000.0001) > viscAr=1.E-3,
(PID.TID 0000.0001) > viscAh=5.E5,
(PID.TID 0000.0001) > diffKhT=0.,
(PID.TID 0000.0001) > diffKrT=3.E-5,
(PID.TID 0000.0001) > diffKhS=0.,
(PID.TID 0000.0001) > diffKrS=3.E-5,
(PID.TID 0000.0001) > rhoConst=1035.,
(PID.TID 0000.0001) > rhoConstFresh=1000.,
(PID.TID 0000.0001) > eosType = 'POLY3',
(PID.TID 0000.0001) > ivdc_kappa=10.,
(PID.TID 0000.0001) > implicitDiffusion=.TRUE.,
(PID.TID 0000.0001) > allowFreezing=.TRUE.,
(PID.TID 0000.0001) > exactConserv=.TRUE.,
(PID.TID 0000.0001) > useRealFreshWaterFlux=.TRUE.,
(PID.TID 0000.0001) > useCDscheme=.TRUE.,
(PID.TID 0000.0001) ># turn on looped cells
(PID.TID 0000.0001) > hFacMin=.05,
(PID.TID 0000.0001) > hFacMindr=50.,
(PID.TID 0000.0001) ># set precision of data files
(PID.TID 0000.0001) > readBinaryPrec=32,
(PID.TID 0000.0001) > /
(PID.TID 0000.0001) >
(PID.TID 0000.0001) ># Elliptic solver parameters
(PID.TID 0000.0001) > &PARM02
(PID.TID 0000.0001) > cg2dMaxIters=500,
(PID.TID 0000.0001) > cg2dTargetResidual=1.E-13,
(PID.TID 0000.0001) > /
(PID.TID 0000.0001) >
(PID.TID 0000.0001) ># Time stepping parameters
(PID.TID 0000.0001) > &PARM03
(PID.TID 0000.0001) > nIter0 =      0,
(PID.TID 0000.0001) > nTimeSteps = 20,
(PID.TID 0000.0001) ># 100 years of integration will yield a reasonable flow field
(PID.TID 0000.0001) ># startTime  =          0.,
(PID.TID 0000.0001) ># endTime    = 3110400000.,
(PID.TID 0000.0001) > deltaTmom = 1200.,
(PID.TID 0000.0001) > tauCD =     321428.,
(PID.TID 0000.0001) > deltaTtracer = 43200.,
(PID.TID 0000.0001) > deltaTClock  = 43200.,
(PID.TID 0000.0001) > deltaTfreesurf=43200.,
(PID.TID 0000.0001) > abEps = 0.1,
(PID.TID 0000.0001) > pChkptFreq= 311040000.,
(PID.TID 0000.0001) > dumpFreq=   311040000.,
(PID.TID 0000.0001) > taveFreq=   311040000.,
(PID.TID 0000.0001) > dumpFreq=   864000.,
(PID.TID 0000.0001) > taveFreq=   864000.,
(PID.TID 0000.0001) >#monitorFreq=31104000.,
(PID.TID 0000.0001) > monitorFreq=1.,
(PID.TID 0000.0001) ># 2 months restoring timescale for temperature
(PID.TID 0000.0001) >#tauThetaClimRelax =  5184000.0,
(PID.TID 0000.0001) ># 6 months restoring timescale for salinity
(PID.TID 0000.0001) > tauSaltClimRelax = 15552000.0,
(PID.TID 0000.0001) >#periodicExternalForcing=.TRUE.,
(PID.TID 0000.0001) >#externForcingPeriod=2592000.,
(PID.TID 0000.0001) >#externForcingCycle=31104000.,
(PID.TID 0000.0001) > /
(PID.TID 0000.0001) >
(PID.TID 0000.0001) ># Gridding parameters
(PID.TID 0000.0001) > &PARM04
(PID.TID 0000.0001) > usingSphericalPolarGrid=.TRUE.,
(PID.TID 0000.0001) > delR= 50.,  70., 100., 140., 190.,
(PID.TID 0000.0001) >      240., 290., 340., 390., 440.,
(PID.TID 0000.0001) >      490., 540., 590., 640., 690.,
(PID.TID 0000.0001) > ygOrigin=-80.,
(PID.TID 0000.0001) > dySpacing=4.,
(PID.TID 0000.0001) > dxSpacing=4.,
(PID.TID 0000.0001) > /
(PID.TID 0000.0001) >
(PID.TID 0000.0001) ># Input datasets
(PID.TID 0000.0001) > &PARM05
(PID.TID 0000.0001) > bathyFile=      'Topog.bin',
(PID.TID 0000.0001) > hydrogThetaFile='Lev_clim_theta.bin',
(PID.TID 0000.0001) > hydrogSaltFile= 'Lev_clim_salt.bin',
(PID.TID 0000.0001) > zonalWindFile=  'Taux.bin',
(PID.TID 0000.0001) > meridWindFile=  'Tauy.bin',
(PID.TID 0000.0001) >#thetaClimFile=  'SST.bin',
(PID.TID 0000.0001) > saltClimFile=   'SSS.bin',
(PID.TID 0000.0001) > /
(PID.TID 0000.0001) 
(PID.TID 0000.0001)  INI_PARMS ; starts to read PARM01
(PID.TID 0000.0001)  INI_PARMS ; read PARM01 : OK
(PID.TID 0000.0001) S/R INI_PARMS: No request for barotropic solver
(PID.TID 0000.0001) S/R INI_PARMS: => Use implicitFreeSurface as default
(PID.TID 0000.0001)  INI_PARMS ; starts to read PARM02
(PID.TID 0000.0001)  INI_PARMS ; read PARM02 : OK
(PID.TID 0000.0001)  INI_PARMS ; starts to read PARM03
(PID.TID 0000.0001)  INI_PARMS ; read PARM03 : OK
(PID.TID 0000.0001)  INI_PARMS ; starts to read PARM04
(PID.TID 0000.0001)  INI_PARMS ; read PARM04 : OK
(PID.TID 0000.0001)  INI_PARMS ; starts to read PARM05
(PID.TID 0000.0001)  INI_PARMS ; read PARM05 : OK
(PID.TID 0000.0001)  INI_PARMS: finished reading file "data"
(PID.TID 0000.0001)  PACKAGES_BOOT: opening data.pkg
(PID.TID 0000.0001)  OPEN_COPY_DATA_FILE: opening file data.pkg
(PID.TID 0000.0001) // =======================================================
(PID.TID 0000.0001) // Parameter file "data.pkg"
(PID.TID 0000.0001) // =======================================================
(PID.TID 0000.0001) ># Packages
(PID.TID 0000.0001) > &PACKAGES
(PID.TID 0000.0001) > useGMRedi=.TRUE.,
(PID.TID 0000.0001) > useEBM=.TRUE.,
(PID.TID 0000.0001) > /
(PID.TID 0000.0001) >
(PID.TID 0000.0001) 
(PID.TID 0000.0001)  PACKAGES_BOOT: finished reading data.pkg
(PID.TID 0000.0001)  PACKAGES_BOOT: On/Off package Summary
 --------  pkgs with a standard "usePKG" On/Off switch in "data.pkg":  --------
 pkg/gmredi               compiled   and   used ( useGMRedi                = T )
 pkg/ebm                  compiled   and   used ( useEBM                   = T )
 pkg/ptracers             compiled but not used ( usePTRACERS              = F )
 -------- pkgs without standard "usePKG" On/Off switch in "data.pkg":  --------
 pkg/generic_advdiff      compiled   and   used ( useGAD                   = T )
 pkg/mom_common           compiled   and   used ( momStepping              = T )
 pkg/mom_vecinv           compiled but not used ( +vectorInvariantMomentum = F )
 pkg/mom_fluxform         compiled   and   used ( & not vectorInvariantMom = T )
 pkg/cd_code              compiled   and   used ( useCDscheme              = T )
 pkg/monitor              compiled   and   used ( monitorFreq > 0.         = T )
 pkg/timeave              compiled   and   used ( taveFreq > 0.            = T )
 pkg/debug                compiled but not used ( debugMode                = F )
 pkg/rw                   compiled   and   used
 pkg/mdsio                compiled   and   used
(PID.TID 0000.0001)  PACKAGES_BOOT: End of package Summary
(PID.TID 0000.0001) 
(PID.TID 0000.0001)  GM_READPARMS: opening data.gmredi
(PID.TID 0000.0001)  OPEN_COPY_DATA_FILE: opening file data.gmredi
(PID.TID 0000.0001) // =======================================================
(PID.TID 0000.0001) // Parameter file "data.gmredi"
(PID.TID 0000.0001) // =======================================================
(PID.TID 0000.0001) ># GM+Redi package parameters:
(PID.TID 0000.0001) >
(PID.TID 0000.0001) >#-from MOM :
(PID.TID 0000.0001) ># GM_background_K: 	G & Mc.W  diffusion coefficient
(PID.TID 0000.0001) ># GM_maxSlope    :	max slope of isopycnals
(PID.TID 0000.0001) ># GM_Scrit       :	transition for scaling diffusion coefficient
(PID.TID 0000.0001) ># GM_Sd          :	half width scaling for diffusion coefficient
(PID.TID 0000.0001) ># GM_taper_scheme:	slope clipping or one of the tapering schemes
(PID.TID 0000.0001) ># GM_Kmin_horiz  :	horizontal diffusion minimum value
(PID.TID 0000.0001) >
(PID.TID 0000.0001) >#-Option parameters (needs to "define" options in GMREDI_OPTIONS.h")
(PID.TID 0000.0001) ># GM_isopycK     :	isopycnal diffusion coefficient (default=GM_background_K)
(PID.TID 0000.0001) ># GM_AdvForm     :	turn on GM Advective form       (default=Skew flux form)
(PID.TID 0000.0001) >
(PID.TID 0000.0001) > &GM_PARM01
(PID.TID 0000.0001) >  GM_background_K    = 1.e+3,
(PID.TID 0000.0001) >  GM_taper_scheme    = 'gkw91',
(PID.TID 0000.0001) >  GM_maxSlope        = 1.e-2,
(PID.TID 0000.0001) >  GM_Kmin_horiz      = 50.,
(PID.TID 0000.0001) >  GM_Scrit           = 4.e-3,
(PID.TID 0000.0001) >  GM_Sd              = 1.e-3,
(PID.TID 0000.0001) ># GM_Visbeck_alpha   = 0.,
(PID.TID 0000.0001) ># GM_Visbeck_length  = 2.e+5,
(PID.TID 0000.0001) ># GM_Visbeck_depth   = 1.e+3,
(PID.TID 0000.0001) ># GM_Visbeck_maxval_K= 2.5e+3,
(PID.TID 0000.0001) > /
(PID.TID 0000.0001) >
(PID.TID 0000.0001) >
(PID.TID 0000.0001) 
(PID.TID 0000.0001)  GM_READPARMS: finished reading data.gmredi
(PID.TID 0000.0001)  EBM_READPARMS: opening data.ebm
(PID.TID 0000.0001)  OPEN_COPY_DATA_FILE: opening file data.ebm
(PID.TID 0000.0001) // =======================================================
(PID.TID 0000.0001) // Parameter file "data.ebm"
(PID.TID 0000.0001) // =======================================================
(PID.TID 0000.0001) ># Packages
(PID.TID 0000.0001) > &EBM_PARM01
(PID.TID 0000.0001) ># convert from mm/year to m/sec
(PID.TID 0000.0001) > scale_runoff     = 3.170979198E-11,
(PID.TID 0000.0001) > tauThetaZonRelax = 5184000.0,
(PID.TID 0000.0001) > RunoffFile       = 'Runoff.bin',
(PID.TID 0000.0001) > /
(PID.TID 0000.0001) 
(PID.TID 0000.0001)  EBM_READPARMS: finished reading data.ebm
(PID.TID 0000.0001)  EBM_READPARMS: set tauThetaClimRelax to tauThetaZonRelax value
(PID.TID 0000.0001) SET_PARMS: done
(PID.TID 0000.0001) Enter INI_VERTICAL_GRID: setInterFDr=    T ; setCenterDr=    F
(PID.TID 0000.0001) %MON XC_max                       =   3.5800000000000E+02
(PID.TID 0000.0001) %MON XC_min                       =   2.0000000000000E+00
(PID.TID 0000.0001) %MON XC_mean                      =   1.8000000000000E+02
(PID.TID 0000.0001) %MON XC_sd                        =   1.0391663325314E+02
(PID.TID 0000.0001) %MON XG_max                       =   3.5600000000000E+02
(PID.TID 0000.0001) %MON XG_min                       =   0.0000000000000E+00
(PID.TID 0000.0001) %MON XG_mean                      =   1.7800000000000E+02
(PID.TID 0000.0001) %MON XG_sd                        =   1.0391663325314E+02
(PID.TID 0000.0001) %MON DXC_max                      =   4.4443898815675E+05
(PID.TID 0000.0001) %MON DXC_min                      =   9.2460385861875E+04
(PID.TID 0000.0001) %MON DXC_mean                     =   3.1372497618153E+05
(PID.TID 0000.0001) %MON DXC_sd                       =   1.1216447457560E+05
(PID.TID 0000.0001) %MON DXF_max                      =   4.4443898815675E+05
(PID.TID 0000.0001) %MON DXF_min                      =   9.2460385861875E+04
(PID.TID 0000.0001) %MON DXF_mean                     =   3.1372497618153E+05
(PID.TID 0000.0001) %MON DXF_sd                       =   1.1216447457560E+05
(PID.TID 0000.0001) %MON DXG_max                      =   4.4470989340816E+05
(PID.TID 0000.0001) %MON DXG_min                      =   7.7223062580781E+04
(PID.TID 0000.0001) %MON DXG_mean                     =   3.1353386340261E+05
(PID.TID 0000.0001) %MON DXG_sd                       =   1.1256651772502E+05
(PID.TID 0000.0001) %MON DXV_max                      =   4.4470989340816E+05
(PID.TID 0000.0001) %MON DXV_min                      =   7.7223062580781E+04
(PID.TID 0000.0001) %MON DXV_mean                     =   3.1353386340261E+05
(PID.TID 0000.0001) %MON DXV_sd                       =   1.1256651772502E+05
(PID.TID 0000.0001) %MON YC_max                       =   7.8000000000000E+01
(PID.TID 0000.0001) %MON YC_min                       =  -7.8000000000000E+01
(PID.TID 0000.0001) %MON YC_mean                      =   0.0000000000000E+00
(PID.TID 0000.0001) %MON YC_sd                        =   4.6173585522461E+01
(PID.TID 0000.0001) %MON YG_max                       =   7.6000000000000E+01
(PID.TID 0000.0001) %MON YG_min                       =  -8.0000000000000E+01
(PID.TID 0000.0001) %MON YG_mean                      =  -2.0000000000000E+00
(PID.TID 0000.0001) %MON YG_sd                        =   4.6173585522461E+01
(PID.TID 0000.0001) %MON DYC_max                      =   4.4470989340816E+05
(PID.TID 0000.0001) %MON DYC_min                      =   4.4470989340816E+05
(PID.TID 0000.0001) %MON DYC_mean                     =   4.4470989340815E+05
(PID.TID 0000.0001) %MON DYC_sd                       =   3.8417056202888E-09
(PID.TID 0000.0001) %MON DYF_max                      =   4.4470989340816E+05
(PID.TID 0000.0001) %MON DYF_min                      =   4.4470989340816E+05
(PID.TID 0000.0001) %MON DYF_mean                     =   4.4470989340815E+05
(PID.TID 0000.0001) %MON DYF_sd                       =   3.8417056202888E-09
(PID.TID 0000.0001) %MON DYG_max                      =   4.4470989340816E+05
(PID.TID 0000.0001) %MON DYG_min                      =   4.4470989340816E+05
(PID.TID 0000.0001) %MON DYG_mean                     =   4.4470989340815E+05
(PID.TID 0000.0001) %MON DYG_sd                       =   3.8417056202888E-09
(PID.TID 0000.0001) %MON DYU_max                      =   4.4470989340816E+05
(PID.TID 0000.0001) %MON DYU_min                      =   4.4470989340816E+05
(PID.TID 0000.0001) %MON DYU_mean                     =   4.4470989340815E+05
(PID.TID 0000.0001) %MON DYU_sd                       =   3.8417056202888E-09
(PID.TID 0000.0001) %MON RA_max                       =   1.9760627980089E+11
(PID.TID 0000.0001) %MON RA_min                       =   4.1109698667290E+10
(PID.TID 0000.0001) %MON RA_mean                      =   1.3948826965196E+11
(PID.TID 0000.0001) %MON RA_sd                        =   4.9870522472902E+10
(PID.TID 0000.0001) %MON RAW_max                      =   1.9760627980089E+11
(PID.TID 0000.0001) %MON RAW_min                      =   4.1109698667290E+10
(PID.TID 0000.0001) %MON RAW_mean                     =   1.3948826965196E+11
(PID.TID 0000.0001) %MON RAW_sd                       =   4.9870522472902E+10
(PID.TID 0000.0001) %MON RAS_max                      =   1.9772672958215E+11
(PID.TID 0000.0001) %MON RAS_min                      =   3.4334886267983E+10
(PID.TID 0000.0001) %MON RAS_mean                     =   1.3940329716694E+11
(PID.TID 0000.0001) %MON RAS_sd                       =   5.0049278732353E+10
(PID.TID 0000.0001) %MON RAZ_max                      =   1.9772672958215E+11
(PID.TID 0000.0001) %MON RAZ_min                      =   3.4334886267983E+10
(PID.TID 0000.0001) %MON RAZ_mean                     =   1.3940329716694E+11
(PID.TID 0000.0001) %MON RAZ_sd                       =   5.0049278732353E+10
(PID.TID 0000.0001) %MON AngleCS_max                  =   1.0000000000000E+00
(PID.TID 0000.0001) %MON AngleCS_min                  =   1.0000000000000E+00
(PID.TID 0000.0001) %MON AngleCS_mean                 =   1.0000000000000E+00
(PID.TID 0000.0001) %MON AngleCS_sd                   =   0.0000000000000E+00
(PID.TID 0000.0001) %MON AngleSN_max                  =   0.0000000000000E+00
(PID.TID 0000.0001) %MON AngleSN_min                  =   0.0000000000000E+00
(PID.TID 0000.0001) %MON AngleSN_mean                 =   0.0000000000000E+00
(PID.TID 0000.0001) %MON AngleSN_sd                   =   0.0000000000000E+00
(PID.TID 0000.0001)  MDS_READ_FIELD: opening global file: Topog.bin
(PID.TID 0000.0001) // =======================================================
(PID.TID 0000.0001) // Field Model R_low (ini_masks_etc)
(PID.TID 0000.0001) // CMIN =         -5.200000000000000E+03
(PID.TID 0000.0001) // CMAX =         -5.000000000000000E+01
(PID.TID 0000.0001) // CINT =          1.907407407407407E+02
(PID.TID 0000.0001) // SYMBOLS (CMIN->CMAX): -abcdefghijklmnopqrstuvwxyz+
(PID.TID 0000.0001) //                  0.0: .
(PID.TID 0000.0001) // RANGE I (Lo:Hi:Step):(    -1:    92:     1)
(PID.TID 0000.0001) // RANGE J (Lo:Hi:Step):(    42:    -1:    -1)
(PID.TID 0000.0001) // RANGE K (Lo:Hi:Step):(   1:   1:   1)
(PID.TID 0000.0001) // =======================================================
(PID.TID 0000.0001) K =   1
(PID.TID 0000.0001) //                I=8       I=18      I=28      I=34      I=44      I=54      I=60      I=70      I=80      I=90
(PID.TID 0000.0001) // |--J--|101234567|901234567|901234567|901290123|567890123|567890123|567890129|123456789|123456789|123456789|12
(PID.TID 0000.0001) //     42 .................................................yywvqnkk...............................wvss..........
(PID.TID 0000.0001) //     41 ......................................................................................................
(PID.TID 0000.0001) //     40 ......................................................................................................
(PID.TID 0000.0001) //     39 nkkknqxz...........................................................................qsv.........vqnnkkk
(PID.TID 0000.0001) //     38 kkkkkq..............................................................................uv........vvsqkkkk
(PID.TID 0000.0001) //     37 kknv................................................................................wqq...qnqu..sukknv
(PID.TID 0000.0001) //     36 wwz..............................................kknqz..............................unkk.kknqqnnqswwz.
(PID.TID 0000.0001) //     35 ..++.....................................yvwz.hdkkkkkkuq.ddhhkq......................nhhhhknkknqnq..++
(PID.TID 0000.0001) //     34 ..........................................vvv--d---------ddhhhkn......................wkhhhhhhhdkv....
(PID.TID 0000.0001) //     33 d.........................................kk---------------ddhhnq...q...............zz.skhdhhhddddd...
(PID.TID 0000.0001) //     32 ..........................................h-----------------dhhhn...n...............nhdhd-dhkkhd-d....
(PID.TID 0000.0001) //     31 ..........................................--------------------ddd...d.............hd------dhnhd--.....
(PID.TID 0000.0001) //     30 .........................................---------d-------------d...d............d--------hkh-----....
(PID.TID 0000.0001) //     29 .................................z...zudh----------------------dhhk.hhk.........n-------dhhdh--dhh....
(PID.TID 0000.0001) //     28 ................................yq..yqdd---------------------dddhhh.hhh......nk.d-------dd-----hk.....
(PID.TID 0000.0001) //     27 .................................-...-----------------ddd-----ddhhhhhhhhk...hhkqq-------hd----dh......
(PID.TID 0000.0001) //     26 .................hkk....s.....khd-khd----d--------d-----d-------dhhhdhhhkh..k.hddh-----dhd----dk......
(PID.TID 0000.0001) //     25 ...............hhhhh..kknn...qhh.-hh.----d----------------------ddhhddhhhhh....hhhd----dh-----hh......
(PID.TID 0000.0001) //     24 ..............nhhhhhs.hhkn...hhh.-hh.----------dd--------------dddhhddhhhhkhdh.khh.-nd--dd----dh......
(PID.TID 0000.0001) //     23 ...............-dhddknhhhh.++nnhh-nhh----hdd----h------d-----dddddhhddhhhhkhhhk......khddhh---ddd.....
(PID.TID 0000.0001) //     22 dddh..........--dhhhkhhhhh..++..--..----dd-dhhddhd------hd--ddhhhhhhhhhhhhkkhhkk.......khhdhhhd--ddddh
(PID.TID 0000.0001) //     21 --dh.........d--ddhhddddddd.....nn..nnhhdhd-hnhhhd-------dddhhhhddhhddhhhhhkkkkk........hhhhdhd-----dh
(PID.TID 0000.0001) //     20 -dddh.......h--dhdhdd--dd--...........-...qqkqhhh---------ddddddddhhddhhhhhhhhh............h----dd-ddd
(PID.TID 0000.0001) //     19 d---d.......hddhhhhk---------.hhhdhhhd-s...--hhh--d---dd----hhdddhhhdhhhhhhhhhh-...........d---dhhd---
(PID.TID 0000.0001) //     22 dddh..........--dhhhkhhhhh..++..--..----dd-dhhddhd------hd--ddhhhhhhhhhhhhkkhhkk.......khhdhhhd--ddddh
(PID.TID 0000.0001) //     21 --dh.........d--ddhhddddddd.....nn..nnhhdhd-hnhhhd-------dddhhhhddhhddhhhhhkkkkk........hhhhdhd-----dh
(PID.TID 0000.0001) //     20 -dddh.......h--dhdhdd--dd--...........-...qqkqhhh---------ddddddddhhddhhhhhhhhh............h----dd-ddd
(PID.TID 0000.0001) //     19 d---d.......hddhhhhk---------.hhhdhhhd-s...--hhh--d---dd----hhdddhhhdhhhhhhhhhh-...........d---dhhd---
(PID.TID 0000.0001) //     18 ----d.......khhhhhhh---d--------ku--ku....khhk--hhhhd--h--dddhhhhhhhhhhhhhhhhhddd..........d---dhh----
(PID.TID 0000.0001) //     17 d---d.......k..dhhhdd--d--------s.--s......ddhddhkkn----dddhhhhhhhhkhhhkhhhhhdddh..........d---dhhd---
(PID.TID 0000.0001) //     16 d---d......kn.--hhkhdd-d------h...h........vkkkd-hhn---ddddddhhhhhhkhhhkhhhhhdhhd-........hd---dhhd---
(PID.TID 0000.0001) //     15 ---hd......hh.---dhhhdddd----d..............ddnkddhq----dddddhhhhhkkhhkkhhhhhhhhdh.......nhd---dhd---h
(PID.TID 0000.0001) //     14 d---dh....qddh---ddhhhhddd----...............dnhhdh------dddhhhhhhkkhhkkkhhhhhhhh-......khhd--dhhhd---
(PID.TID 0000.0001) //     13 dh---h...hk-dhddhddddhhhhhd---..............-dshhhh------d--ddhhhhhkhhhkkhhhhhhhhd.....khhhddddhkhdh--
(PID.TID 0000.0001) //     12 hd---dhdhh---khdd-ddhkhhhhh----.---.----....---nqsk----------ddddhhhdhhhkhhhhhhhhd....n----dhhhkhhhd--
(PID.TID 0000.0001) //     11 hd--dd--hd--dkhd--dhhkhhhhhdddd---d-------xhd--hv.kd-d--d------ddhhhdhhhhhhdhhhhh....n-------hhkkhhd--
(PID.TID 0000.0001) //     10 hhddd------hkkkd--hhhkkkkhhhhhddddddddddddhh---h.snk----d------ddhhhdhhhhhhdddhhh...+d------ddhhkhhhdd
(PID.TID 0000.0001) //      9 hhhhd-----ddhhhhdhknkkhhhhkhkhhhhhhhhhhhdhhd--dhvsn--------ddddddhhkdhhkhhhhdddhh...xd--------dhhkhhhh
(PID.TID 0000.0001) //      8 nkhhhhhh---dhhdddddhqnhdhhhhhhhhhhhhhhhhhhhhdddhvd--------ddhhhhhhkhhhkhhdd--dddh..zxqnkkhddddhhhhnkhh
(PID.TID 0000.0001) //      7 hhd----d---------dddhkd--hhhhhhdddhddddhhhhhhhd--------dddhhhhhhkkhhkkhh-------ddhhhhhdhhhhd---dhhhhd-
(PID.TID 0000.0001) //      6 ------------------dddhnhddhhhhhdddhdddddhhhhhk-----dddddhkkhhdd------------------ddhhhhhhhhhh--d------
(PID.TID 0000.0001) //      5 -------------d--dhdhhkkkkhh.hhhhhhhhhhhhhhhhkknhhhhhhkkkhhhhhdd----------d---ddddhhh.xnhhddddd--------
(PID.TID 0000.0001) //      4 dhhhhhdddh.h..................................qnkkkhhhhhhhhhhhhdddddddddddddhdhhhk...wkhhhhddddddddhhh
(PID.TID 0000.0001) //      3 .................................................nnkhhhhhhhhhhhhkknkkknkkkk..........vnkhhhhhhhh......
(PID.TID 0000.0001) //      2 .................................................yywvqnkk...............................wvss..........
(PID.TID 0000.0001) //      1 ......................................................................................................
(PID.TID 0000.0001) //      0 ......................................................................................................
(PID.TID 0000.0001) //     -1 nkkknqxz...........................................................................qsv.........vqnnkkk
(PID.TID 0000.0001) // =======================================================
(PID.TID 0000.0001) // END OF FIELD                                          =
(PID.TID 0000.0001) // =======================================================
(PID.TID 0000.0001) 
(PID.TID 0000.0001) // =======================================================
(PID.TID 0000.0001) // Field Model Ro_surf (ini_masks_etc)
(PID.TID 0000.0001) // CMIN =          1.000000000000000E+32
(PID.TID 0000.0001) // CMAX =         -1.000000000000000E+32
(PID.TID 0000.0001) // CINT =          0.000000000000000E+00
(PID.TID 0000.0001) // SYMBOLS (CMIN->CMAX): -abcdefghijklmnopqrstuvwxyz+
(PID.TID 0000.0001) //                  0.0: .
(PID.TID 0000.0001) // RANGE I (Lo:Hi:Step):(    -1:    92:     1)
(PID.TID 0000.0001) // RANGE J (Lo:Hi:Step):(    42:    -1:    -1)
(PID.TID 0000.0001) // RANGE K (Lo:Hi:Step):(   1:   1:   1)
(PID.TID 0000.0001) // =======================================================
(PID.TID 0000.0001) // =======================================================
(PID.TID 0000.0001) // END OF FIELD                                          =
(PID.TID 0000.0001) // =======================================================
(PID.TID 0000.0001) 
(PID.TID 0000.0001) // =======================================================
(PID.TID 0000.0001) // Field hFacC at iteration          0
(PID.TID 0000.0001) // CMIN =          1.000000000000000E+00
(PID.TID 0000.0001) // CMAX =          1.000000000000000E+00
(PID.TID 0000.0001) // CINT =          0.000000000000000E+00
(PID.TID 0000.0001) // SYMBOLS (CMIN->CMAX): -abcdefghijklmnopqrstuvwxyz+
(PID.TID 0000.0001) //                  0.0: .
(PID.TID 0000.0001) // RANGE I (Lo:Hi:Step):(    -1:    92:     1)
(PID.TID 0000.0001) // RANGE J (Lo:Hi:Step):(    42:    -1:    -1)
(PID.TID 0000.0001) // RANGE K (Lo:Hi:Step):(   1:   1:   1)
(PID.TID 0000.0001) // =======================================================
(PID.TID 0000.0001) // =======================================================
(PID.TID 0000.0001) // END OF FIELD                                          =
(PID.TID 0000.0001) // =======================================================
(PID.TID 0000.0001) 
(PID.TID 0000.0001) // =======================================================
(PID.TID 0000.0001) // Field hFacW at iteration          0
(PID.TID 0000.0001) // CMIN =          1.000000000000000E+00
(PID.TID 0000.0001) // CMAX =          1.000000000000000E+00
(PID.TID 0000.0001) // CINT =          0.000000000000000E+00
(PID.TID 0000.0001) // SYMBOLS (CMIN->CMAX): -abcdefghijklmnopqrstuvwxyz+
(PID.TID 0000.0001) //                  0.0: .
(PID.TID 0000.0001) // RANGE I (Lo:Hi:Step):(    -1:    92:     1)
(PID.TID 0000.0001) // RANGE J (Lo:Hi:Step):(    42:    -1:    -1)
(PID.TID 0000.0001) // RANGE K (Lo:Hi:Step):(   1:   1:   1)
(PID.TID 0000.0001) // =======================================================
(PID.TID 0000.0001) // =======================================================
(PID.TID 0000.0001) // END OF FIELD                                          =
(PID.TID 0000.0001) // =======================================================
(PID.TID 0000.0001) 
(PID.TID 0000.0001) // =======================================================
(PID.TID 0000.0001) // Field hFacS at iteration          0
(PID.TID 0000.0001) // CMIN =          1.000000000000000E+00
(PID.TID 0000.0001) // CMAX =          1.000000000000000E+00
(PID.TID 0000.0001) // CINT =          0.000000000000000E+00
(PID.TID 0000.0001) // SYMBOLS (CMIN->CMAX): -abcdefghijklmnopqrstuvwxyz+
(PID.TID 0000.0001) //                  0.0: .
(PID.TID 0000.0001) // RANGE I (Lo:Hi:Step):(    -1:    92:     1)
(PID.TID 0000.0001) // RANGE J (Lo:Hi:Step):(    42:    -1:    -1)
(PID.TID 0000.0001) // RANGE K (Lo:Hi:Step):(   1:   1:   1)
(PID.TID 0000.0001) // =======================================================
(PID.TID 0000.0001) // =======================================================
(PID.TID 0000.0001) // END OF FIELD                                          =
(PID.TID 0000.0001) // =======================================================
(PID.TID 0000.0001) 
(PID.TID 0000.0001) GAD_INIT_FIXED: GAD_OlMinSize=  1  0  1
(PID.TID 0000.0001) 
(PID.TID 0000.0001) // ===================================
(PID.TID 0000.0001) // GAD parameters :
(PID.TID 0000.0001) // ===================================
(PID.TID 0000.0001) tempAdvScheme =   /* Temp. Horiz.Advection scheme selector */
(PID.TID 0000.0001)                       2
(PID.TID 0000.0001)     ;
(PID.TID 0000.0001) tempVertAdvScheme =   /* Temp. Vert. Advection scheme selector */
(PID.TID 0000.0001)                       2
(PID.TID 0000.0001)     ;
(PID.TID 0000.0001) tempMultiDimAdvec =   /* use Muti-Dim Advec method for Temp */
(PID.TID 0000.0001)                   F
(PID.TID 0000.0001)     ;
(PID.TID 0000.0001) tempSOM_Advection = /* use 2nd Order Moment Advection for Temp */
(PID.TID 0000.0001)                   F
(PID.TID 0000.0001)     ;
(PID.TID 0000.0001) AdamsBashforthGt = /* apply Adams-Bashforth extrapolation on Gt */
(PID.TID 0000.0001)                   T
(PID.TID 0000.0001)     ;
(PID.TID 0000.0001) AdamsBashforth_T = /* apply Adams-Bashforth extrapolation on Temp */
(PID.TID 0000.0001)                   F
(PID.TID 0000.0001)     ;
(PID.TID 0000.0001) saltAdvScheme =   /* Salt. Horiz.advection scheme selector */
(PID.TID 0000.0001)                       2
(PID.TID 0000.0001)     ;
(PID.TID 0000.0001) saltVertAdvScheme =   /* Salt. Vert. Advection scheme selector */
(PID.TID 0000.0001)                       2
(PID.TID 0000.0001)     ;
(PID.TID 0000.0001) saltMultiDimAdvec =   /* use Muti-Dim Advec method for Salt */
(PID.TID 0000.0001)                   F
(PID.TID 0000.0001)     ;
(PID.TID 0000.0001) saltSOM_Advection = /* use 2nd Order Moment Advection for Salt */
(PID.TID 0000.0001)                   F
(PID.TID 0000.0001)     ;
(PID.TID 0000.0001) AdamsBashforthGs = /* apply Adams-Bashforth extrapolation on Gs */
(PID.TID 0000.0001)                   T
(PID.TID 0000.0001)     ;
(PID.TID 0000.0001) AdamsBashforth_S = /* apply Adams-Bashforth extrapolation on Salt */
(PID.TID 0000.0001)                   F
(PID.TID 0000.0001)     ;
(PID.TID 0000.0001) // ===================================
(PID.TID 0000.0001) %MON fCori_max                    =   1.4265546244797E-04
(PID.TID 0000.0001) %MON fCori_min                    =  -1.4265546244797E-04
(PID.TID 0000.0001) %MON fCori_mean                   =   5.0114233750441E-20
(PID.TID 0000.0001) %MON fCori_sd                     =   9.6599226301547E-05
(PID.TID 0000.0001) %MON fCoriG_max                   =   1.4151032568025E-04
(PID.TID 0000.0001) %MON fCoriG_min                   =  -1.4362679550910E-04
(PID.TID 0000.0001) %MON fCoriG_mean                  =  -3.5906698877276E-06
(PID.TID 0000.0001) %MON fCoriG_sd                    =   9.6548915696246E-05
(PID.TID 0000.0001) %MON fCoriCos_max                 =   1.4575362704741E-04
(PID.TID 0000.0001) %MON fCoriCos_min                 =   3.0322354601388E-05
(PID.TID 0000.0001) %MON fCoriCos_mean                =   1.0288600773633E-04
(PID.TID 0000.0001) %MON fCoriCos_sd                  =   3.6784304327266E-05
(PID.TID 0000.0001) INI_CG2D: CG2D normalisation factor =  9.0544177972206531E-05
(PID.TID 0000.0001) 
(PID.TID 0000.0001) // =======================================================
(PID.TID 0000.0001) // Model configuration
(PID.TID 0000.0001) // =======================================================
(PID.TID 0000.0001) //
(PID.TID 0000.0001) // "Physical" paramters ( PARM01 in namelist )
(PID.TID 0000.0001) //
(PID.TID 0000.0001) buoyancyRelation = /* Type of relation to get Buoyancy */
(PID.TID 0000.0001)               'OCEANIC'
(PID.TID 0000.0001)     ;
(PID.TID 0000.0001) fluidIsAir   =  /* fluid major constituent is Air */
(PID.TID 0000.0001)                   F
(PID.TID 0000.0001)     ;
(PID.TID 0000.0001) fluidIsWater =  /* fluid major constituent is Water */
(PID.TID 0000.0001)                   T
(PID.TID 0000.0001)     ;
(PID.TID 0000.0001) usingPCoords =  /* use p (or p*) vertical coordinate */
(PID.TID 0000.0001)                   F
(PID.TID 0000.0001)     ;
(PID.TID 0000.0001) usingZCoords =  /* use z (or z*) vertical coordinate */
(PID.TID 0000.0001)                   T
(PID.TID 0000.0001)     ;
(PID.TID 0000.0001) tRef =   /* Reference temperature profile ( oC or K ) */
(PID.TID 0000.0001)    15 @  2.000000000000000E+01              /* K =  1: 15 */
(PID.TID 0000.0001)     ;
(PID.TID 0000.0001) sRef =   /* Reference salinity profile ( g/kg ) */
(PID.TID 0000.0001)    15 @  3.500000000000000E+01              /* K =  1: 15 */
(PID.TID 0000.0001)     ;
(PID.TID 0000.0001) rhoRef =   /* Density vertical profile from (Ref,sRef)( kg/m^3 ) */
(PID.TID 0000.0001)    15 @  1.035000000000000E+03              /* K =  1: 15 */
(PID.TID 0000.0001)     ;
(PID.TID 0000.0001) dBdrRef = /* Vertical grad. of reference buoyancy [(m/s/r)^2] */
(PID.TID 0000.0001)    15 @  0.000000000000000E+00              /* K =  1: 15 */
(PID.TID 0000.0001)     ;
(PID.TID 0000.0001) useStrainTensionVisc= /* Use StrainTension Form of Viscous Operator */
(PID.TID 0000.0001)                   F
(PID.TID 0000.0001)     ;
(PID.TID 0000.0001) useVariableVisc = /* Use variable horizontal viscosity */
(PID.TID 0000.0001)                   F
(PID.TID 0000.0001)     ;
(PID.TID 0000.0001) useHarmonicVisc = /* Use harmonic horizontal viscosity */
(PID.TID 0000.0001)                   T
(PID.TID 0000.0001)     ;
(PID.TID 0000.0001) useBiharmonicVisc= /* Use biharmonic horiz.  viscosity */
(PID.TID 0000.0001)                   F
(PID.TID 0000.0001)     ;
(PID.TID 0000.0001) useSmag3D = /* Use isotropic 3-D Smagorinsky viscosity */
(PID.TID 0000.0001)                   F
(PID.TID 0000.0001)     ;
(PID.TID 0000.0001) viscAh  =   /* Lateral harmonic viscosity ( m^2/s ) */
(PID.TID 0000.0001)                 5.000000000000000E+05
(PID.TID 0000.0001)     ;
(PID.TID 0000.0001) viscA4  =   /* Lateral biharmonic viscosity ( m^4/s ) */
(PID.TID 0000.0001)                 0.000000000000000E+00
(PID.TID 0000.0001)     ;
(PID.TID 0000.0001) no_slip_sides =  /* Viscous BCs: No-slip sides */
(PID.TID 0000.0001)                   T
(PID.TID 0000.0001)     ;
(PID.TID 0000.0001) sideDragFactor = /* side-drag scaling factor (non-dim) */
(PID.TID 0000.0001)                 2.000000000000000E+00
(PID.TID 0000.0001)     ;
(PID.TID 0000.0001) viscArNr = /* vertical profile of vertical viscosity ( m^2/s )*/
(PID.TID 0000.0001)    15 @  1.000000000000000E-03              /* K =  1: 15 */
(PID.TID 0000.0001)     ;
(PID.TID 0000.0001) no_slip_bottom =  /* Viscous BCs: No-slip bottom */
(PID.TID 0000.0001)                   T
(PID.TID 0000.0001)     ;
(PID.TID 0000.0001) bottomVisc_pCell = /* Partial-cell in bottom Visc. BC */
(PID.TID 0000.0001)                   F
(PID.TID 0000.0001)     ;
(PID.TID 0000.0001) bottomDragLinear = /* linear bottom-drag coefficient ( m/s ) */
(PID.TID 0000.0001)                 0.000000000000000E+00
(PID.TID 0000.0001)     ;
(PID.TID 0000.0001) bottomDragQuadratic = /* quadratic bottom-drag coefficient (-) */
(PID.TID 0000.0001)                 0.000000000000000E+00
(PID.TID 0000.0001)     ;
(PID.TID 0000.0001) selectBotDragQuadr = /* select quadratic bottom drag options */
(PID.TID 0000.0001)                      -1
(PID.TID 0000.0001)     ;
(PID.TID 0000.0001) diffKhT =   /* Laplacian diffusion of heat laterally ( m^2/s ) */
(PID.TID 0000.0001)                 0.000000000000000E+00
(PID.TID 0000.0001)     ;
(PID.TID 0000.0001) diffK4T =   /* Biharmonic diffusion of heat laterally ( m^4/s ) */
(PID.TID 0000.0001)                 0.000000000000000E+00
(PID.TID 0000.0001)     ;
(PID.TID 0000.0001) diffKhS =   /* Laplacian diffusion of salt laterally ( m^2/s ) */
(PID.TID 0000.0001)                 0.000000000000000E+00
(PID.TID 0000.0001)     ;
(PID.TID 0000.0001) diffK4S =   /* Biharmonic diffusion of salt laterally ( m^4/s ) */
(PID.TID 0000.0001)                 0.000000000000000E+00
(PID.TID 0000.0001)     ;
(PID.TID 0000.0001) diffKrNrT = /* vertical profile of vertical diffusion of Temp ( m^2/s )*/
(PID.TID 0000.0001)    15 @  3.000000000000000E-05              /* K =  1: 15 */
(PID.TID 0000.0001)     ;
(PID.TID 0000.0001) diffKrNrS = /* vertical profile of vertical diffusion of Salt ( m^2/s )*/
(PID.TID 0000.0001)    15 @  3.000000000000000E-05              /* K =  1: 15 */
(PID.TID 0000.0001)     ;
(PID.TID 0000.0001) diffKrBL79surf = /* Surface diffusion for Bryan and Lewis 79 ( m^2/s ) */
(PID.TID 0000.0001)                 0.000000000000000E+00
(PID.TID 0000.0001)     ;
(PID.TID 0000.0001) diffKrBL79deep = /* Deep diffusion for Bryan and Lewis 1979 ( m^2/s ) */
(PID.TID 0000.0001)                 0.000000000000000E+00
(PID.TID 0000.0001)     ;
(PID.TID 0000.0001) diffKrBL79scl = /* Depth scale for Bryan and Lewis 1979 ( m ) */
(PID.TID 0000.0001)                 2.000000000000000E+02
(PID.TID 0000.0001)     ;
(PID.TID 0000.0001) diffKrBL79Ho = /* Turning depth for Bryan and Lewis 1979 ( m ) */
(PID.TID 0000.0001)                -2.000000000000000E+03
(PID.TID 0000.0001)     ;
(PID.TID 0000.0001) ivdc_kappa = /* Implicit Vertical Diffusivity for Convection ( m^2/s) */
(PID.TID 0000.0001)                 1.000000000000000E+01
(PID.TID 0000.0001)     ;
(PID.TID 0000.0001) hMixCriteria=  /* Criteria for mixed-layer diagnostic */
(PID.TID 0000.0001)                -8.000000000000000E-01
(PID.TID 0000.0001)     ;
(PID.TID 0000.0001) dRhoSmall =  /* Parameter for mixed-layer diagnostic */
(PID.TID 0000.0001)                 1.000000000000000E-06
(PID.TID 0000.0001)     ;
(PID.TID 0000.0001) hMixSmooth=  /* Smoothing parameter for mixed-layer diagnostic */
(PID.TID 0000.0001)                 0.000000000000000E+00
(PID.TID 0000.0001)     ;
(PID.TID 0000.0001) eosType =  /* Type of Equation of State */
(PID.TID 0000.0001)               'POLY3 '
(PID.TID 0000.0001)     ;
(PID.TID 0000.0001) Polynomial EQS parameters ( from POLY3.COEFFS ):
(PID.TID 0000.0001)   1  13.497  32.600  24.548  -0.202   0.773  -0.005  -0.002   0.000   0.000   0.000   0.000   0.000
(PID.TID 0000.0001)   2  13.488  32.600  24.819  -0.204   0.773  -0.005  -0.002   0.000   0.000   0.000   0.000   0.000
(PID.TID 0000.0001)   3  13.476  32.600  25.201  -0.205   0.772  -0.005  -0.002   0.000   0.000   0.000   0.000   0.000
(PID.TID 0000.0001)   4   8.469  35.150  28.642  -0.163   0.784  -0.005  -0.002  -0.000   0.000   0.000   0.000   0.000
(PID.TID 0000.0001)   5   8.451  35.150  29.393  -0.167   0.782  -0.005  -0.002  -0.000   0.000   0.000   0.000   0.000
(PID.TID 0000.0001)   6   5.940  34.900  30.563  -0.144   0.786  -0.005  -0.002  -0.001   0.000   0.000   0.000   0.000
(PID.TID 0000.0001)   7   4.425  34.900  31.985  -0.134   0.788  -0.005  -0.003  -0.000   0.000   0.000   0.000   0.000
(PID.TID 0000.0001)   8   2.911  34.750  33.505  -0.125   0.789  -0.006  -0.003  -0.000   0.000   0.000   0.000   0.000
(PID.TID 0000.0001)   9   1.893  34.800  35.341  -0.123   0.789  -0.006  -0.003   0.000   0.000   0.000   0.000   0.000
(PID.TID 0000.0001)  10   1.367  34.800  37.299  -0.129   0.787  -0.006  -0.003   0.000   0.000   0.000   0.000   0.000
(PID.TID 0000.0001)  11   1.327  34.800  39.405  -0.141   0.783  -0.005  -0.003   0.000   0.000   0.000   0.000   0.000
(PID.TID 0000.0001)  12   0.791  34.800  41.788  -0.149   0.780  -0.005  -0.003   0.000   0.000   0.000   0.000   0.000
(PID.TID 0000.0001)  13   0.736  34.750  44.259  -0.164   0.776  -0.005  -0.002   0.000   0.000   0.000   0.000   0.000
(PID.TID 0000.0001)  14   0.186  34.750  47.044  -0.175   0.773  -0.005  -0.002   0.000   0.000   0.000   0.000   0.000
(PID.TID 0000.0001)  15   0.595  34.750  49.835  -0.196   0.767  -0.004  -0.002   0.000   0.000   0.000   0.000   0.000
(PID.TID 0000.0001)     ;
(PID.TID 0000.0001) selectP_inEOS_Zc = /* select pressure to use in EOS (0,1,2,3) */
(PID.TID 0000.0001)                       0
(PID.TID 0000.0001)     0= -g*rhoConst*z ; 1= pRef (from tRef,sRef); 2= Hyd P ; 3= Hyd+NH P
(PID.TID 0000.0001)     ;
(PID.TID 0000.0001) surf_pRef = /* Surface reference pressure ( Pa ) */
(PID.TID 0000.0001)                 1.013250000000000E+05
(PID.TID 0000.0001)     ;
(PID.TID 0000.0001) HeatCapacity_Cp =  /* Specific heat capacity ( J/kg/K ) */
(PID.TID 0000.0001)                 3.994000000000000E+03
(PID.TID 0000.0001)     ;
(PID.TID 0000.0001) celsius2K = /* 0 degree Celsius converted to Kelvin ( K ) */
(PID.TID 0000.0001)                 2.731500000000000E+02
(PID.TID 0000.0001)     ;
(PID.TID 0000.0001) rhoConst  = /* Reference density (Boussinesq)  ( kg/m^3 ) */
(PID.TID 0000.0001)                 1.035000000000000E+03
(PID.TID 0000.0001)     ;
(PID.TID 0000.0001) rhoFacC = /* normalized Reference density @ cell-Center (-) */
(PID.TID 0000.0001)    15 @  1.000000000000000E+00              /* K =  1: 15 */
(PID.TID 0000.0001)     ;
(PID.TID 0000.0001) rhoFacF = /* normalized Reference density @ W-Interface (-) */
(PID.TID 0000.0001)    16 @  1.000000000000000E+00              /* K =  1: 16 */
(PID.TID 0000.0001)     ;
(PID.TID 0000.0001) rhoConstFresh = /* Fresh-water reference density ( kg/m^3 ) */
(PID.TID 0000.0001)                 1.000000000000000E+03
(PID.TID 0000.0001)     ;
(PID.TID 0000.0001) gravity =   /* Gravitational acceleration ( m/s^2 ) */
(PID.TID 0000.0001)                 9.810000000000000E+00
(PID.TID 0000.0001)     ;
(PID.TID 0000.0001) gBaro =   /* Barotropic gravity ( m/s^2 ) */
(PID.TID 0000.0001)                 9.810000000000000E+00
(PID.TID 0000.0001)     ;
(PID.TID 0000.0001) gravFacC = /* gravity factor (vs surf.) @ cell-Center (-) */
(PID.TID 0000.0001)    15 @  1.000000000000000E+00              /* K =  1: 15 */
(PID.TID 0000.0001)     ;
(PID.TID 0000.0001) gravFacF = /* gravity factor (vs surf.) @ W-Interface (-) */
(PID.TID 0000.0001)    16 @  1.000000000000000E+00              /* K =  1: 16 */
(PID.TID 0000.0001)     ;
(PID.TID 0000.0001) rotationPeriod =   /* Rotation Period ( s ) */
(PID.TID 0000.0001)                 8.616400000000000E+04
(PID.TID 0000.0001)     ;
(PID.TID 0000.0001) omega =   /* Angular velocity ( rad/s ) */
(PID.TID 0000.0001)                 7.292123516990375E-05
(PID.TID 0000.0001)     ;
(PID.TID 0000.0001) f0 =   /* Reference coriolis parameter ( 1/s ) */
(PID.TID 0000.0001)                 1.000000000000000E-04
(PID.TID 0000.0001)     ;
(PID.TID 0000.0001) beta =   /* Beta ( 1/(m.s) ) */
(PID.TID 0000.0001)                 9.999999999999999E-12
(PID.TID 0000.0001)     ;
(PID.TID 0000.0001) fPrime =   /* Second coriolis parameter ( 1/s ) */
(PID.TID 0000.0001)                 0.000000000000000E+00
(PID.TID 0000.0001)     ;
(PID.TID 0000.0001) rigidLid =   /* Rigid lid on/off flag */
(PID.TID 0000.0001)                   F
(PID.TID 0000.0001)     ;
(PID.TID 0000.0001) implicitFreeSurface =   /* Implicit free surface on/off flag */
(PID.TID 0000.0001)                   T
(PID.TID 0000.0001)     ;
(PID.TID 0000.0001) freeSurfFac =   /* Implicit free surface factor */
(PID.TID 0000.0001)                 1.000000000000000E+00
(PID.TID 0000.0001)     ;
(PID.TID 0000.0001) implicSurfPress =  /* Surface Pressure implicit factor (0-1) */
(PID.TID 0000.0001)                 1.000000000000000E+00
(PID.TID 0000.0001)     ;
(PID.TID 0000.0001) implicDiv2DFlow =  /* Barot. Flow Div. implicit factor (0-1) */
(PID.TID 0000.0001)                 1.000000000000000E+00
(PID.TID 0000.0001)     ;
(PID.TID 0000.0001) uniformLin_PhiSurf = /* use uniform Bo_surf on/off flag */
(PID.TID 0000.0001)                   T
(PID.TID 0000.0001)     ;
(PID.TID 0000.0001) uniformFreeSurfLev = /* free-surface level-index is uniform */
(PID.TID 0000.0001)                   T
(PID.TID 0000.0001)     ;
(PID.TID 0000.0001) sIceLoadFac =  /* scale factor for sIceLoad (0-1) */
(PID.TID 0000.0001)                 1.000000000000000E+00
(PID.TID 0000.0001)     ;
(PID.TID 0000.0001) hFacMin =   /* minimum partial cell factor (hFac) */
(PID.TID 0000.0001)                 5.000000000000000E-02
(PID.TID 0000.0001)     ;
(PID.TID 0000.0001) hFacMinDr = /* minimum partial cell thickness ( m) */
(PID.TID 0000.0001)                 5.000000000000000E+01
(PID.TID 0000.0001)     ;
(PID.TID 0000.0001) exactConserv =  /* Exact Volume Conservation on/off flag */
(PID.TID 0000.0001)                   T
(PID.TID 0000.0001)     ;
(PID.TID 0000.0001) linFSConserveTr = /* Tracer correction for Lin Free Surface on/off flag */
(PID.TID 0000.0001)                   F
(PID.TID 0000.0001)     ;
(PID.TID 0000.0001) nonlinFreeSurf = /* Non-linear Free Surf. options (-1,0,1,2,3)*/
(PID.TID 0000.0001)                       0
(PID.TID 0000.0001)      -1,0= Off ; 1,2,3= On, 2=+rescale gU,gV, 3=+update cg2d solv.
(PID.TID 0000.0001)     ;
(PID.TID 0000.0001) hFacInf =   /* lower threshold for hFac (nonlinFreeSurf only)*/
(PID.TID 0000.0001)                 2.000000000000000E-01
(PID.TID 0000.0001)     ;
(PID.TID 0000.0001) hFacSup =   /* upper threshold for hFac (nonlinFreeSurf only)*/
(PID.TID 0000.0001)                 2.000000000000000E+00
(PID.TID 0000.0001)     ;
(PID.TID 0000.0001) select_rStar = /* r* Vertical coord. options (=0 r coord.; >0 uses r*)*/
(PID.TID 0000.0001)                       0
(PID.TID 0000.0001)     ;
(PID.TID 0000.0001) useRealFreshWaterFlux = /* Real Fresh Water Flux on/off flag*/
(PID.TID 0000.0001)                   T
(PID.TID 0000.0001)     ;
(PID.TID 0000.0001) temp_EvPrRn = /* Temp. of Evap/Prec/R (UNSET=use local T)(oC)*/
(PID.TID 0000.0001)                 1.234567000000000E+05
(PID.TID 0000.0001)     ;
(PID.TID 0000.0001) salt_EvPrRn = /* Salin. of Evap/Prec/R (UNSET=use local S)(g/kg)*/
(PID.TID 0000.0001)                 0.000000000000000E+00
(PID.TID 0000.0001)     ;
(PID.TID 0000.0001) selectAddFluid = /* option for mass source/sink of fluid (=0: off) */
(PID.TID 0000.0001)                       0
(PID.TID 0000.0001)     ;
(PID.TID 0000.0001) temp_addMass = /* Temp. of addMass array (UNSET=use local T)(oC)*/
(PID.TID 0000.0001)                 1.234567000000000E+05
(PID.TID 0000.0001)     ;
(PID.TID 0000.0001) salt_addMass = /* Salin. of addMass array (UNSET=use local S)(g/kg)*/
(PID.TID 0000.0001)                 0.000000000000000E+00
(PID.TID 0000.0001)     ;
(PID.TID 0000.0001) convertFW2Salt = /* convert F.W. Flux to Salt Flux (-1=use local S)(g/kg)*/
(PID.TID 0000.0001)                -1.000000000000000E+00
(PID.TID 0000.0001)     ;
(PID.TID 0000.0001) use3Dsolver = /* use 3-D pressure solver on/off flag */
(PID.TID 0000.0001)                   F
(PID.TID 0000.0001)     ;
(PID.TID 0000.0001) nonHydrostatic =  /* Non-Hydrostatic on/off flag */
(PID.TID 0000.0001)                   F
(PID.TID 0000.0001)     ;
(PID.TID 0000.0001) nh_Am2 = /* Non-Hydrostatic terms scaling factor */
(PID.TID 0000.0001)                 1.000000000000000E+00
(PID.TID 0000.0001)     ;
(PID.TID 0000.0001) implicitNHPress = /* Non-Hyd Pressure implicit factor (0-1)*/
(PID.TID 0000.0001)                 1.000000000000000E+00
(PID.TID 0000.0001)     ;
(PID.TID 0000.0001) selectNHfreeSurf = /* Non-Hyd (free-)Surface option */
(PID.TID 0000.0001)                       0
(PID.TID 0000.0001)     ;
(PID.TID 0000.0001) quasiHydrostatic = /* Quasi-Hydrostatic on/off flag */
(PID.TID 0000.0001)                   F
(PID.TID 0000.0001)     ;
(PID.TID 0000.0001) calc_wVelocity = /* vertical velocity calculation on/off flag */
(PID.TID 0000.0001)                   T
(PID.TID 0000.0001)     ;
(PID.TID 0000.0001) momStepping =  /* Momentum equation on/off flag */
(PID.TID 0000.0001)                   T
(PID.TID 0000.0001)     ;
(PID.TID 0000.0001) vectorInvariantMomentum= /* Vector-Invariant Momentum on/off */
(PID.TID 0000.0001)                   F
(PID.TID 0000.0001)     ;
(PID.TID 0000.0001) momAdvection =  /* Momentum advection on/off flag */
(PID.TID 0000.0001)                   T
(PID.TID 0000.0001)     ;
(PID.TID 0000.0001) momViscosity =  /* Momentum viscosity on/off flag */
(PID.TID 0000.0001)                   T
(PID.TID 0000.0001)     ;
(PID.TID 0000.0001) momImplVertAdv= /* Momentum implicit vert. advection on/off*/
(PID.TID 0000.0001)                   F
(PID.TID 0000.0001)     ;
(PID.TID 0000.0001) implicitViscosity = /* Implicit viscosity on/off flag */
(PID.TID 0000.0001)                   F
(PID.TID 0000.0001)     ;
(PID.TID 0000.0001) selectImplicitDrag= /* Implicit bot Drag options (0,1,2)*/
(PID.TID 0000.0001)                       0
(PID.TID 0000.0001)     0= Expl. ; 1= Impl. on provis. Vel ; 2= Fully Impl (with surf.P)
(PID.TID 0000.0001)     ;
(PID.TID 0000.0001) selectMetricTerms= /* Metric-Terms on/off flag (=0/1) */
(PID.TID 0000.0001)                       1
(PID.TID 0000.0001)     ;
(PID.TID 0000.0001) useNHMTerms = /* Non-Hydrostatic Metric-Terms on/off */
(PID.TID 0000.0001)                   F
(PID.TID 0000.0001)     ;
(PID.TID 0000.0001) selectCoriMap = /* Coriolis Map options (0,1,2,3)*/
(PID.TID 0000.0001)                       2
(PID.TID 0000.0001)     0= f-Plane ; 1= Beta-Plane ; 2= Spherical ; 3= read from file
(PID.TID 0000.0001)     ;
(PID.TID 0000.0001) select3dCoriScheme= /* 3-D Coriolis on/off flag (=0/1) */
(PID.TID 0000.0001)                       0
(PID.TID 0000.0001)     ;
(PID.TID 0000.0001) useCoriolis =  /* Coriolis on/off flag */
(PID.TID 0000.0001)                   T
(PID.TID 0000.0001)     ;
(PID.TID 0000.0001) useCDscheme =  /* CD scheme on/off flag */
(PID.TID 0000.0001)                   T
(PID.TID 0000.0001)     ;
(PID.TID 0000.0001) selectCoriScheme= /* Scheme selector for Coriolis-Term */
(PID.TID 0000.0001)                       0
(PID.TID 0000.0001)    = 0 : original discretization (simple averaging, no hFac)
(PID.TID 0000.0001)    = 1 : Wet-point averaging (Jamar & Ozer 1986)
(PID.TID 0000.0001)    = 2 : energy conserving scheme (no hFac weight)
(PID.TID 0000.0001)    = 3 : energy conserving scheme using Wet-point averaging
(PID.TID 0000.0001)     ;
(PID.TID 0000.0001) momForcing =  /* Momentum forcing on/off flag */
(PID.TID 0000.0001)                   T
(PID.TID 0000.0001)     ;
(PID.TID 0000.0001) momTidalForcing = /* Momentum Tidal forcing on/off flag */
(PID.TID 0000.0001)                   T
(PID.TID 0000.0001)     ;
(PID.TID 0000.0001) momPressureForcing =  /* Momentum pressure term on/off flag */
(PID.TID 0000.0001)                   T
(PID.TID 0000.0001)     ;
(PID.TID 0000.0001) implicitIntGravWave= /* Implicit Internal Gravity Wave flag */
(PID.TID 0000.0001)                   F
(PID.TID 0000.0001)     ;
(PID.TID 0000.0001) staggerTimeStep =    /* Stagger time stepping on/off flag */
(PID.TID 0000.0001)                   F
(PID.TID 0000.0001)     ;
(PID.TID 0000.0001) doResetHFactors = /* reset thickness factors @ each time-step */
(PID.TID 0000.0001)                   F
(PID.TID 0000.0001)     ;
(PID.TID 0000.0001) multiDimAdvection =  /* enable/disable Multi-Dim Advection */
(PID.TID 0000.0001)                   T
(PID.TID 0000.0001)     ;
(PID.TID 0000.0001) useMultiDimAdvec =   /* Multi-Dim Advection is/is-not used */
(PID.TID 0000.0001)                   F
(PID.TID 0000.0001)     ;
(PID.TID 0000.0001) implicitDiffusion = /* Implicit Diffusion on/off flag */
(PID.TID 0000.0001)                   T
(PID.TID 0000.0001)     ;
(PID.TID 0000.0001) tempStepping =  /* Temperature equation on/off flag */
(PID.TID 0000.0001)                   T
(PID.TID 0000.0001)     ;
(PID.TID 0000.0001) tempAdvection = /* Temperature advection on/off flag */
(PID.TID 0000.0001)                   T
(PID.TID 0000.0001)     ;
(PID.TID 0000.0001) tempImplVertAdv = /* Temp. implicit vert. advection on/off */
(PID.TID 0000.0001)                   F
(PID.TID 0000.0001)     ;
(PID.TID 0000.0001) tempForcing  =  /* Temperature forcing on/off flag */
(PID.TID 0000.0001)                   T
(PID.TID 0000.0001)     ;
(PID.TID 0000.0001) doThetaClimRelax = /* apply SST relaxation on/off flag */
(PID.TID 0000.0001)                   T
(PID.TID 0000.0001)     ;
(PID.TID 0000.0001) tempIsActiveTr = /* Temp. is a dynamically Active Tracer */
(PID.TID 0000.0001)                   T
(PID.TID 0000.0001)     ;
(PID.TID 0000.0001) saltStepping =  /* Salinity equation on/off flag */
(PID.TID 0000.0001)                   T
(PID.TID 0000.0001)     ;
(PID.TID 0000.0001) saltAdvection = /* Salinity advection on/off flag */
(PID.TID 0000.0001)                   T
(PID.TID 0000.0001)     ;
(PID.TID 0000.0001) saltImplVertAdv = /* Sali. implicit vert. advection on/off */
(PID.TID 0000.0001)                   F
(PID.TID 0000.0001)     ;
(PID.TID 0000.0001) saltForcing  =  /* Salinity forcing on/off flag */
(PID.TID 0000.0001)                   T
(PID.TID 0000.0001)     ;
(PID.TID 0000.0001) doSaltClimRelax = /* apply SSS relaxation on/off flag */
(PID.TID 0000.0001)                   T
(PID.TID 0000.0001)     ;
(PID.TID 0000.0001) saltIsActiveTr = /* Salt  is a dynamically Active Tracer */
(PID.TID 0000.0001)                   T
(PID.TID 0000.0001)     ;
(PID.TID 0000.0001)  readBinaryPrec = /* Precision used for reading binary files */
(PID.TID 0000.0001)                      32
(PID.TID 0000.0001)     ;
(PID.TID 0000.0001) writeBinaryPrec = /* Precision used for writing binary files */
(PID.TID 0000.0001)                      32
(PID.TID 0000.0001)     ;
(PID.TID 0000.0001)  rwSuffixType =   /* select format of mds file suffix */
(PID.TID 0000.0001)                       0
(PID.TID 0000.0001)    = 0 : myIter (I10.10) ;   = 1 : 100*myTime (100th sec) ;
(PID.TID 0000.0001)    = 2 : myTime (seconds);   = 3 : myTime/360 (10th of hr);
(PID.TID 0000.0001)    = 4 : myTime/3600 (hours)
(PID.TID 0000.0001)     ;
(PID.TID 0000.0001)  globalFiles = /* write "global" (=not per tile) files */
(PID.TID 0000.0001)                   F
(PID.TID 0000.0001)     ;
(PID.TID 0000.0001)  useSingleCpuIO = /* only master MPI process does I/O */
(PID.TID 0000.0001)                   F
(PID.TID 0000.0001)     ;
(PID.TID 0000.0001)  useSingleCpuInput = /* only master process reads input */
(PID.TID 0000.0001)                   F
(PID.TID 0000.0001)     ;
(PID.TID 0000.0001) /* debLev[*]  : level of debug & auxiliary message printing */
(PID.TID 0000.0001) debLevZero =  0 ; /* level of disabled aux. msg printing */
(PID.TID 0000.0001)    debLevA =  1 ; /* level of minimum  aux. msg printing */
(PID.TID 0000.0001)    debLevB =  2 ; /* level of low aux. print (report read-file opening)*/
(PID.TID 0000.0001)    debLevC =  3 ; /* level of moderate debug prt (most pkgs debug msg) */
(PID.TID 0000.0001)    debLevD =  4 ; /* level of enhanced debug prt (add DEBUG_STATS prt) */
(PID.TID 0000.0001)    debLevE =  5 ; /* level of extensive debug printing */
(PID.TID 0000.0001) debugLevel =  /* select debug printing level */
(PID.TID 0000.0001)                       2
(PID.TID 0000.0001)     ;
(PID.TID 0000.0001)  plotLevel =  /* select PLOT_FIELD printing level */
(PID.TID 0000.0001)                       2
(PID.TID 0000.0001)     ;
(PID.TID 0000.0001) //
(PID.TID 0000.0001) // Elliptic solver(s) paramters ( PARM02 in namelist )
(PID.TID 0000.0001) //
(PID.TID 0000.0001) cg2dMaxIters =   /* Upper limit on 2d con. grad iterations  */
(PID.TID 0000.0001)                     500
(PID.TID 0000.0001)     ;
(PID.TID 0000.0001) cg2dMinItersNSA =   /* Minimum number of iterations of 2d con. grad solver  */
(PID.TID 0000.0001)                       0
(PID.TID 0000.0001)     ;
(PID.TID 0000.0001) cg2dUseMinResSol= /* use cg2d last-iter(=0) / min-resid.(=1) solution */
(PID.TID 0000.0001)                       0
(PID.TID 0000.0001)     ;
(PID.TID 0000.0001) cg2dTargetResidual =   /* 2d con. grad target residual  */
(PID.TID 0000.0001)                 1.000000000000000E-13
(PID.TID 0000.0001)     ;
(PID.TID 0000.0001) cg2dTargetResWunit =   /* CG2d target residual [W units] */
(PID.TID 0000.0001)                -1.000000000000000E+00
(PID.TID 0000.0001)     ;
(PID.TID 0000.0001) cg2dPreCondFreq =   /* Freq. for updating cg2d preconditioner */
(PID.TID 0000.0001)                       1
(PID.TID 0000.0001)     ;
(PID.TID 0000.0001) useSRCGSolver =  /* use single reduction CG solver(s) */
(PID.TID 0000.0001)                   F
(PID.TID 0000.0001)     ;
(PID.TID 0000.0001) useNSACGSolver =  /* use not-self-adjoint CG solver */
(PID.TID 0000.0001)                   F
(PID.TID 0000.0001)     ;
(PID.TID 0000.0001) printResidualFreq = /* Freq. for printing CG residual */
(PID.TID 0000.0001)                       0
(PID.TID 0000.0001)     ;
(PID.TID 0000.0001) //
(PID.TID 0000.0001) // Time stepping paramters ( PARM03 in namelist )
(PID.TID 0000.0001) //
(PID.TID 0000.0001) deltaTMom =   /* Momentum equation timestep ( s ) */
(PID.TID 0000.0001)                 1.200000000000000E+03
(PID.TID 0000.0001)     ;
(PID.TID 0000.0001) deltaTFreeSurf = /* FreeSurface equation timestep ( s ) */
(PID.TID 0000.0001)                 4.320000000000000E+04
(PID.TID 0000.0001)     ;
(PID.TID 0000.0001) dTtracerLev =  /* Tracer equation timestep ( s ) */
(PID.TID 0000.0001)    15 @  4.320000000000000E+04              /* K =  1: 15 */
(PID.TID 0000.0001)     ;
(PID.TID 0000.0001) deltaTClock  =   /* Model clock timestep ( s ) */
(PID.TID 0000.0001)                 4.320000000000000E+04
(PID.TID 0000.0001)     ;
(PID.TID 0000.0001) cAdjFreq =   /* Convective adjustment interval ( s ) */
(PID.TID 0000.0001)                 0.000000000000000E+00
(PID.TID 0000.0001)     ;
(PID.TID 0000.0001) momForcingOutAB = /* =1: take Momentum Forcing out of Adams-Bash. stepping */
(PID.TID 0000.0001)                       0
(PID.TID 0000.0001)     ;
(PID.TID 0000.0001) tracForcingOutAB = /* =1: take T,S,pTr Forcing out of Adams-Bash. stepping */
(PID.TID 0000.0001)                       0
(PID.TID 0000.0001)     ;
(PID.TID 0000.0001) momDissip_In_AB = /* put Dissipation Tendency in Adams-Bash. stepping */
(PID.TID 0000.0001)                   T
(PID.TID 0000.0001)     ;
(PID.TID 0000.0001) doAB_onGtGs = /* apply AB on Tendencies (rather than on T,S)*/
(PID.TID 0000.0001)                   T
(PID.TID 0000.0001)     ;
(PID.TID 0000.0001) abEps =   /* Adams-Bashforth-2 stabilizing weight */
(PID.TID 0000.0001)                 1.000000000000000E-01
(PID.TID 0000.0001)     ;
(PID.TID 0000.0001) applyExchUV_early = /* Apply EXCH to U,V earlier in time-step */
(PID.TID 0000.0001)                   F
(PID.TID 0000.0001)     ;
(PID.TID 0000.0001) tauCD =   /* CD coupling time-scale ( s ) */
(PID.TID 0000.0001)                 3.214280000000000E+05
(PID.TID 0000.0001)     ;
(PID.TID 0000.0001) rCD =   /* Normalised CD coupling parameter */
(PID.TID 0000.0001)                 9.962666600296178E-01
(PID.TID 0000.0001)     ;
(PID.TID 0000.0001) epsAB_CD = /* AB-2 stabilizing weight for CD-scheme*/
(PID.TID 0000.0001)                 1.000000000000000E-01
(PID.TID 0000.0001)     ;
(PID.TID 0000.0001) pickupStrictlyMatch= /* stop if pickup do not strictly match */
(PID.TID 0000.0001)                   T
(PID.TID 0000.0001)     ;
(PID.TID 0000.0001) nIter0   =   /* Run starting timestep number */
(PID.TID 0000.0001)                       0
(PID.TID 0000.0001)     ;
(PID.TID 0000.0001) nTimeSteps = /* Number of timesteps */
(PID.TID 0000.0001)                      20
(PID.TID 0000.0001)     ;
(PID.TID 0000.0001) nEndIter =   /* Run ending timestep number */
(PID.TID 0000.0001)                      20
(PID.TID 0000.0001)     ;
(PID.TID 0000.0001) baseTime =   /* Model base time ( s ) */
(PID.TID 0000.0001)                 0.000000000000000E+00
(PID.TID 0000.0001)     ;
(PID.TID 0000.0001) startTime =  /* Run start time ( s ) */
(PID.TID 0000.0001)                 0.000000000000000E+00
(PID.TID 0000.0001)     ;
(PID.TID 0000.0001) endTime  =   /* Integration ending time ( s ) */
(PID.TID 0000.0001)                 8.640000000000000E+05
(PID.TID 0000.0001)     ;
(PID.TID 0000.0001) pChkPtFreq = /* Permanent restart/pickup file interval ( s ) */
(PID.TID 0000.0001)                 3.110400000000000E+08
(PID.TID 0000.0001)     ;
(PID.TID 0000.0001) chkPtFreq  = /* Rolling restart/pickup file interval ( s ) */
(PID.TID 0000.0001)                 0.000000000000000E+00
(PID.TID 0000.0001)     ;
(PID.TID 0000.0001) pickup_write_mdsio =   /* Model IO flag. */
(PID.TID 0000.0001)                   T
(PID.TID 0000.0001)     ;
(PID.TID 0000.0001) pickup_read_mdsio =   /* Model IO flag. */
(PID.TID 0000.0001)                   T
(PID.TID 0000.0001)     ;
(PID.TID 0000.0001) writePickupAtEnd =   /* Model IO flag. */
(PID.TID 0000.0001)                   T
(PID.TID 0000.0001)     ;
(PID.TID 0000.0001) dumpFreq =   /* Model state write out interval ( s ). */
(PID.TID 0000.0001)                 8.640000000000000E+05
(PID.TID 0000.0001)     ;
(PID.TID 0000.0001) dumpInitAndLast= /* write out Initial & Last iter. model state */
(PID.TID 0000.0001)                   T
(PID.TID 0000.0001)     ;
(PID.TID 0000.0001) snapshot_mdsio =   /* Model IO flag. */
(PID.TID 0000.0001)                   T
(PID.TID 0000.0001)     ;
(PID.TID 0000.0001) monitorFreq =   /* Monitor output interval ( s ). */
(PID.TID 0000.0001)                 1.000000000000000E+00
(PID.TID 0000.0001)     ;
(PID.TID 0000.0001) monitorSelect = /* select group of variables to monitor */
(PID.TID 0000.0001)                       3
(PID.TID 0000.0001)     ;
(PID.TID 0000.0001) monitor_stdio =   /* Model IO flag. */
(PID.TID 0000.0001)                   T
(PID.TID 0000.0001)     ;
(PID.TID 0000.0001) externForcingPeriod =   /* forcing period (s) */
(PID.TID 0000.0001)                 0.000000000000000E+00
(PID.TID 0000.0001)     ;
(PID.TID 0000.0001) externForcingCycle =   /* period of the cyle (s). */
(PID.TID 0000.0001)                 0.000000000000000E+00
(PID.TID 0000.0001)     ;
(PID.TID 0000.0001) tauThetaClimRelax =   /* relaxation time scale (s) */
(PID.TID 0000.0001)                 5.184000000000000E+06
(PID.TID 0000.0001)     ;
(PID.TID 0000.0001) tauSaltClimRelax =   /* relaxation time scale (s) */
(PID.TID 0000.0001)                 1.555200000000000E+07
(PID.TID 0000.0001)     ;
(PID.TID 0000.0001) latBandClimRelax =   /* max. Lat. where relaxation */
(PID.TID 0000.0001)                 1.800000000000000E+02
(PID.TID 0000.0001)     ;
(PID.TID 0000.0001) //
(PID.TID 0000.0001) // Gridding paramters ( PARM04 in namelist )
(PID.TID 0000.0001) //
(PID.TID 0000.0001) usingCartesianGrid = /* Cartesian coordinates flag ( True/False ) */
(PID.TID 0000.0001)                   F
(PID.TID 0000.0001)     ;
(PID.TID 0000.0001) usingCylindricalGrid = /* Cylindrical coordinates flag ( True/False ) */
(PID.TID 0000.0001)                   F
(PID.TID 0000.0001)     ;
(PID.TID 0000.0001) usingSphericalPolarGrid = /* Spherical coordinates flag ( True/False ) */
(PID.TID 0000.0001)                   T
(PID.TID 0000.0001)     ;
(PID.TID 0000.0001) usingCurvilinearGrid = /* Curvilinear coordinates flag ( True/False ) */
(PID.TID 0000.0001)                   F
(PID.TID 0000.0001)     ;
(PID.TID 0000.0001) useMin4hFacEdges = /* set hFacW,S as minimum of adjacent hFacC factor */
(PID.TID 0000.0001)                   F
(PID.TID 0000.0001)     ;
(PID.TID 0000.0001) interViscAr_pCell = /* account for partial-cell in interior vert. viscosity */
(PID.TID 0000.0001)                   F
(PID.TID 0000.0001)     ;
(PID.TID 0000.0001) interDiffKr_pCell = /* account for partial-cell in interior vert. diffusion */
(PID.TID 0000.0001)                   F
(PID.TID 0000.0001)     ;
(PID.TID 0000.0001) pCellMix_select = /* option to enhance mixing near surface & bottom */
(PID.TID 0000.0001)                       0
(PID.TID 0000.0001)     ;
(PID.TID 0000.0001) selectSigmaCoord = /* Hybrid-Sigma Vert. Coordinate option */
(PID.TID 0000.0001)                       0
(PID.TID 0000.0001)     ;
(PID.TID 0000.0001) rSigmaBnd = /* r/sigma transition ( units of r ==  m ) */
(PID.TID 0000.0001)                 1.234567000000000E+05
(PID.TID 0000.0001)     ;
(PID.TID 0000.0001) rkSign =   /* index orientation relative to vertical coordinate */
(PID.TID 0000.0001)                -1.000000000000000E+00
(PID.TID 0000.0001)     ;
(PID.TID 0000.0001) gravitySign = /* gravity orientation relative to vertical coordinate */
(PID.TID 0000.0001)                -1.000000000000000E+00
(PID.TID 0000.0001)     ;
(PID.TID 0000.0001) seaLev_Z =  /* reference height of sea-level [m] */
(PID.TID 0000.0001)                 0.000000000000000E+00
(PID.TID 0000.0001)     ;
(PID.TID 0000.0001) top_Pres =  /* reference pressure at the top [Pa] */
(PID.TID 0000.0001)                 0.000000000000000E+00
(PID.TID 0000.0001)     ;
(PID.TID 0000.0001) mass2rUnit = /* convert mass per unit area [kg/m2] to r-units [m] */
(PID.TID 0000.0001)                 9.661835748792270E-04
(PID.TID 0000.0001)     ;
(PID.TID 0000.0001) rUnit2mass = /* convert r-units [m] to mass per unit area [kg/m2] */
(PID.TID 0000.0001)                 1.035000000000000E+03
(PID.TID 0000.0001)     ;
(PID.TID 0000.0001) drC =   /* C spacing ( units of r ) */
(PID.TID 0000.0001)                 2.500000000000000E+01,      /* K =  1 */
(PID.TID 0000.0001)                 6.000000000000000E+01,      /* K =  2 */
(PID.TID 0000.0001)                 8.500000000000000E+01,      /* K =  3 */
(PID.TID 0000.0001)                 1.200000000000000E+02,      /* K =  4 */
(PID.TID 0000.0001)                 1.650000000000000E+02,      /* K =  5 */
(PID.TID 0000.0001)                 2.150000000000000E+02,      /* K =  6 */
(PID.TID 0000.0001)                 2.650000000000000E+02,      /* K =  7 */
(PID.TID 0000.0001)                 3.150000000000000E+02,      /* K =  8 */
(PID.TID 0000.0001)                 3.650000000000000E+02,      /* K =  9 */
(PID.TID 0000.0001)                 4.150000000000000E+02,      /* K = 10 */
(PID.TID 0000.0001)                 4.650000000000000E+02,      /* K = 11 */
(PID.TID 0000.0001)                 5.150000000000000E+02,      /* K = 12 */
(PID.TID 0000.0001)                 5.650000000000000E+02,      /* K = 13 */
(PID.TID 0000.0001)                 6.150000000000000E+02,      /* K = 14 */
(PID.TID 0000.0001)                 6.650000000000000E+02,      /* K = 15 */
(PID.TID 0000.0001)                 3.450000000000000E+02       /* K = 16 */
(PID.TID 0000.0001)     ;
(PID.TID 0000.0001) drF =   /* W spacing ( units of r ) */
(PID.TID 0000.0001)                 5.000000000000000E+01,      /* K =  1 */
(PID.TID 0000.0001)                 7.000000000000000E+01,      /* K =  2 */
(PID.TID 0000.0001)                 1.000000000000000E+02,      /* K =  3 */
(PID.TID 0000.0001)                 1.400000000000000E+02,      /* K =  4 */
(PID.TID 0000.0001)                 1.900000000000000E+02,      /* K =  5 */
(PID.TID 0000.0001)                 2.400000000000000E+02,      /* K =  6 */
(PID.TID 0000.0001)                 2.900000000000000E+02,      /* K =  7 */
(PID.TID 0000.0001)                 3.400000000000000E+02,      /* K =  8 */
(PID.TID 0000.0001)                 3.900000000000000E+02,      /* K =  9 */
(PID.TID 0000.0001)                 4.400000000000000E+02,      /* K = 10 */
(PID.TID 0000.0001)                 4.900000000000000E+02,      /* K = 11 */
(PID.TID 0000.0001)                 5.400000000000000E+02,      /* K = 12 */
(PID.TID 0000.0001)                 5.900000000000000E+02,      /* K = 13 */
(PID.TID 0000.0001)                 6.400000000000000E+02,      /* K = 14 */
(PID.TID 0000.0001)                 6.900000000000000E+02       /* K = 15 */
(PID.TID 0000.0001)     ;
(PID.TID 0000.0001) delX = /* U spacing ( m - cartesian, degrees - spherical ) */
(PID.TID 0000.0001)    90 @  4.000000000000000E+00              /* I =  1: 90 */
(PID.TID 0000.0001)     ;
(PID.TID 0000.0001) delY = /* V spacing ( m - cartesian, degrees - spherical ) */
(PID.TID 0000.0001)    40 @  4.000000000000000E+00              /* J =  1: 40 */
(PID.TID 0000.0001)     ;
(PID.TID 0000.0001) xgOrigin = /* X-axis origin of West  edge (cartesian: m, lat-lon: deg) */
(PID.TID 0000.0001)                 0.000000000000000E+00
(PID.TID 0000.0001)     ;
(PID.TID 0000.0001) ygOrigin = /* Y-axis origin of South edge (cartesian: m, lat-lon: deg) */
(PID.TID 0000.0001)                -8.000000000000000E+01
(PID.TID 0000.0001)     ;
(PID.TID 0000.0001) rSphere =  /* Radius ( ignored - cartesian, m - spherical ) */
(PID.TID 0000.0001)                 6.370000000000000E+06
(PID.TID 0000.0001)     ;
(PID.TID 0000.0001) deepAtmosphere = /* Deep/Shallow Atmosphere flag (True/False) */
(PID.TID 0000.0001)                   F
(PID.TID 0000.0001)     ;
(PID.TID 0000.0001) xC =  /* xC(:,1,:,1) : P-point X coord ( deg. or m if cartesian) */
(PID.TID 0000.0001)                 2.000000000000000E+00,      /* I =  1 */
(PID.TID 0000.0001)                 6.000000000000000E+00,      /* I =  2 */
(PID.TID 0000.0001)                 1.000000000000000E+01,      /* I =  3 */
(PID.TID 0000.0001)      . . .
(PID.TID 0000.0001)                 8.200000000000000E+01,      /* I = 21 */
(PID.TID 0000.0001)                 8.600000000000000E+01,      /* I = 22 */
(PID.TID 0000.0001)                 9.000000000000000E+01,      /* I = 23 */
(PID.TID 0000.0001)                 9.400000000000000E+01,      /* I = 24 */
(PID.TID 0000.0001)                 9.800000000000000E+01,      /* I = 25 */
(PID.TID 0000.0001)                 1.020000000000000E+02,      /* I = 26 */
(PID.TID 0000.0001)      . . .
(PID.TID 0000.0001)                 1.700000000000000E+02,      /* I = 43 */
(PID.TID 0000.0001)                 1.740000000000000E+02,      /* I = 44 */
(PID.TID 0000.0001)                 1.780000000000000E+02,      /* I = 45 */
(PID.TID 0000.0001)                 1.820000000000000E+02,      /* I = 46 */
(PID.TID 0000.0001)                 1.860000000000000E+02,      /* I = 47 */
(PID.TID 0000.0001)                 1.900000000000000E+02,      /* I = 48 */
(PID.TID 0000.0001)      . . .
(PID.TID 0000.0001)                 2.580000000000000E+02,      /* I = 65 */
(PID.TID 0000.0001)                 2.620000000000000E+02,      /* I = 66 */
(PID.TID 0000.0001)                 2.660000000000000E+02,      /* I = 67 */
(PID.TID 0000.0001)                 2.700000000000000E+02,      /* I = 68 */
(PID.TID 0000.0001)                 2.740000000000000E+02,      /* I = 69 */
(PID.TID 0000.0001)                 2.780000000000000E+02,      /* I = 70 */
(PID.TID 0000.0001)      . . .
(PID.TID 0000.0001)                 3.500000000000000E+02,      /* I = 88 */
(PID.TID 0000.0001)                 3.540000000000000E+02,      /* I = 89 */
(PID.TID 0000.0001)                 3.580000000000000E+02       /* I = 90 */
(PID.TID 0000.0001)     ;
(PID.TID 0000.0001) yC =  /* yC(1,:,1,:) : P-point Y coord ( deg. or m if cartesian) */
(PID.TID 0000.0001)                -7.800000000000000E+01,      /* J =  1 */
(PID.TID 0000.0001)                -7.400000000000000E+01,      /* J =  2 */
(PID.TID 0000.0001)                -7.000000000000000E+01,      /* J =  3 */
(PID.TID 0000.0001)                -6.600000000000000E+01,      /* J =  4 */
(PID.TID 0000.0001)                -6.200000000000000E+01,      /* J =  5 */
(PID.TID 0000.0001)                -5.800000000000000E+01,      /* J =  6 */
(PID.TID 0000.0001)                -5.400000000000000E+01,      /* J =  7 */
(PID.TID 0000.0001)                -5.000000000000000E+01,      /* J =  8 */
(PID.TID 0000.0001)                -4.600000000000000E+01,      /* J =  9 */
(PID.TID 0000.0001)                -4.200000000000000E+01,      /* J = 10 */
(PID.TID 0000.0001)                -3.800000000000000E+01,      /* J = 11 */
(PID.TID 0000.0001)                -3.400000000000000E+01,      /* J = 12 */
(PID.TID 0000.0001)                -3.000000000000000E+01,      /* J = 13 */
(PID.TID 0000.0001)                -2.600000000000000E+01,      /* J = 14 */
(PID.TID 0000.0001)                -2.200000000000000E+01,      /* J = 15 */
(PID.TID 0000.0001)                -1.800000000000000E+01,      /* J = 16 */
(PID.TID 0000.0001)                -1.400000000000000E+01,      /* J = 17 */
(PID.TID 0000.0001)                -1.000000000000000E+01,      /* J = 18 */
(PID.TID 0000.0001)                -6.000000000000000E+00,      /* J = 19 */
(PID.TID 0000.0001)                -2.000000000000000E+00,      /* J = 20 */
(PID.TID 0000.0001)                 2.000000000000000E+00,      /* J = 21 */
(PID.TID 0000.0001)                 6.000000000000000E+00,      /* J = 22 */
(PID.TID 0000.0001)                 1.000000000000000E+01,      /* J = 23 */
(PID.TID 0000.0001)                 1.400000000000000E+01,      /* J = 24 */
(PID.TID 0000.0001)                 1.800000000000000E+01,      /* J = 25 */
(PID.TID 0000.0001)                 2.200000000000000E+01,      /* J = 26 */
(PID.TID 0000.0001)                 2.600000000000000E+01,      /* J = 27 */
(PID.TID 0000.0001)                 3.000000000000000E+01,      /* J = 28 */
(PID.TID 0000.0001)                 3.400000000000000E+01,      /* J = 29 */
(PID.TID 0000.0001)                 3.800000000000000E+01,      /* J = 30 */
(PID.TID 0000.0001)                 4.200000000000000E+01,      /* J = 31 */
(PID.TID 0000.0001)                 4.600000000000000E+01,      /* J = 32 */
(PID.TID 0000.0001)                 5.000000000000000E+01,      /* J = 33 */
(PID.TID 0000.0001)                 5.400000000000000E+01,      /* J = 34 */
(PID.TID 0000.0001)                 5.800000000000000E+01,      /* J = 35 */
(PID.TID 0000.0001)                 6.200000000000000E+01,      /* J = 36 */
(PID.TID 0000.0001)                 6.600000000000000E+01,      /* J = 37 */
(PID.TID 0000.0001)                 7.000000000000000E+01,      /* J = 38 */
(PID.TID 0000.0001)                 7.400000000000000E+01,      /* J = 39 */
(PID.TID 0000.0001)                 7.800000000000000E+01       /* J = 40 */
(PID.TID 0000.0001)     ;
(PID.TID 0000.0001) rcoord = /* P-point R coordinate (  units of r ) */
(PID.TID 0000.0001)                -2.500000000000000E+01,      /* K =  1 */
(PID.TID 0000.0001)                -8.500000000000000E+01,      /* K =  2 */
(PID.TID 0000.0001)                -1.700000000000000E+02,      /* K =  3 */
(PID.TID 0000.0001)                -2.900000000000000E+02,      /* K =  4 */
(PID.TID 0000.0001)                -4.550000000000000E+02,      /* K =  5 */
(PID.TID 0000.0001)                -6.700000000000000E+02,      /* K =  6 */
(PID.TID 0000.0001)                -9.350000000000000E+02,      /* K =  7 */
(PID.TID 0000.0001)                -1.250000000000000E+03,      /* K =  8 */
(PID.TID 0000.0001)                -1.615000000000000E+03,      /* K =  9 */
(PID.TID 0000.0001)                -2.030000000000000E+03,      /* K = 10 */
(PID.TID 0000.0001)                -2.495000000000000E+03,      /* K = 11 */
(PID.TID 0000.0001)                -3.010000000000000E+03,      /* K = 12 */
(PID.TID 0000.0001)                -3.575000000000000E+03,      /* K = 13 */
(PID.TID 0000.0001)                -4.190000000000000E+03,      /* K = 14 */
(PID.TID 0000.0001)                -4.855000000000000E+03       /* K = 15 */
(PID.TID 0000.0001)     ;
(PID.TID 0000.0001) rF =   /* W-Interf. R coordinate (  units of r ) */
(PID.TID 0000.0001)                 0.000000000000000E+00,      /* K =  1 */
(PID.TID 0000.0001)                -5.000000000000000E+01,      /* K =  2 */
(PID.TID 0000.0001)                -1.200000000000000E+02,      /* K =  3 */
(PID.TID 0000.0001)                -2.200000000000000E+02,      /* K =  4 */
(PID.TID 0000.0001)                -3.600000000000000E+02,      /* K =  5 */
(PID.TID 0000.0001)                -5.500000000000000E+02,      /* K =  6 */
(PID.TID 0000.0001)                -7.900000000000000E+02,      /* K =  7 */
(PID.TID 0000.0001)                -1.080000000000000E+03,      /* K =  8 */
(PID.TID 0000.0001)                -1.420000000000000E+03,      /* K =  9 */
(PID.TID 0000.0001)                -1.810000000000000E+03,      /* K = 10 */
(PID.TID 0000.0001)                -2.250000000000000E+03,      /* K = 11 */
(PID.TID 0000.0001)                -2.740000000000000E+03,      /* K = 12 */
(PID.TID 0000.0001)                -3.280000000000000E+03,      /* K = 13 */
(PID.TID 0000.0001)                -3.870000000000000E+03,      /* K = 14 */
(PID.TID 0000.0001)                -4.510000000000000E+03,      /* K = 15 */
(PID.TID 0000.0001)                -5.200000000000000E+03       /* K = 16 */
(PID.TID 0000.0001)     ;
(PID.TID 0000.0001) deepFacC = /* deep-model grid factor @ cell-Center (-) */
(PID.TID 0000.0001)    15 @  1.000000000000000E+00              /* K =  1: 15 */
(PID.TID 0000.0001)     ;
(PID.TID 0000.0001) deepFacF = /* deep-model grid factor @ W-Interface (-) */
(PID.TID 0000.0001)    16 @  1.000000000000000E+00              /* K =  1: 16 */
(PID.TID 0000.0001)     ;
(PID.TID 0000.0001) rotateGrid = /* use rotated grid ( True/False ) */
(PID.TID 0000.0001)                   F
(PID.TID 0000.0001)     ;
(PID.TID 0000.0001) phiEuler = /* Euler angle, rotation about original z-coordinate [rad] */
(PID.TID 0000.0001)                 0.000000000000000E+00
(PID.TID 0000.0001)     ;
(PID.TID 0000.0001) thetaEuler = /* Euler angle, rotation about new x-coordinate [rad] */
(PID.TID 0000.0001)                 0.000000000000000E+00
(PID.TID 0000.0001)     ;
(PID.TID 0000.0001) psiEuler = /* Euler angle, rotation about new z-coordinate [rad] */
(PID.TID 0000.0001)                 0.000000000000000E+00
(PID.TID 0000.0001)     ;
(PID.TID 0000.0001) dxF =  /* dxF(:,1,:,1) ( units: m ) */
(PID.TID 0000.0001)    90 @  9.246038586187513E+04              /* I =  1: 90 */
(PID.TID 0000.0001)     ;
(PID.TID 0000.0001) dxF =  /* dxF(1,:,1,:) ( units: m ) */
(PID.TID 0000.0001)                 9.246038586187513E+04,      /* J =  1 */
(PID.TID 0000.0001)                 1.225786591246834E+05,      /* J =  2 */
(PID.TID 0000.0001)                 1.520997414818001E+05,      /* J =  3 */
(PID.TID 0000.0001)                 1.808798091874300E+05,      /* J =  4 */
(PID.TID 0000.0001)                 2.087786486446736E+05,      /* J =  5 */
(PID.TID 0000.0001)                 2.356603395120765E+05,      /* J =  6 */
(PID.TID 0000.0001)                 2.613939168938713E+05,      /* J =  7 */
(PID.TID 0000.0001)                 2.858540093877838E+05,      /* J =  8 */
(PID.TID 0000.0001)                 3.089214498819034E+05,      /* J =  9 */
(PID.TID 0000.0001)                 3.304838561248741E+05,      /* J = 10 */
(PID.TID 0000.0001)                 3.504361782409254E+05,      /* J = 11 */
(PID.TID 0000.0001)                 3.686812105223082E+05,      /* J = 12 */
(PID.TID 0000.0001)                 3.851300650057323E+05,      /* J = 13 */
(PID.TID 0000.0001)                 3.997026045255871E+05,      /* J = 14 */
(PID.TID 0000.0001)                 4.123278331341585E+05,      /* J = 15 */
(PID.TID 0000.0001)                 4.229442419867491E+05,      /* J = 16 */
(PID.TID 0000.0001)                 4.315001090065870E+05,      /* J = 17 */
(PID.TID 0000.0001)                 4.379537508695838E+05,      /* J = 18 */
(PID.TID 0000.0001)                 4.422737260813012E+05,      /* J = 19 */
(PID.TID 0000.0001)     2 @  4.444389881567502E+05,             /* J = 20: 21 */
(PID.TID 0000.0001)                 4.422737260813012E+05,      /* J = 22 */
(PID.TID 0000.0001)                 4.379537508695838E+05,      /* J = 23 */
(PID.TID 0000.0001)                 4.315001090065870E+05,      /* J = 24 */
(PID.TID 0000.0001)                 4.229442419867491E+05,      /* J = 25 */
(PID.TID 0000.0001)                 4.123278331341585E+05,      /* J = 26 */
(PID.TID 0000.0001)                 3.997026045255871E+05,      /* J = 27 */
(PID.TID 0000.0001)                 3.851300650057323E+05,      /* J = 28 */
(PID.TID 0000.0001)                 3.686812105223082E+05,      /* J = 29 */
(PID.TID 0000.0001)                 3.504361782409254E+05,      /* J = 30 */
(PID.TID 0000.0001)                 3.304838561248741E+05,      /* J = 31 */
(PID.TID 0000.0001)                 3.089214498819034E+05,      /* J = 32 */
(PID.TID 0000.0001)                 2.858540093877838E+05,      /* J = 33 */
(PID.TID 0000.0001)                 2.613939168938713E+05,      /* J = 34 */
(PID.TID 0000.0001)                 2.356603395120765E+05,      /* J = 35 */
(PID.TID 0000.0001)                 2.087786486446736E+05,      /* J = 36 */
(PID.TID 0000.0001)                 1.808798091874300E+05,      /* J = 37 */
(PID.TID 0000.0001)                 1.520997414818001E+05,      /* J = 38 */
(PID.TID 0000.0001)                 1.225786591246834E+05,      /* J = 39 */
(PID.TID 0000.0001)                 9.246038586187513E+04       /* J = 40 */
(PID.TID 0000.0001)     ;
(PID.TID 0000.0001) dyF =  /* dyF(:,1,:,1) ( units: m ) */
(PID.TID 0000.0001)    90 @  4.447098934081552E+05              /* I =  1: 90 */
(PID.TID 0000.0001)     ;
(PID.TID 0000.0001) dyF =  /* dyF(1,:,1,:) ( units: m ) */
(PID.TID 0000.0001)    40 @  4.447098934081552E+05              /* J =  1: 40 */
(PID.TID 0000.0001)     ;
(PID.TID 0000.0001) dxG =  /* dxG(:,1,:,1) ( units: m ) */
(PID.TID 0000.0001)    90 @  7.722306258078101E+04              /* I =  1: 90 */
(PID.TID 0000.0001)     ;
(PID.TID 0000.0001) dxG =  /* dxG(1,:,1,:) ( units: m ) */
(PID.TID 0000.0001)                 7.722306258078101E+04,      /* J =  1 */
(PID.TID 0000.0001)                 1.075850604052271E+05,      /* J =  2 */
(PID.TID 0000.0001)                 1.374229146297914E+05,      /* J =  3 */
(PID.TID 0000.0001)                 1.665912582279823E+05,      /* J =  4 */
(PID.TID 0000.0001)                 1.949479859617814E+05,      /* J =  5 */
(PID.TID 0000.0001)                 2.223549467040777E+05,      /* J =  6 */
(PID.TID 0000.0001)                 2.486786164970726E+05,      /* J =  7 */
(PID.TID 0000.0001)                 2.737907490675810E+05,      /* J =  8 */
(PID.TID 0000.0001)                 2.975690006299821E+05,      /* J =  9 */
(PID.TID 0000.0001)                 3.198975259328452E+05,      /* J = 10 */
(PID.TID 0000.0001)                 3.406675426453503E+05,      /* J = 11 */
(PID.TID 0000.0001)                 3.597778613338690E+05,      /* J = 12 */
(PID.TID 0000.0001)                 3.771353784467131E+05,      /* J = 13 */
(PID.TID 0000.0001)                 3.926555299052806E+05,      /* J = 14 */
(PID.TID 0000.0001)                 4.062627030917454E+05,      /* J = 15 */
(PID.TID 0000.0001)                 4.178906052261313E+05,      /* J = 16 */
(PID.TID 0000.0001)                 4.274825863380723E+05,      /* J = 17 */
(PID.TID 0000.0001)                 4.349919152597734E+05,      /* J = 18 */
(PID.TID 0000.0001)                 4.403820072955634E+05,      /* J = 19 */
(PID.TID 0000.0001)                 4.436266024588540E+05,      /* J = 20 */
(PID.TID 0000.0001)                 4.447098934081552E+05,      /* J = 21 */
(PID.TID 0000.0001)                 4.436266024588540E+05,      /* J = 22 */
(PID.TID 0000.0001)                 4.403820072955634E+05,      /* J = 23 */
(PID.TID 0000.0001)                 4.349919152597734E+05,      /* J = 24 */
(PID.TID 0000.0001)                 4.274825863380723E+05,      /* J = 25 */
(PID.TID 0000.0001)                 4.178906052261313E+05,      /* J = 26 */
(PID.TID 0000.0001)                 4.062627030917454E+05,      /* J = 27 */
(PID.TID 0000.0001)                 3.926555299052806E+05,      /* J = 28 */
(PID.TID 0000.0001)                 3.771353784467131E+05,      /* J = 29 */
(PID.TID 0000.0001)                 3.597778613338690E+05,      /* J = 30 */
(PID.TID 0000.0001)                 3.406675426453503E+05,      /* J = 31 */
(PID.TID 0000.0001)                 3.198975259328452E+05,      /* J = 32 */
(PID.TID 0000.0001)                 2.975690006299821E+05,      /* J = 33 */
(PID.TID 0000.0001)                 2.737907490675810E+05,      /* J = 34 */
(PID.TID 0000.0001)                 2.486786164970726E+05,      /* J = 35 */
(PID.TID 0000.0001)                 2.223549467040777E+05,      /* J = 36 */
(PID.TID 0000.0001)                 1.949479859617814E+05,      /* J = 37 */
(PID.TID 0000.0001)                 1.665912582279823E+05,      /* J = 38 */
(PID.TID 0000.0001)                 1.374229146297914E+05,      /* J = 39 */
(PID.TID 0000.0001)                 1.075850604052271E+05       /* J = 40 */
(PID.TID 0000.0001)     ;
(PID.TID 0000.0001) dyG =  /* dyG(:,1,:,1) ( units: m ) */
(PID.TID 0000.0001)    90 @  4.447098934081552E+05              /* I =  1: 90 */
(PID.TID 0000.0001)     ;
(PID.TID 0000.0001) dyG =  /* dyG(1,:,1,:) ( units: m ) */
(PID.TID 0000.0001)    40 @  4.447098934081552E+05              /* J =  1: 40 */
(PID.TID 0000.0001)     ;
(PID.TID 0000.0001) dxC =  /* dxC(:,1,:,1) ( units: m ) */
(PID.TID 0000.0001)    90 @  9.246038586187513E+04              /* I =  1: 90 */
(PID.TID 0000.0001)     ;
(PID.TID 0000.0001) dxC =  /* dxC(1,:,1,:) ( units: m ) */
(PID.TID 0000.0001)                 9.246038586187513E+04,      /* J =  1 */
(PID.TID 0000.0001)                 1.225786591246834E+05,      /* J =  2 */
(PID.TID 0000.0001)                 1.520997414818001E+05,      /* J =  3 */
(PID.TID 0000.0001)                 1.808798091874300E+05,      /* J =  4 */
(PID.TID 0000.0001)                 2.087786486446736E+05,      /* J =  5 */
(PID.TID 0000.0001)                 2.356603395120765E+05,      /* J =  6 */
(PID.TID 0000.0001)                 2.613939168938713E+05,      /* J =  7 */
(PID.TID 0000.0001)                 2.858540093877838E+05,      /* J =  8 */
(PID.TID 0000.0001)                 3.089214498819034E+05,      /* J =  9 */
(PID.TID 0000.0001)                 3.304838561248741E+05,      /* J = 10 */
(PID.TID 0000.0001)                 3.504361782409254E+05,      /* J = 11 */
(PID.TID 0000.0001)                 3.686812105223082E+05,      /* J = 12 */
(PID.TID 0000.0001)                 3.851300650057323E+05,      /* J = 13 */
(PID.TID 0000.0001)                 3.997026045255871E+05,      /* J = 14 */
(PID.TID 0000.0001)                 4.123278331341585E+05,      /* J = 15 */
(PID.TID 0000.0001)                 4.229442419867491E+05,      /* J = 16 */
(PID.TID 0000.0001)                 4.315001090065870E+05,      /* J = 17 */
(PID.TID 0000.0001)                 4.379537508695838E+05,      /* J = 18 */
(PID.TID 0000.0001)                 4.422737260813012E+05,      /* J = 19 */
(PID.TID 0000.0001)     2 @  4.444389881567502E+05,             /* J = 20: 21 */
(PID.TID 0000.0001)                 4.422737260813012E+05,      /* J = 22 */
(PID.TID 0000.0001)                 4.379537508695838E+05,      /* J = 23 */
(PID.TID 0000.0001)                 4.315001090065870E+05,      /* J = 24 */
(PID.TID 0000.0001)                 4.229442419867491E+05,      /* J = 25 */
(PID.TID 0000.0001)                 4.123278331341585E+05,      /* J = 26 */
(PID.TID 0000.0001)                 3.997026045255871E+05,      /* J = 27 */
(PID.TID 0000.0001)                 3.851300650057323E+05,      /* J = 28 */
(PID.TID 0000.0001)                 3.686812105223082E+05,      /* J = 29 */
(PID.TID 0000.0001)                 3.504361782409254E+05,      /* J = 30 */
(PID.TID 0000.0001)                 3.304838561248741E+05,      /* J = 31 */
(PID.TID 0000.0001)                 3.089214498819034E+05,      /* J = 32 */
(PID.TID 0000.0001)                 2.858540093877838E+05,      /* J = 33 */
(PID.TID 0000.0001)                 2.613939168938713E+05,      /* J = 34 */
(PID.TID 0000.0001)                 2.356603395120765E+05,      /* J = 35 */
(PID.TID 0000.0001)                 2.087786486446736E+05,      /* J = 36 */
(PID.TID 0000.0001)                 1.808798091874300E+05,      /* J = 37 */
(PID.TID 0000.0001)                 1.520997414818001E+05,      /* J = 38 */
(PID.TID 0000.0001)                 1.225786591246834E+05,      /* J = 39 */
(PID.TID 0000.0001)                 9.246038586187513E+04       /* J = 40 */
(PID.TID 0000.0001)     ;
(PID.TID 0000.0001) dyC =  /* dyC(:,1,:,1) ( units: m ) */
(PID.TID 0000.0001)    90 @  4.447098934081552E+05              /* I =  1: 90 */
(PID.TID 0000.0001)     ;
(PID.TID 0000.0001) dyC =  /* dyC(1,:,1,:) ( units: m ) */
(PID.TID 0000.0001)    40 @  4.447098934081552E+05              /* J =  1: 40 */
(PID.TID 0000.0001)     ;
(PID.TID 0000.0001) dxV =  /* dxV(:,1,:,1) ( units: m ) */
(PID.TID 0000.0001)    90 @  7.722306258078101E+04              /* I =  1: 90 */
(PID.TID 0000.0001)     ;
(PID.TID 0000.0001) dxV =  /* dxV(1,:,1,:) ( units: m ) */
(PID.TID 0000.0001)                 7.722306258078101E+04,      /* J =  1 */
(PID.TID 0000.0001)                 1.075850604052271E+05,      /* J =  2 */
(PID.TID 0000.0001)                 1.374229146297914E+05,      /* J =  3 */
(PID.TID 0000.0001)                 1.665912582279823E+05,      /* J =  4 */
(PID.TID 0000.0001)                 1.949479859617814E+05,      /* J =  5 */
(PID.TID 0000.0001)                 2.223549467040777E+05,      /* J =  6 */
(PID.TID 0000.0001)                 2.486786164970726E+05,      /* J =  7 */
(PID.TID 0000.0001)                 2.737907490675810E+05,      /* J =  8 */
(PID.TID 0000.0001)                 2.975690006299821E+05,      /* J =  9 */
(PID.TID 0000.0001)                 3.198975259328452E+05,      /* J = 10 */
(PID.TID 0000.0001)                 3.406675426453503E+05,      /* J = 11 */
(PID.TID 0000.0001)                 3.597778613338690E+05,      /* J = 12 */
(PID.TID 0000.0001)                 3.771353784467131E+05,      /* J = 13 */
(PID.TID 0000.0001)                 3.926555299052806E+05,      /* J = 14 */
(PID.TID 0000.0001)                 4.062627030917454E+05,      /* J = 15 */
(PID.TID 0000.0001)                 4.178906052261313E+05,      /* J = 16 */
(PID.TID 0000.0001)                 4.274825863380723E+05,      /* J = 17 */
(PID.TID 0000.0001)                 4.349919152597734E+05,      /* J = 18 */
(PID.TID 0000.0001)                 4.403820072955634E+05,      /* J = 19 */
(PID.TID 0000.0001)                 4.436266024588540E+05,      /* J = 20 */
(PID.TID 0000.0001)                 4.447098934081552E+05,      /* J = 21 */
(PID.TID 0000.0001)                 4.436266024588540E+05,      /* J = 22 */
(PID.TID 0000.0001)                 4.403820072955634E+05,      /* J = 23 */
(PID.TID 0000.0001)                 4.349919152597734E+05,      /* J = 24 */
(PID.TID 0000.0001)                 4.274825863380723E+05,      /* J = 25 */
(PID.TID 0000.0001)                 4.178906052261313E+05,      /* J = 26 */
(PID.TID 0000.0001)                 4.062627030917454E+05,      /* J = 27 */
(PID.TID 0000.0001)                 3.926555299052806E+05,      /* J = 28 */
(PID.TID 0000.0001)                 3.771353784467131E+05,      /* J = 29 */
(PID.TID 0000.0001)                 3.597778613338690E+05,      /* J = 30 */
(PID.TID 0000.0001)                 3.406675426453503E+05,      /* J = 31 */
(PID.TID 0000.0001)                 3.198975259328452E+05,      /* J = 32 */
(PID.TID 0000.0001)                 2.975690006299821E+05,      /* J = 33 */
(PID.TID 0000.0001)                 2.737907490675810E+05,      /* J = 34 */
(PID.TID 0000.0001)                 2.486786164970726E+05,      /* J = 35 */
(PID.TID 0000.0001)                 2.223549467040777E+05,      /* J = 36 */
(PID.TID 0000.0001)                 1.949479859617814E+05,      /* J = 37 */
(PID.TID 0000.0001)                 1.665912582279823E+05,      /* J = 38 */
(PID.TID 0000.0001)                 1.374229146297914E+05,      /* J = 39 */
(PID.TID 0000.0001)                 1.075850604052271E+05       /* J = 40 */
(PID.TID 0000.0001)     ;
(PID.TID 0000.0001) dyU =  /* dyU(:,1,:,1) ( units: m ) */
(PID.TID 0000.0001)    90 @  4.447098934081552E+05              /* I =  1: 90 */
(PID.TID 0000.0001)     ;
(PID.TID 0000.0001) dyU =  /* dyU(1,:,1,:) ( units: m ) */
(PID.TID 0000.0001)    40 @  4.447098934081552E+05              /* J =  1: 40 */
(PID.TID 0000.0001)     ;
(PID.TID 0000.0001) rA  =  /* rA (:,1,:,1) ( units: m^2 ) */
(PID.TID 0000.0001)    90 @  4.110969866729047E+10              /* I =  1: 90 */
(PID.TID 0000.0001)     ;
(PID.TID 0000.0001) rA  =  /* rA (1,:,1,:) ( units: m^2 ) */
(PID.TID 0000.0001)                 4.110969866729047E+10,      /* J =  1 */
(PID.TID 0000.0001)                 5.450087291636665E+10,      /* J =  2 */
(PID.TID 0000.0001)                 6.762652439100235E+10,      /* J =  3 */
(PID.TID 0000.0001)                 8.042270623659998E+10,      /* J =  4 */
(PID.TID 0000.0001)                 9.282707674147523E+10,      /* J =  5 */
(PID.TID 0000.0001)                 1.047792030594103E+11,      /* J =  6 */
(PID.TID 0000.0001)                 1.162208556324093E+11,      /* J =  7 */
(PID.TID 0000.0001)                 1.270962918792468E+11,      /* J =  8 */
(PID.TID 0000.0001)                 1.373525277677229E+11,      /* J =  9 */
(PID.TID 0000.0001)                 1.469395959475426E+11,      /* J = 10 */
(PID.TID 0000.0001)                 1.558107891862220E+11,      /* J = 11 */
(PID.TID 0000.0001)                 1.639228879220326E+11,      /* J = 12 */
(PID.TID 0000.0001)                 1.712363708253573E+11,      /* J = 13 */
(PID.TID 0000.0001)                 1.777156073426415E+11,      /* J = 14 */
(PID.TID 0000.0001)                 1.833290312848623E+11,      /* J = 15 */
(PID.TID 0000.0001)                 1.880492946148330E+11,      /* J = 16 */
(PID.TID 0000.0001)                 1.918534006840893E+11,      /* J = 17 */
(PID.TID 0000.0001)                 1.947228162702492E+11,      /* J = 18 */
(PID.TID 0000.0001)                 1.966435618690094E+11,      /* J = 19 */
(PID.TID 0000.0001)     2 @  1.976062798008856E+11,             /* J = 20: 21 */
(PID.TID 0000.0001)                 1.966435618690094E+11,      /* J = 22 */
(PID.TID 0000.0001)                 1.947228162702492E+11,      /* J = 23 */
(PID.TID 0000.0001)                 1.918534006840893E+11,      /* J = 24 */
(PID.TID 0000.0001)                 1.880492946148330E+11,      /* J = 25 */
(PID.TID 0000.0001)                 1.833290312848623E+11,      /* J = 26 */
(PID.TID 0000.0001)                 1.777156073426415E+11,      /* J = 27 */
(PID.TID 0000.0001)                 1.712363708253573E+11,      /* J = 28 */
(PID.TID 0000.0001)                 1.639228879220326E+11,      /* J = 29 */
(PID.TID 0000.0001)                 1.558107891862220E+11,      /* J = 30 */
(PID.TID 0000.0001)                 1.469395959475426E+11,      /* J = 31 */
(PID.TID 0000.0001)                 1.373525277677229E+11,      /* J = 32 */
(PID.TID 0000.0001)                 1.270962918792468E+11,      /* J = 33 */
(PID.TID 0000.0001)                 1.162208556324093E+11,      /* J = 34 */
(PID.TID 0000.0001)                 1.047792030594103E+11,      /* J = 35 */
(PID.TID 0000.0001)                 9.282707674147523E+10,      /* J = 36 */
(PID.TID 0000.0001)                 8.042270623659998E+10,      /* J = 37 */
(PID.TID 0000.0001)                 6.762652439100235E+10,      /* J = 38 */
(PID.TID 0000.0001)                 5.450087291636665E+10,      /* J = 39 */
(PID.TID 0000.0001)                 4.110969866729047E+10       /* J = 40 */
(PID.TID 0000.0001)     ;
(PID.TID 0000.0001) rAw =  /* rAw(:,1,:,1) ( units: m^2 ) */
(PID.TID 0000.0001)    90 @  4.110969866729047E+10              /* I =  1: 90 */
(PID.TID 0000.0001)     ;
(PID.TID 0000.0001) rAw =  /* rAw(1,:,1,:) ( units: m^2 ) */
(PID.TID 0000.0001)                 4.110969866729047E+10,      /* J =  1 */
(PID.TID 0000.0001)                 5.450087291636665E+10,      /* J =  2 */
(PID.TID 0000.0001)                 6.762652439100235E+10,      /* J =  3 */
(PID.TID 0000.0001)                 8.042270623659998E+10,      /* J =  4 */
(PID.TID 0000.0001)                 9.282707674147523E+10,      /* J =  5 */
(PID.TID 0000.0001)                 1.047792030594103E+11,      /* J =  6 */
(PID.TID 0000.0001)                 1.162208556324093E+11,      /* J =  7 */
(PID.TID 0000.0001)                 1.270962918792468E+11,      /* J =  8 */
(PID.TID 0000.0001)                 1.373525277677229E+11,      /* J =  9 */
(PID.TID 0000.0001)                 1.469395959475426E+11,      /* J = 10 */
(PID.TID 0000.0001)                 1.558107891862220E+11,      /* J = 11 */
(PID.TID 0000.0001)                 1.639228879220326E+11,      /* J = 12 */
(PID.TID 0000.0001)                 1.712363708253573E+11,      /* J = 13 */
(PID.TID 0000.0001)                 1.777156073426415E+11,      /* J = 14 */
(PID.TID 0000.0001)                 1.833290312848623E+11,      /* J = 15 */
(PID.TID 0000.0001)                 1.880492946148330E+11,      /* J = 16 */
(PID.TID 0000.0001)                 1.918534006840893E+11,      /* J = 17 */
(PID.TID 0000.0001)                 1.947228162702492E+11,      /* J = 18 */
(PID.TID 0000.0001)                 1.966435618690094E+11,      /* J = 19 */
(PID.TID 0000.0001)     2 @  1.976062798008856E+11,             /* J = 20: 21 */
(PID.TID 0000.0001)                 1.966435618690094E+11,      /* J = 22 */
(PID.TID 0000.0001)                 1.947228162702492E+11,      /* J = 23 */
(PID.TID 0000.0001)                 1.918534006840893E+11,      /* J = 24 */
(PID.TID 0000.0001)                 1.880492946148330E+11,      /* J = 25 */
(PID.TID 0000.0001)                 1.833290312848623E+11,      /* J = 26 */
(PID.TID 0000.0001)                 1.777156073426415E+11,      /* J = 27 */
(PID.TID 0000.0001)                 1.712363708253573E+11,      /* J = 28 */
(PID.TID 0000.0001)                 1.639228879220326E+11,      /* J = 29 */
(PID.TID 0000.0001)                 1.558107891862220E+11,      /* J = 30 */
(PID.TID 0000.0001)                 1.469395959475426E+11,      /* J = 31 */
(PID.TID 0000.0001)                 1.373525277677229E+11,      /* J = 32 */
(PID.TID 0000.0001)                 1.270962918792468E+11,      /* J = 33 */
(PID.TID 0000.0001)                 1.162208556324093E+11,      /* J = 34 */
(PID.TID 0000.0001)                 1.047792030594103E+11,      /* J = 35 */
(PID.TID 0000.0001)                 9.282707674147523E+10,      /* J = 36 */
(PID.TID 0000.0001)                 8.042270623659998E+10,      /* J = 37 */
(PID.TID 0000.0001)                 6.762652439100235E+10,      /* J = 38 */
(PID.TID 0000.0001)                 5.450087291636665E+10,      /* J = 39 */
(PID.TID 0000.0001)                 4.110969866729047E+10       /* J = 40 */
(PID.TID 0000.0001)     ;
(PID.TID 0000.0001) rAs =  /* rAs(:,1,:,1) ( units: m^2 ) */
(PID.TID 0000.0001)    90 @  3.433488626798250E+10              /* I =  1: 90 */
(PID.TID 0000.0001)     ;
(PID.TID 0000.0001) rAs =  /* rAs(1,:,1,:) ( units: m^2 ) */
(PID.TID 0000.0001)                 3.433488626798250E+10,      /* J =  1 */
(PID.TID 0000.0001)                 4.783442523123625E+10,      /* J =  2 */
(PID.TID 0000.0001)                 6.110091968306414E+10,      /* J =  3 */
(PID.TID 0000.0001)                 7.406973659603818E+10,      /* J =  4 */
(PID.TID 0000.0001)                 8.667769319778079E+10,      /* J =  5 */
(PID.TID 0000.0001)                 9.886336479107463E+10,      /* J =  6 */
(PID.TID 0000.0001)                 1.105673840088173E+11,      /* J =  7 */
(PID.TID 0000.0001)                 1.217327300458638E+11,      /* J =  8 */
(PID.TID 0000.0001)                 1.323050064586578E+11,      /* J =  9 */
(PID.TID 0000.0001)                 1.422327061792377E+11,      /* J = 10 */
(PID.TID 0000.0001)                 1.514674624524945E+11,      /* J = 11 */
(PID.TID 0000.0001)                 1.599642844741385E+11,      /* J = 12 */
(PID.TID 0000.0001)                 1.676817765813788E+11,      /* J = 13 */
(PID.TID 0000.0001)                 1.745823399284268E+11,      /* J = 14 */
(PID.TID 0000.0001)                 1.806323556642996E+11,      /* J = 15 */
(PID.TID 0000.0001)                 1.858023487204767E+11,      /* J = 16 */
(PID.TID 0000.0001)                 1.900671314104743E+11,      /* J = 17 */
(PID.TID 0000.0001)                 1.934059261417216E+11,      /* J = 18 */
(PID.TID 0000.0001)                 1.958024666419019E+11,      /* J = 19 */
(PID.TID 0000.0001)                 1.972450772065981E+11,      /* J = 20 */
(PID.TID 0000.0001)                 1.977267295821495E+11,      /* J = 21 */
(PID.TID 0000.0001)                 1.972450772065981E+11,      /* J = 22 */
(PID.TID 0000.0001)                 1.958024666419019E+11,      /* J = 23 */
(PID.TID 0000.0001)                 1.934059261417216E+11,      /* J = 24 */
(PID.TID 0000.0001)                 1.900671314104743E+11,      /* J = 25 */
(PID.TID 0000.0001)                 1.858023487204767E+11,      /* J = 26 */
(PID.TID 0000.0001)                 1.806323556642996E+11,      /* J = 27 */
(PID.TID 0000.0001)                 1.745823399284268E+11,      /* J = 28 */
(PID.TID 0000.0001)                 1.676817765813788E+11,      /* J = 29 */
(PID.TID 0000.0001)                 1.599642844741385E+11,      /* J = 30 */
(PID.TID 0000.0001)                 1.514674624524945E+11,      /* J = 31 */
(PID.TID 0000.0001)                 1.422327061792377E+11,      /* J = 32 */
(PID.TID 0000.0001)                 1.323050064586578E+11,      /* J = 33 */
(PID.TID 0000.0001)                 1.217327300458638E+11,      /* J = 34 */
(PID.TID 0000.0001)                 1.105673840088173E+11,      /* J = 35 */
(PID.TID 0000.0001)                 9.886336479107463E+10,      /* J = 36 */
(PID.TID 0000.0001)                 8.667769319778079E+10,      /* J = 37 */
(PID.TID 0000.0001)                 7.406973659603818E+10,      /* J = 38 */
(PID.TID 0000.0001)                 6.110091968306414E+10,      /* J = 39 */
(PID.TID 0000.0001)                 4.783442523123625E+10       /* J = 40 */
(PID.TID 0000.0001)     ;
(PID.TID 0000.0001) globalArea = /* Integrated horizontal Area (m^2) */
(PID.TID 0000.0001)                 3.335490855875278E+14
(PID.TID 0000.0001)     ;
(PID.TID 0000.0001) // =======================================================
(PID.TID 0000.0001) // End of Model config. summary
(PID.TID 0000.0001) // =======================================================
(PID.TID 0000.0001) 
(PID.TID 0000.0001) == Packages configuration : Check & print summary ==
(PID.TID 0000.0001) 
(PID.TID 0000.0001) GMREDI_CHECK: #define GMREDI
(PID.TID 0000.0001) GM_AdvForm =     /* if FALSE => use SkewFlux Form */
(PID.TID 0000.0001)                   F
(PID.TID 0000.0001)     ;
(PID.TID 0000.0001) GM_InMomAsStress = /* if TRUE => apply as Eddy Stress */
(PID.TID 0000.0001)                   F
(PID.TID 0000.0001)     ;
(PID.TID 0000.0001) GM_AdvSeparate = /* Calc Bolus & Euler Adv. separately */
(PID.TID 0000.0001)                   F
(PID.TID 0000.0001)     ;
(PID.TID 0000.0001) GM_ExtraDiag =   /* Tensor Extra Diag (line 1&2) non 0 */
(PID.TID 0000.0001)                   F
(PID.TID 0000.0001)     ;
(PID.TID 0000.0001) GM_isopycK =    /* Background Isopyc. Diffusivity [m^2/s] */
(PID.TID 0000.0001)                 1.000000000000000E+03
(PID.TID 0000.0001)     ;
(PID.TID 0000.0001) GM_advec*K =    /* Backg. GM-Advec(=Bolus) Diffusivity [m^2/s] */
(PID.TID 0000.0001)                 0.000000000000000E+00
(PID.TID 0000.0001)     ;
(PID.TID 0000.0001) GM_skewflx*K =  /* Background GM_SkewFlx Diffusivity [m^2/s] */
(PID.TID 0000.0001)                 1.000000000000000E+03
(PID.TID 0000.0001)     ;
(PID.TID 0000.0001) GM_isoFac_calcK = /* Fraction of dynamic K added to Redi tensor */
(PID.TID 0000.0001)                 1.000000000000000E+00
(PID.TID 0000.0001)     ;
(PID.TID 0000.0001) GM_Kmin_horiz = /* Minimum Horizontal Diffusivity [m^2/s] */
(PID.TID 0000.0001)                 5.000000000000000E+01
(PID.TID 0000.0001)     ;
(PID.TID 0000.0001) GM_Visbeck_alpha = /* Visbeck alpha coeff. [-] */
(PID.TID 0000.0001)                 0.000000000000000E+00
(PID.TID 0000.0001)     ;
(PID.TID 0000.0001) GM_Small_Number =  /* epsilon used in slope calc */
(PID.TID 0000.0001)                 9.999999999999999E-21
(PID.TID 0000.0001)     ;
(PID.TID 0000.0001) GM_slopeSqCutoff = /* Slope^2 cut-off value */
(PID.TID 0000.0001)                 1.000000000000000E+48
(PID.TID 0000.0001)     ;
(PID.TID 0000.0001) GM_taper_scheme =  /* Type of Tapering/Clipping scheme */
(PID.TID 0000.0001)               'gkw91                                   '
(PID.TID 0000.0001)     ;
(PID.TID 0000.0001) GM_maxSlope =  /* Maximum Slope (Tapering/Clipping) */
(PID.TID 0000.0001)                 1.000000000000000E-02
(PID.TID 0000.0001)     ;
(PID.TID 0000.0001) GM_facTrL2dz = /* Minimum Trans.Layer Thick. (factor of dz) */
(PID.TID 0000.0001)                 1.000000000000000E+00
(PID.TID 0000.0001)     ;
(PID.TID 0000.0001) GM_facTrL2ML = /* Max.Trans.Layer Thick. (factor of MxL Depth)*/
(PID.TID 0000.0001)                 5.000000000000000E+00
(PID.TID 0000.0001)     ;
(PID.TID 0000.0001) GM_maxTransLay = /* Maximum Transition Layer Thickness [m] */
(PID.TID 0000.0001)                 5.000000000000000E+02
(PID.TID 0000.0001)     ;
(PID.TID 0000.0001) GM_UseBVP = /* if TRUE => use bvp a la Ferrari et al. (2010) */
(PID.TID 0000.0001)                   F
(PID.TID 0000.0001)     ;
(PID.TID 0000.0001) GM_BVP_ModeNumber = /* Vertical mode number for BVP wave speed */
(PID.TID 0000.0001)                       1
(PID.TID 0000.0001)     ;
(PID.TID 0000.0001) GM_BVP_cMin = /* Minimum wave speed for BVP [m/s] */
(PID.TID 0000.0001)                 1.000000000000000E-01
(PID.TID 0000.0001)     ;
(PID.TID 0000.0001) GM_useSubMeso = /* if TRUE => use Sub-Meso param. (B.Fox-Kemper) */
(PID.TID 0000.0001)                   F
(PID.TID 0000.0001)     ;
(PID.TID 0000.0001) subMeso_Ceff = /* efficiency coeff. of Mixed-Layer Eddies [-] */
(PID.TID 0000.0001)                 7.000000000000001E-02
(PID.TID 0000.0001)     ;
(PID.TID 0000.0001) subMeso_invTau = /* inverse of Sub-Meso mixing time-scale [/s] */
(PID.TID 0000.0001)                 2.000000000000000E-06
(PID.TID 0000.0001)     ;
(PID.TID 0000.0001) subMeso_LfMin = /* minimum length-scale "Lf" [m] */
(PID.TID 0000.0001)                 1.000000000000000E+03
(PID.TID 0000.0001)     ;
(PID.TID 0000.0001) subMeso_Lmax = /* maximum grid-scale length [m] */
(PID.TID 0000.0001)                 1.100000000000000E+05
(PID.TID 0000.0001)     ;
(PID.TID 0000.0001) GM_useLeithQG = /* if TRUE => add QG Leith viscosity to GMRedi tensor */
(PID.TID 0000.0001)                   F
(PID.TID 0000.0001)     ;
(PID.TID 0000.0001) GM_useGEOM = /* using GEOMETRIC */
(PID.TID 0000.0001)                   F
(PID.TID 0000.0001)     ;
(PID.TID 0000.0001) GAD_CHECK: #define ALLOW_GENERIC_ADVDIFF
(PID.TID 0000.0001) // =======================================================
(PID.TID 0000.0001) // Check Model config. (CONFIG_CHECK):
(PID.TID 0000.0001) // CONFIG_CHECK : Normal End
(PID.TID 0000.0001) // =======================================================
(PID.TID 0000.0001) 
(PID.TID 0000.0001)  MDS_READ_FIELD: opening global file: Lev_clim_theta.bin
(PID.TID 0000.0001)  MDS_READ_FIELD: opening global file: Lev_clim_salt.bin
(PID.TID 0000.0001) Start initial hydrostatic pressure computation
(PID.TID 0000.0001) Pressure is predetermined for buoyancyRelation OCEANIC
(PID.TID 0000.0001) 
(PID.TID 0000.0001)  MDS_READ_FIELD: opening global file: Taux.bin
(PID.TID 0000.0001)  MDS_READ_FIELD: opening global file: Tauy.bin
(PID.TID 0000.0001)  MDS_READ_FIELD: opening global file: SSS.bin
(PID.TID 0000.0001)  MDS_READ_FIELD: opening global file: Runoff.bin
(PID.TID 0000.0001) // =======================================================
(PID.TID 0000.0001) // Model current state
(PID.TID 0000.0001) // =======================================================
(PID.TID 0000.0001) 
(PID.TID 0000.0001) // =======================================================
(PID.TID 0000.0001) // Begin MONITOR dynamic field statistics
(PID.TID 0000.0001) // =======================================================
(PID.TID 0000.0001) %MON time_tsnumber                =                     0
(PID.TID 0000.0001) %MON time_secondsf                =   0.0000000000000E+00
(PID.TID 0000.0001) %MON dynstat_eta_max              =   0.0000000000000E+00
(PID.TID 0000.0001) %MON dynstat_eta_min              =   0.0000000000000E+00
(PID.TID 0000.0001) %MON dynstat_eta_mean             =   0.0000000000000E+00
(PID.TID 0000.0001) %MON dynstat_eta_sd               =   0.0000000000000E+00
(PID.TID 0000.0001) %MON dynstat_eta_del2             =   0.0000000000000E+00
(PID.TID 0000.0001) %MON dynstat_uvel_max             =   0.0000000000000E+00
(PID.TID 0000.0001) %MON dynstat_uvel_min             =   0.0000000000000E+00
(PID.TID 0000.0001) %MON dynstat_uvel_mean            =   0.0000000000000E+00
(PID.TID 0000.0001) %MON dynstat_uvel_sd              =   0.0000000000000E+00
(PID.TID 0000.0001) %MON dynstat_uvel_del2            =   0.0000000000000E+00
(PID.TID 0000.0001) %MON dynstat_vvel_max             =   0.0000000000000E+00
(PID.TID 0000.0001) %MON dynstat_vvel_min             =   0.0000000000000E+00
(PID.TID 0000.0001) %MON dynstat_vvel_mean            =   0.0000000000000E+00
(PID.TID 0000.0001) %MON dynstat_vvel_sd              =   0.0000000000000E+00
(PID.TID 0000.0001) %MON dynstat_vvel_del2            =   0.0000000000000E+00
(PID.TID 0000.0001) %MON dynstat_wvel_max             =  -0.0000000000000E+00
(PID.TID 0000.0001) %MON dynstat_wvel_min             =  -0.0000000000000E+00
(PID.TID 0000.0001) %MON dynstat_wvel_mean            =   0.0000000000000E+00
(PID.TID 0000.0001) %MON dynstat_wvel_sd              =   0.0000000000000E+00
(PID.TID 0000.0001) %MON dynstat_wvel_del2            =   0.0000000000000E+00
(PID.TID 0000.0001) %MON dynstat_theta_max            =   2.9329580307007E+01
(PID.TID 0000.0001) %MON dynstat_theta_min            =  -1.8507585525513E+00
(PID.TID 0000.0001) %MON dynstat_theta_mean           =   3.4385862740247E+00
(PID.TID 0000.0001) %MON dynstat_theta_sd             =   4.1126810597649E+00
(PID.TID 0000.0001) %MON dynstat_theta_del2           =   5.2167403232001E-03
(PID.TID 0000.0001) %MON dynstat_salt_max             =   3.7439460754395E+01
(PID.TID 0000.0001) %MON dynstat_salt_min             =   3.1028352737427E+01
(PID.TID 0000.0001) %MON dynstat_salt_mean            =   3.4715046474651E+01
(PID.TID 0000.0001) %MON dynstat_salt_sd              =   2.7634376761930E-01
(PID.TID 0000.0001) %MON dynstat_salt_del2            =   8.6201567836572E-04
(PID.TID 0000.0001) %MON forcing_qnet_max             =   0.0000000000000E+00
(PID.TID 0000.0001) %MON forcing_qnet_min             =   0.0000000000000E+00
(PID.TID 0000.0001) %MON forcing_qnet_mean            =   0.0000000000000E+00
(PID.TID 0000.0001) %MON forcing_qnet_sd              =   0.0000000000000E+00
(PID.TID 0000.0001) %MON forcing_qnet_del2            =   0.0000000000000E+00
(PID.TID 0000.0001) %MON forcing_qsw_max              =   0.0000000000000E+00
(PID.TID 0000.0001) %MON forcing_qsw_min              =   0.0000000000000E+00
(PID.TID 0000.0001) %MON forcing_qsw_mean             =   0.0000000000000E+00
(PID.TID 0000.0001) %MON forcing_qsw_sd               =   0.0000000000000E+00
(PID.TID 0000.0001) %MON forcing_qsw_del2             =   0.0000000000000E+00
(PID.TID 0000.0001) %MON forcing_empmr_max            =   0.0000000000000E+00
(PID.TID 0000.0001) %MON forcing_empmr_min            =   0.0000000000000E+00
(PID.TID 0000.0001) %MON forcing_empmr_mean           =   0.0000000000000E+00
(PID.TID 0000.0001) %MON forcing_empmr_sd             =   0.0000000000000E+00
(PID.TID 0000.0001) %MON forcing_empmr_del2           =   0.0000000000000E+00
(PID.TID 0000.0001) %MON forcing_fu_max               =   1.6004334390163E-01
(PID.TID 0000.0001) %MON forcing_fu_min               =  -1.0329221189022E-01
(PID.TID 0000.0001) %MON forcing_fu_mean              =   4.1280488583042E-03
(PID.TID 0000.0001) %MON forcing_fu_sd                =   5.5800359441598E-02
(PID.TID 0000.0001) %MON forcing_fu_del2              =   3.2370368543278E-04
(PID.TID 0000.0001) %MON forcing_fv_max               =   8.4633164107800E-02
(PID.TID 0000.0001) %MON forcing_fv_min               =  -7.0490099489689E-02
(PID.TID 0000.0001) %MON forcing_fv_mean              =   2.8803575798275E-03
(PID.TID 0000.0001) %MON forcing_fv_sd                =   2.2193297771215E-02
(PID.TID 0000.0001) %MON forcing_fv_del2              =   2.1170835219132E-04
(PID.TID 0000.0001) %MON trAdv_CFL_u_max              =   0.0000000000000E+00
(PID.TID 0000.0001) %MON trAdv_CFL_v_max              =   0.0000000000000E+00
(PID.TID 0000.0001) %MON trAdv_CFL_w_max              =   0.0000000000000E+00
(PID.TID 0000.0001) %MON advcfl_uvel_max              =   0.0000000000000E+00
(PID.TID 0000.0001) %MON advcfl_vvel_max              =   0.0000000000000E+00
(PID.TID 0000.0001) %MON advcfl_wvel_max              =   0.0000000000000E+00
(PID.TID 0000.0001) %MON advcfl_W_hf_max              =   0.0000000000000E+00
(PID.TID 0000.0001) %MON pe_b_mean                    =   0.0000000000000E+00
(PID.TID 0000.0001) %MON ke_max                       =   0.0000000000000E+00
(PID.TID 0000.0001) %MON ke_mean                      =   0.0000000000000E+00
(PID.TID 0000.0001) %MON ke_vol                       =   1.4101703507225E+18
(PID.TID 0000.0001) %MON vort_r_min                   =   0.0000000000000E+00
(PID.TID 0000.0001) %MON vort_r_max                   =   0.0000000000000E+00
(PID.TID 0000.0001) %MON vort_a_mean                  =  -1.9976608796704E-05
(PID.TID 0000.0001) %MON vort_a_sd                    =   7.3718720794772E-05
(PID.TID 0000.0001) %MON vort_p_mean                  =  -2.3730263022063E-05
(PID.TID 0000.0001) %MON vort_p_sd                    =   1.0369776513329E-04
(PID.TID 0000.0001) %MON surfExpan_theta_mean         =   0.0000000000000E+00
(PID.TID 0000.0001) %MON surfExpan_salt_mean          =   0.0000000000000E+00
(PID.TID 0000.0001) // =======================================================
(PID.TID 0000.0001) // End MONITOR dynamic field statistics
(PID.TID 0000.0001) // =======================================================
 SH   5.2213892178558012        23.296536408581801     
 NH   10.477982531836687        25.564398561832434     
 SH   5.2213892178558012        23.296536408581801     
 NH   10.477982531836687        25.564398561832434     
 SH   5.2213892178558012        23.296536408581801     
 NH   10.477982531836687        25.564398561832434     
 SH   5.2213892178558012        23.296536408581801     
 NH   10.477982531836687        25.564398561832434     
 SH   5.2213892178558012        23.296536408581801     
 NH   10.477982531836687        25.564398561832434     
 SH   5.2213892178558012        23.296536408581801     
 NH   10.477982531836687        25.564398561832434     
(PID.TID 0000.0001) SOLVE_FOR_PRESSURE: putPmEinXvector =    F
 cg2d: Sum(rhs),rhsMax =   4.56487814491589E-03  7.56857183677435E+00
(PID.TID 0000.0001)      cg2d_init_res =   2.96825754374152E+00
(PID.TID 0000.0001)      cg2d_iters(min,last) =      -1      95
(PID.TID 0000.0001)      cg2d_last_res =   9.68064650966079E-14
(PID.TID 0000.0001) // =======================================================
(PID.TID 0000.0001) // Begin MONITOR dynamic field statistics
(PID.TID 0000.0001) // =======================================================
(PID.TID 0000.0001) %MON time_tsnumber                =                     1
(PID.TID 0000.0001) %MON time_secondsf                =   4.3200000000000E+04
(PID.TID 0000.0001) %MON dynstat_eta_max              =   1.1736845382492E+00
(PID.TID 0000.0001) %MON dynstat_eta_min              =  -6.1061116148053E-01
(PID.TID 0000.0001) %MON dynstat_eta_mean             =  -5.9304525380361E-05
(PID.TID 0000.0001) %MON dynstat_eta_sd               =   1.8075706190864E-01
(PID.TID 0000.0001) %MON dynstat_eta_del2             =   2.5404718732571E-03
(PID.TID 0000.0001) %MON dynstat_uvel_max             =   2.9639513361931E-02
(PID.TID 0000.0001) %MON dynstat_uvel_min             =  -5.2398302357292E-02
(PID.TID 0000.0001) %MON dynstat_uvel_mean            =  -3.0854644002477E-04
(PID.TID 0000.0001) %MON dynstat_uvel_sd              =   1.0693974409083E-03
(PID.TID 0000.0001) %MON dynstat_uvel_del2            =   1.3729327746868E-05
(PID.TID 0000.0001) %MON dynstat_vvel_max             =   4.5970363119441E-02
(PID.TID 0000.0001) %MON dynstat_vvel_min             =  -7.1168018451038E-02
(PID.TID 0000.0001) %MON dynstat_vvel_mean            =   6.8157742460439E-04
(PID.TID 0000.0001) %MON dynstat_vvel_sd              =   2.2174081583308E-03
(PID.TID 0000.0001) %MON dynstat_vvel_del2            =   1.6160255131998E-05
(PID.TID 0000.0001) %MON dynstat_wvel_max             =   2.0713199059729E-04
(PID.TID 0000.0001) %MON dynstat_wvel_min             =  -1.2808580646271E-04
(PID.TID 0000.0001) %MON dynstat_wvel_mean            =   1.4383020330057E-22
(PID.TID 0000.0001) %MON dynstat_wvel_sd              =   8.1938136638426E-06
(PID.TID 0000.0001) %MON dynstat_wvel_del2            =   1.0182047165768E-07
(PID.TID 0000.0001) %MON dynstat_theta_max            =   2.9312844900415E+01
(PID.TID 0000.0001) %MON dynstat_theta_min            =  -1.8502991284254E+00
(PID.TID 0000.0001) %MON dynstat_theta_mean           =   3.4385879792238E+00
(PID.TID 0000.0001) %MON dynstat_theta_sd             =   4.1125533541681E+00
(PID.TID 0000.0001) %MON dynstat_theta_del2           =   5.2116106719110E-03
(PID.TID 0000.0001) %MON dynstat_salt_max             =   3.7439939489452E+01
(PID.TID 0000.0001) %MON dynstat_salt_min             =   3.1029392905402E+01
(PID.TID 0000.0001) %MON dynstat_salt_mean            =   3.4715047037666E+01
(PID.TID 0000.0001) %MON dynstat_salt_sd              =   2.7633946897181E-01
(PID.TID 0000.0001) %MON dynstat_salt_del2            =   8.6146701961473E-04
(PID.TID 0000.0001) %MON forcing_qnet_max             =   1.3199679941600E+02
(PID.TID 0000.0001) %MON forcing_qnet_min             =  -3.5049627091214E+01
(PID.TID 0000.0001) %MON forcing_qnet_mean            =  -6.8984510202483E-01
(PID.TID 0000.0001) %MON forcing_qnet_sd              =   2.2692302782162E+01
(PID.TID 0000.0001) %MON forcing_qnet_del2            =   1.1257799519057E-01
(PID.TID 0000.0001) %MON forcing_qsw_max              =   0.0000000000000E+00
(PID.TID 0000.0001) %MON forcing_qsw_min              =   0.0000000000000E+00
(PID.TID 0000.0001) %MON forcing_qsw_mean             =   0.0000000000000E+00
(PID.TID 0000.0001) %MON forcing_qsw_sd               =   0.0000000000000E+00
(PID.TID 0000.0001) %MON forcing_qsw_del2             =   0.0000000000000E+00
(PID.TID 0000.0001) %MON forcing_empmr_max            =   3.7600374110707E-05
(PID.TID 0000.0001) %MON forcing_empmr_min            =  -2.9685016686068E-05
(PID.TID 0000.0001) %MON forcing_empmr_mean           =   1.4208375872388E-06
(PID.TID 0000.0001) %MON forcing_empmr_sd             =   1.1923373923198E-05
(PID.TID 0000.0001) %MON forcing_empmr_del2           =   7.4400852469101E-08
(PID.TID 0000.0001) %MON forcing_fu_max               =   1.6004334390163E-01
(PID.TID 0000.0001) %MON forcing_fu_min               =  -1.0329221189022E-01
(PID.TID 0000.0001) %MON forcing_fu_mean              =   4.1280488583042E-03
(PID.TID 0000.0001) %MON forcing_fu_sd                =   5.5800359441598E-02
(PID.TID 0000.0001) %MON forcing_fu_del2              =   3.2370368543278E-04
(PID.TID 0000.0001) %MON forcing_fv_max               =   8.4633164107800E-02
(PID.TID 0000.0001) %MON forcing_fv_min               =  -7.0490099489689E-02
(PID.TID 0000.0001) %MON forcing_fv_mean              =   2.8803575798275E-03
(PID.TID 0000.0001) %MON forcing_fv_sd                =   2.2193297771215E-02
(PID.TID 0000.0001) %MON forcing_fv_del2              =   2.1170835219132E-04
(PID.TID 0000.0001) %MON trAdv_CFL_u_max              =   0.0000000000000E+00
(PID.TID 0000.0001) %MON trAdv_CFL_v_max              =   0.0000000000000E+00
(PID.TID 0000.0001) %MON trAdv_CFL_w_max              =   0.0000000000000E+00
(PID.TID 0000.0001) %MON advcfl_uvel_max              =   5.1685974999426E-03
(PID.TID 0000.0001) %MON advcfl_vvel_max              =   6.9134022936232E-03
(PID.TID 0000.0001) %MON advcfl_wvel_max              =   4.6922416093800E-02
(PID.TID 0000.0001) %MON advcfl_W_hf_max              =   3.0015085740792E-02
(PID.TID 0000.0001) %MON pe_b_mean                    =   3.7906857325893E-05
(PID.TID 0000.0001) %MON ke_max                       =   1.4096650412454E-03
(PID.TID 0000.0001) %MON ke_mean                      =   3.0203659697274E-06
(PID.TID 0000.0001) %MON ke_vol                       =   1.4101703507225E+18
(PID.TID 0000.0001) %MON vort_r_min                   =  -1.6792450150902E-07
(PID.TID 0000.0001) %MON vort_r_max                   =   1.5951000007155E-07
(PID.TID 0000.0001) %MON vort_a_mean                  =  -1.9976608796704E-05
(PID.TID 0000.0001) %MON vort_a_sd                    =   7.3718651710844E-05
(PID.TID 0000.0001) %MON vort_p_mean                  =  -2.3730263022063E-05
(PID.TID 0000.0001) %MON vort_p_sd                    =   1.0369763376288E-04
(PID.TID 0000.0001) %MON surfExpan_theta_mean         =   2.4665994686965E-05
(PID.TID 0000.0001) %MON surfExpan_salt_mean          =   1.8683900588010E-06
(PID.TID 0000.0001) // =======================================================
(PID.TID 0000.0001) // End MONITOR dynamic field statistics
(PID.TID 0000.0001) // =======================================================
 SH   5.2201194813001734        23.297498110483730     
 NH   10.466538306882399        25.565240031177950     
 SH   5.2201194813001734        23.297498110483730     
 NH   10.466538306882399        25.565240031177950     
 SH   5.2201194813001734        23.297498110483730     
 NH   10.466538306882399        25.565240031177950     
 SH   5.2201194813001734        23.297498110483730     
 NH   10.466538306882399        25.565240031177950     
 SH   5.2201194813001734        23.297498110483730     
 NH   10.466538306882399        25.565240031177950     
 SH   5.2201194813001734        23.297498110483730     
 NH   10.466538306882399        25.565240031177950     
 cg2d: Sum(rhs),rhsMax =   1.29568706180694E-02  8.72180633145103E+00
(PID.TID 0000.0001)      cg2d_init_res =   4.86123043956483E-01
(PID.TID 0000.0001)      cg2d_iters(min,last) =      -1      92
(PID.TID 0000.0001)      cg2d_last_res =   8.46858191484648E-14
(PID.TID 0000.0001) // =======================================================
(PID.TID 0000.0001) // Begin MONITOR dynamic field statistics
(PID.TID 0000.0001) // =======================================================
(PID.TID 0000.0001) %MON time_tsnumber                =                     2
(PID.TID 0000.0001) %MON time_secondsf                =   8.6400000000000E+04
(PID.TID 0000.0001) %MON dynstat_eta_max              =   1.5128688619212E+00
(PID.TID 0000.0001) %MON dynstat_eta_min              =  -1.0176915063365E+00
(PID.TID 0000.0001) %MON dynstat_eta_mean             =  -1.1860905076078E-04
(PID.TID 0000.0001) %MON dynstat_eta_sd               =   3.4158824329799E-01
(PID.TID 0000.0001) %MON dynstat_eta_del2             =   2.8002232724611E-03
(PID.TID 0000.0001) %MON dynstat_uvel_max             =   6.2207214238416E-02
(PID.TID 0000.0001) %MON dynstat_uvel_min             =  -9.9961285563663E-02
(PID.TID 0000.0001) %MON dynstat_uvel_mean            =  -5.8699307245116E-04
(PID.TID 0000.0001) %MON dynstat_uvel_sd              =   2.1029325249139E-03
(PID.TID 0000.0001) %MON dynstat_uvel_del2            =   2.7356386120278E-05
(PID.TID 0000.0001) %MON dynstat_vvel_max             =   8.8300787642328E-02
(PID.TID 0000.0001) %MON dynstat_vvel_min             =  -1.3507302256775E-01
(PID.TID 0000.0001) %MON dynstat_vvel_mean            =   1.0302794832290E-03
(PID.TID 0000.0001) %MON dynstat_vvel_sd              =   3.7693119909376E-03
(PID.TID 0000.0001) %MON dynstat_vvel_del2            =   3.2048687521461E-05
(PID.TID 0000.0001) %MON dynstat_wvel_max             =   3.9756179178654E-04
(PID.TID 0000.0001) %MON dynstat_wvel_min             =  -2.5063097007125E-04
(PID.TID 0000.0001) %MON dynstat_wvel_mean            =   6.5345080018035E-23
(PID.TID 0000.0001) %MON dynstat_wvel_sd              =   1.4283588786888E-05
(PID.TID 0000.0001) %MON dynstat_wvel_del2            =   1.8630885353248E-07
(PID.TID 0000.0001) %MON dynstat_theta_max            =   2.9294047802532E+01
(PID.TID 0000.0001) %MON dynstat_theta_min            =  -1.8498031863846E+00
(PID.TID 0000.0001) %MON dynstat_theta_mean           =   3.4381864525340E+00
(PID.TID 0000.0001) %MON dynstat_theta_sd             =   4.1115891573882E+00
(PID.TID 0000.0001) %MON dynstat_theta_del2           =   5.1931297425994E-03
(PID.TID 0000.0001) %MON dynstat_salt_max             =   3.7440280115663E+01
(PID.TID 0000.0001) %MON dynstat_salt_min             =   3.1028963468988E+01
(PID.TID 0000.0001) %MON dynstat_salt_mean            =   3.4715017047178E+01
(PID.TID 0000.0001) %MON dynstat_salt_sd              =   2.7634387391740E-01
(PID.TID 0000.0001) %MON dynstat_salt_del2            =   8.6065408433251E-04
(PID.TID 0000.0001) %MON forcing_qnet_max             =   1.3078311401276E+02
(PID.TID 0000.0001) %MON forcing_qnet_min             =  -3.5027305383591E+01
(PID.TID 0000.0001) %MON forcing_qnet_mean            =  -6.9821893006719E-01
(PID.TID 0000.0001) %MON forcing_qnet_sd              =   2.2554382928799E+01
(PID.TID 0000.0001) %MON forcing_qnet_del2            =   1.1211932913852E-01
(PID.TID 0000.0001) %MON forcing_qsw_max              =   0.0000000000000E+00
(PID.TID 0000.0001) %MON forcing_qsw_min              =   0.0000000000000E+00
(PID.TID 0000.0001) %MON forcing_qsw_mean             =   0.0000000000000E+00
(PID.TID 0000.0001) %MON forcing_qsw_sd               =   0.0000000000000E+00
(PID.TID 0000.0001) %MON forcing_qsw_del2             =   0.0000000000000E+00
(PID.TID 0000.0001) %MON forcing_empmr_max            =   3.7600374110707E-05
(PID.TID 0000.0001) %MON forcing_empmr_min            =  -2.9685016686068E-05
(PID.TID 0000.0001) %MON forcing_empmr_mean           =   1.4208375872388E-06
(PID.TID 0000.0001) %MON forcing_empmr_sd             =   1.1923373923198E-05
(PID.TID 0000.0001) %MON forcing_empmr_del2           =   7.4400852469101E-08
(PID.TID 0000.0001) %MON forcing_fu_max               =   1.6004334390163E-01
(PID.TID 0000.0001) %MON forcing_fu_min               =  -1.0329221189022E-01
(PID.TID 0000.0001) %MON forcing_fu_mean              =   4.1280488583042E-03
(PID.TID 0000.0001) %MON forcing_fu_sd                =   5.5800359441598E-02
(PID.TID 0000.0001) %MON forcing_fu_del2              =   3.2370368543278E-04
(PID.TID 0000.0001) %MON forcing_fv_max               =   8.4633164107800E-02
(PID.TID 0000.0001) %MON forcing_fv_min               =  -7.0490099489689E-02
(PID.TID 0000.0001) %MON forcing_fv_mean              =   2.8803575798275E-03
(PID.TID 0000.0001) %MON forcing_fv_sd                =   2.2193297771215E-02
(PID.TID 0000.0001) %MON forcing_fv_del2              =   2.1170835219132E-04
(PID.TID 0000.0001) %MON trAdv_CFL_u_max              =   5.1003074868505E-03
(PID.TID 0000.0001) %MON trAdv_CFL_v_max              =   6.9707627895352E-03
(PID.TID 0000.0001) %MON trAdv_CFL_w_max              =   2.3461208046900E-02
(PID.TID 0000.0001) %MON advcfl_uvel_max              =   9.8602364468302E-03
(PID.TID 0000.0001) %MON advcfl_vvel_max              =   1.3121260987039E-02
(PID.TID 0000.0001) %MON advcfl_wvel_max              =   4.3745446904172E-02
(PID.TID 0000.0001) %MON advcfl_W_hf_max              =   4.6962023882420E-02
(PID.TID 0000.0001) %MON pe_b_mean                    =   1.3537331652518E-04
(PID.TID 0000.0001) %MON ke_max                       =   5.0346831562181E-03
(PID.TID 0000.0001) %MON ke_mean                      =   9.1478278342475E-06
(PID.TID 0000.0001) %MON ke_vol                       =   1.4101703507225E+18
(PID.TID 0000.0001) %MON vort_r_min                   =  -3.1659630909970E-07
(PID.TID 0000.0001) %MON vort_r_max                   =   3.0091132372593E-07
(PID.TID 0000.0001) %MON vort_a_mean                  =  -1.9976608796704E-05
(PID.TID 0000.0001) %MON vort_a_sd                    =   7.3718593539461E-05
(PID.TID 0000.0001) %MON vort_p_mean                  =  -2.3730263022063E-05
(PID.TID 0000.0001) %MON vort_p_sd                    =   1.0369751212804E-04
(PID.TID 0000.0001) %MON surfExpan_theta_mean         =   3.0711383304233E-05
(PID.TID 0000.0001) %MON surfExpan_salt_mean          =   2.0538954771525E-06
(PID.TID 0000.0001) // =======================================================
(PID.TID 0000.0001) // End MONITOR dynamic field statistics
(PID.TID 0000.0001) // =======================================================
 SH   5.2213226316872579        23.295104820995221     
 NH   10.461116343096876        25.564431296622899     
 SH   5.2213226316872579        23.295104820995221     
 NH   10.461116343096876        25.564431296622899     
 SH   5.2213226316872579        23.295104820995221     
 NH   10.461116343096876        25.564431296622899     
 SH   5.2213226316872579        23.295104820995221     
 NH   10.461116343096876        25.564431296622899     
 SH   5.2213226316872579        23.295104820995221     
 NH   10.461116343096876        25.564431296622899     
 SH   5.2213226316872579        23.295104820995221     
 NH   10.461116343096876        25.564431296622899     
 cg2d: Sum(rhs),rhsMax =   2.23028470865084E-02  8.58477948920903E+00
(PID.TID 0000.0001)      cg2d_init_res =   2.91002659716005E-01
(PID.TID 0000.0001)      cg2d_iters(min,last) =      -1      91
(PID.TID 0000.0001)      cg2d_last_res =   8.16695613702392E-14
(PID.TID 0000.0001) // =======================================================
(PID.TID 0000.0001) // Begin MONITOR dynamic field statistics
(PID.TID 0000.0001) // =======================================================
(PID.TID 0000.0001) %MON time_tsnumber                =                     3
(PID.TID 0000.0001) %MON time_secondsf                =   1.2960000000000E+05
(PID.TID 0000.0001) %MON dynstat_eta_max              =   1.6595191014351E+00
(PID.TID 0000.0001) %MON dynstat_eta_min              =  -1.4133702802042E+00
(PID.TID 0000.0001) %MON dynstat_eta_mean             =  -1.7791357614114E-04
(PID.TID 0000.0001) %MON dynstat_eta_sd               =   4.5549536222436E-01
(PID.TID 0000.0001) %MON dynstat_eta_del2             =   2.7045167331602E-03
(PID.TID 0000.0001) %MON dynstat_uvel_max             =   9.2537731206268E-02
(PID.TID 0000.0001) %MON dynstat_uvel_min             =  -1.4665609163444E-01
(PID.TID 0000.0001) %MON dynstat_uvel_mean            =  -7.6012915793409E-04
(PID.TID 0000.0001) %MON dynstat_uvel_sd              =   3.1106214288329E-03
(PID.TID 0000.0001) %MON dynstat_uvel_del2            =   4.0180020577521E-05
(PID.TID 0000.0001) %MON dynstat_vvel_max             =   1.3025218484309E-01
(PID.TID 0000.0001) %MON dynstat_vvel_min             =  -1.9824920515674E-01
(PID.TID 0000.0001) %MON dynstat_vvel_mean            =   1.1572695818402E-03
(PID.TID 0000.0001) %MON dynstat_vvel_sd              =   5.1645734770026E-03
(PID.TID 0000.0001) %MON dynstat_vvel_del2            =   4.6733529220209E-05
(PID.TID 0000.0001) %MON dynstat_wvel_max             =   5.9272776238412E-04
(PID.TID 0000.0001) %MON dynstat_wvel_min             =  -3.7450968170550E-04
(PID.TID 0000.0001) %MON dynstat_wvel_mean            =  -3.8070611836594E-22
(PID.TID 0000.0001) %MON dynstat_wvel_sd              =   2.0418841251781E-05
(PID.TID 0000.0001) %MON dynstat_wvel_del2            =   2.7149410278958E-07
(PID.TID 0000.0001) %MON dynstat_theta_max            =   2.9275070002304E+01
(PID.TID 0000.0001) %MON dynstat_theta_min            =  -1.8509838253557E+00
(PID.TID 0000.0001) %MON dynstat_theta_mean           =   3.4378373474751E+00
(PID.TID 0000.0001) %MON dynstat_theta_sd             =   4.1106368684497E+00
(PID.TID 0000.0001) %MON dynstat_theta_del2           =   5.1782162832849E-03
(PID.TID 0000.0001) %MON dynstat_salt_max             =   3.7440659606444E+01
(PID.TID 0000.0001) %MON dynstat_salt_min             =   3.1028475698512E+01
(PID.TID 0000.0001) %MON dynstat_salt_mean            =   3.4714995478083E+01
(PID.TID 0000.0001) %MON dynstat_salt_sd              =   2.7634146553427E-01
(PID.TID 0000.0001) %MON dynstat_salt_del2            =   8.5969284011586E-04
(PID.TID 0000.0001) %MON forcing_qnet_max             =   1.3032187685906E+02
(PID.TID 0000.0001) %MON forcing_qnet_min             =  -3.5067523785533E+01
(PID.TID 0000.0001) %MON forcing_qnet_mean            =  -7.0982274051419E-01
(PID.TID 0000.0001) %MON forcing_qnet_sd              =   2.2514231567150E+01
(PID.TID 0000.0001) %MON forcing_qnet_del2            =   1.1204061494946E-01
(PID.TID 0000.0001) %MON forcing_qsw_max              =   0.0000000000000E+00
(PID.TID 0000.0001) %MON forcing_qsw_min              =   0.0000000000000E+00
(PID.TID 0000.0001) %MON forcing_qsw_mean             =   0.0000000000000E+00
(PID.TID 0000.0001) %MON forcing_qsw_sd               =   0.0000000000000E+00
(PID.TID 0000.0001) %MON forcing_qsw_del2             =   0.0000000000000E+00
(PID.TID 0000.0001) %MON forcing_empmr_max            =   3.7600374110707E-05
(PID.TID 0000.0001) %MON forcing_empmr_min            =  -2.9685016686068E-05
(PID.TID 0000.0001) %MON forcing_empmr_mean           =   1.4208375872388E-06
(PID.TID 0000.0001) %MON forcing_empmr_sd             =   1.1923373923198E-05
(PID.TID 0000.0001) %MON forcing_empmr_del2           =   7.4400852469101E-08
(PID.TID 0000.0001) %MON forcing_fu_max               =   1.6004334390163E-01
(PID.TID 0000.0001) %MON forcing_fu_min               =  -1.0329221189022E-01
(PID.TID 0000.0001) %MON forcing_fu_mean              =   4.1280488583042E-03
(PID.TID 0000.0001) %MON forcing_fu_sd                =   5.5800359441598E-02
(PID.TID 0000.0001) %MON forcing_fu_del2              =   3.2370368543278E-04
(PID.TID 0000.0001) %MON forcing_fv_max               =   8.4633164107800E-02
(PID.TID 0000.0001) %MON forcing_fv_min               =  -7.0490099489689E-02
(PID.TID 0000.0001) %MON forcing_fv_mean              =   2.8803575798275E-03
(PID.TID 0000.0001) %MON forcing_fv_sd                =   2.2193297771215E-02
(PID.TID 0000.0001) %MON forcing_fv_del2              =   2.1170835219132E-04
(PID.TID 0000.0001) %MON trAdv_CFL_u_max              =   9.5427786876209E-03
(PID.TID 0000.0001) %MON trAdv_CFL_v_max              =   1.3230128083910E-02
(PID.TID 0000.0001) %MON trAdv_CFL_w_max              =   4.0941251589802E-02
(PID.TID 0000.0001) %MON advcfl_uvel_max              =   1.4466237921306E-02
(PID.TID 0000.0001) %MON advcfl_vvel_max              =   1.9258320513483E-02
(PID.TID 0000.0001) %MON advcfl_wvel_max              =   6.5417750128353E-02
(PID.TID 0000.0001) %MON advcfl_W_hf_max              =   7.0227878814262E-02
(PID.TID 0000.0001) %MON pe_b_mean                    =   2.4071057590742E-04
(PID.TID 0000.0001) %MON ke_max                       =   1.0798713799675E-02
(PID.TID 0000.0001) %MON ke_mean                      =   1.7478588756184E-05
(PID.TID 0000.0001) %MON ke_vol                       =   1.4101703507225E+18
(PID.TID 0000.0001) %MON vort_r_min                   =  -4.6239975240046E-07
(PID.TID 0000.0001) %MON vort_r_max                   =   4.3990609178730E-07
(PID.TID 0000.0001) %MON vort_a_mean                  =  -1.9976608796704E-05
(PID.TID 0000.0001) %MON vort_a_sd                    =   7.3718558275135E-05
(PID.TID 0000.0001) %MON vort_p_mean                  =  -2.3730263022063E-05
(PID.TID 0000.0001) %MON vort_p_sd                    =   1.0369745135646E-04
(PID.TID 0000.0001) %MON surfExpan_theta_mean         =   2.6833948952721E-05
(PID.TID 0000.0001) %MON surfExpan_salt_mean          =   1.4793220006196E-06
(PID.TID 0000.0001) // =======================================================
(PID.TID 0000.0001) // End MONITOR dynamic field statistics
(PID.TID 0000.0001) // =======================================================
 SH   5.2239574275744189        23.292335961932451     
 NH   10.454535032883314        25.562881260192569     
 SH   5.2239574275744189        23.292335961932451     
 NH   10.454535032883314        25.562881260192569     
 SH   5.2239574275744189        23.292335961932451     
 NH   10.454535032883314        25.562881260192569     
 SH   5.2239574275744189        23.292335961932451     
 NH   10.454535032883314        25.562881260192569     
 SH   5.2239574275744189        23.292335961932451     
 NH   10.454535032883314        25.562881260192569     
 SH   5.2239574275744189        23.292335961932451     
 NH   10.454535032883314        25.562881260192569     
 cg2d: Sum(rhs),rhsMax =   3.14858762021509E-02  8.57281946079489E+00
(PID.TID 0000.0001)      cg2d_init_res =   2.06224451996526E-01
(PID.TID 0000.0001)      cg2d_iters(min,last) =      -1      91
(PID.TID 0000.0001)      cg2d_last_res =   8.70077482155467E-14
(PID.TID 0000.0001) // =======================================================
(PID.TID 0000.0001) // Begin MONITOR dynamic field statistics
(PID.TID 0000.0001) // =======================================================
(PID.TID 0000.0001) %MON time_tsnumber                =                     4
(PID.TID 0000.0001) %MON time_secondsf                =   1.7280000000000E+05
(PID.TID 0000.0001) %MON dynstat_eta_max              =   1.8343496357022E+00
(PID.TID 0000.0001) %MON dynstat_eta_min              =  -1.6691298576177E+00
(PID.TID 0000.0001) %MON dynstat_eta_mean             =  -2.3721810152165E-04
(PID.TID 0000.0001) %MON dynstat_eta_sd               =   5.2395673944223E-01
(PID.TID 0000.0001) %MON dynstat_eta_del2             =   2.6514961663518E-03
(PID.TID 0000.0001) %MON dynstat_uvel_max             =   1.2175777414226E-01
(PID.TID 0000.0001) %MON dynstat_uvel_min             =  -1.9190600204052E-01
(PID.TID 0000.0001) %MON dynstat_uvel_mean            =  -8.2546096285079E-04
(PID.TID 0000.0001) %MON dynstat_uvel_sd              =   4.0988360736922E-03
(PID.TID 0000.0001) %MON dynstat_uvel_del2            =   5.2379259501020E-05
(PID.TID 0000.0001) %MON dynstat_vvel_max             =   1.7158485843544E-01
(PID.TID 0000.0001) %MON dynstat_vvel_min             =  -2.5991995108157E-01
(PID.TID 0000.0001) %MON dynstat_vvel_mean            =   1.1560070404474E-03
(PID.TID 0000.0001) %MON dynstat_vvel_sd              =   6.5552965050306E-03
(PID.TID 0000.0001) %MON dynstat_vvel_del2            =   6.0421066833464E-05
(PID.TID 0000.0001) %MON dynstat_wvel_max             =   7.8772037852273E-04
(PID.TID 0000.0001) %MON dynstat_wvel_min             =  -4.9671018720255E-04
(PID.TID 0000.0001) %MON dynstat_wvel_mean            =   1.7046542613400E-22
(PID.TID 0000.0001) %MON dynstat_wvel_sd              =   2.6485748723525E-05
(PID.TID 0000.0001) %MON dynstat_wvel_del2            =   3.5300896218426E-07
(PID.TID 0000.0001) %MON dynstat_theta_max            =   2.9256020255643E+01
(PID.TID 0000.0001) %MON dynstat_theta_min            =  -1.8518350954405E+00
(PID.TID 0000.0001) %MON dynstat_theta_mean           =   3.4375887383190E+00
(PID.TID 0000.0001) %MON dynstat_theta_sd             =   4.1098472152766E+00
(PID.TID 0000.0001) %MON dynstat_theta_del2           =   5.1579152854198E-03
(PID.TID 0000.0001) %MON dynstat_salt_max             =   3.7441069269711E+01
(PID.TID 0000.0001) %MON dynstat_salt_min             =   3.1029036049421E+01
(PID.TID 0000.0001) %MON dynstat_salt_mean            =   3.4714984431269E+01
(PID.TID 0000.0001) %MON dynstat_salt_sd              =   2.7633502629694E-01
(PID.TID 0000.0001) %MON dynstat_salt_del2            =   8.5860395297373E-04
(PID.TID 0000.0001) %MON forcing_qnet_max             =   1.2981559057931E+02
(PID.TID 0000.0001) %MON forcing_qnet_min             =  -3.5123769356491E+01
(PID.TID 0000.0001) %MON forcing_qnet_mean            =  -7.2429870283327E-01
(PID.TID 0000.0001) %MON forcing_qnet_sd              =   2.2474009606502E+01
(PID.TID 0000.0001) %MON forcing_qnet_del2            =   1.1197505103318E-01
(PID.TID 0000.0001) %MON forcing_qsw_max              =   0.0000000000000E+00
(PID.TID 0000.0001) %MON forcing_qsw_min              =   0.0000000000000E+00
(PID.TID 0000.0001) %MON forcing_qsw_mean             =   0.0000000000000E+00
(PID.TID 0000.0001) %MON forcing_qsw_sd               =   0.0000000000000E+00
(PID.TID 0000.0001) %MON forcing_qsw_del2             =   0.0000000000000E+00
(PID.TID 0000.0001) %MON forcing_empmr_max            =   3.7600374110707E-05
(PID.TID 0000.0001) %MON forcing_empmr_min            =  -2.9685016686068E-05
(PID.TID 0000.0001) %MON forcing_empmr_mean           =   1.4208375872388E-06
(PID.TID 0000.0001) %MON forcing_empmr_sd             =   1.1923373923198E-05
(PID.TID 0000.0001) %MON forcing_empmr_del2           =   7.4400852469101E-08
(PID.TID 0000.0001) %MON forcing_fu_max               =   1.6004334390163E-01
(PID.TID 0000.0001) %MON forcing_fu_min               =  -1.0329221189022E-01
(PID.TID 0000.0001) %MON forcing_fu_mean              =   4.1280488583042E-03
(PID.TID 0000.0001) %MON forcing_fu_sd                =   5.5800359441598E-02
(PID.TID 0000.0001) %MON forcing_fu_del2              =   3.2370368543278E-04
(PID.TID 0000.0001) %MON forcing_fv_max               =   8.4633164107800E-02
(PID.TID 0000.0001) %MON forcing_fv_min               =  -7.0490099489689E-02
(PID.TID 0000.0001) %MON forcing_fv_mean              =   2.8803575798275E-03
(PID.TID 0000.0001) %MON forcing_fv_sd                =   2.2193297771215E-02
(PID.TID 0000.0001) %MON forcing_fv_del2              =   2.1170835219132E-04
(PID.TID 0000.0001) %MON trAdv_CFL_u_max              =   1.3668555130998E-02
(PID.TID 0000.0001) %MON trAdv_CFL_v_max              =   1.9418106790655E-02
(PID.TID 0000.0001) %MON trAdv_CFL_w_max              =   6.1224304607305E-02
(PID.TID 0000.0001) %MON advcfl_uvel_max              =   1.8929714088964E-02
(PID.TID 0000.0001) %MON advcfl_vvel_max              =   2.5249138940155E-02
(PID.TID 0000.0001) %MON advcfl_wvel_max              =   8.7184417820478E-02
(PID.TID 0000.0001) %MON advcfl_W_hf_max              =   9.3595036777866E-02
(PID.TID 0000.0001) %MON pe_b_mean                    =   3.1850638111569E-04
(PID.TID 0000.0001) %MON ke_max                       =   1.8525560537387E-02
(PID.TID 0000.0001) %MON ke_mean                      =   2.8229832047267E-05
(PID.TID 0000.0001) %MON ke_vol                       =   1.4101703507225E+18
(PID.TID 0000.0001) %MON vort_r_min                   =  -6.0340352442886E-07
(PID.TID 0000.0001) %MON vort_r_max                   =   5.7665201882545E-07
(PID.TID 0000.0001) %MON vort_a_mean                  =  -1.9976608796704E-05
(PID.TID 0000.0001) %MON vort_a_sd                    =   7.3718545283335E-05
(PID.TID 0000.0001) %MON vort_p_mean                  =  -2.3730263022063E-05
(PID.TID 0000.0001) %MON vort_p_sd                    =   1.0369744144226E-04
(PID.TID 0000.0001) %MON surfExpan_theta_mean         =   1.8891868358267E-05
(PID.TID 0000.0001) %MON surfExpan_salt_mean          =   7.2776537402178E-07
(PID.TID 0000.0001) // =======================================================
(PID.TID 0000.0001) // End MONITOR dynamic field statistics
(PID.TID 0000.0001) // =======================================================
 SH   5.2277162889460556        23.291046699607023     
 NH   10.447034193316540        25.560630733686821     
 SH   5.2277162889460556        23.291046699607023     
 NH   10.447034193316540        25.560630733686821     
 SH   5.2277162889460556        23.291046699607023     
 NH   10.447034193316540        25.560630733686821     
 SH   5.2277162889460556        23.291046699607023     
 NH   10.447034193316540        25.560630733686821     
 SH   5.2277162889460556        23.291046699607023     
 NH   10.447034193316540        25.560630733686821     
 SH   5.2277162889460556        23.291046699607023     
 NH   10.447034193316540        25.560630733686821     
 cg2d: Sum(rhs),rhsMax =   4.07857455428170E-02  8.54172053583700E+00
(PID.TID 0000.0001)      cg2d_init_res =   1.85386100091565E-01
(PID.TID 0000.0001)      cg2d_iters(min,last) =      -1      91
(PID.TID 0000.0001)      cg2d_last_res =   9.92096511144255E-14
(PID.TID 0000.0001) // =======================================================
(PID.TID 0000.0001) // Begin MONITOR dynamic field statistics
(PID.TID 0000.0001) // =======================================================
(PID.TID 0000.0001) %MON time_tsnumber                =                     5
(PID.TID 0000.0001) %MON time_secondsf                =   2.1600000000000E+05
(PID.TID 0000.0001) %MON dynstat_eta_max              =   1.9958464545308E+00
(PID.TID 0000.0001) %MON dynstat_eta_min              =  -1.7065501501916E+00
(PID.TID 0000.0001) %MON dynstat_eta_mean             =  -2.9652262690222E-04
(PID.TID 0000.0001) %MON dynstat_eta_sd               =   5.5898990586515E-01
(PID.TID 0000.0001) %MON dynstat_eta_del2             =   2.5951276368683E-03
(PID.TID 0000.0001) %MON dynstat_uvel_max             =   1.4978112907474E-01
(PID.TID 0000.0001) %MON dynstat_uvel_min             =  -2.3527732921671E-01
(PID.TID 0000.0001) %MON dynstat_uvel_mean            =  -8.1136051918975E-04
(PID.TID 0000.0001) %MON dynstat_uvel_sd              =   5.0860138943789E-03
(PID.TID 0000.0001) %MON dynstat_uvel_del2            =   6.3915642238148E-05
(PID.TID 0000.0001) %MON dynstat_vvel_max             =   2.1199482803081E-01
(PID.TID 0000.0001) %MON dynstat_vvel_min             =  -3.1940696407231E-01
(PID.TID 0000.0001) %MON dynstat_vvel_mean            =   1.0688578451237E-03
(PID.TID 0000.0001) %MON dynstat_vvel_sd              =   7.9267442982664E-03
(PID.TID 0000.0001) %MON dynstat_vvel_del2            =   7.2985609496370E-05
(PID.TID 0000.0001) %MON dynstat_wvel_max             =   9.7742328861860E-04
(PID.TID 0000.0001) %MON dynstat_wvel_min             =  -6.1591040012122E-04
(PID.TID 0000.0001) %MON dynstat_wvel_mean            =   4.5457446969068E-23
(PID.TID 0000.0001) %MON dynstat_wvel_sd              =   3.2315922077549E-05
(PID.TID 0000.0001) %MON dynstat_wvel_del2            =   4.2926388244341E-07
(PID.TID 0000.0001) %MON dynstat_theta_max            =   2.9237873330554E+01
(PID.TID 0000.0001) %MON dynstat_theta_min            =  -1.8527459327421E+00
(PID.TID 0000.0001) %MON dynstat_theta_mean           =   3.4374462321493E+00
(PID.TID 0000.0001) %MON dynstat_theta_sd             =   4.1093138801882E+00
(PID.TID 0000.0001) %MON dynstat_theta_del2           =   5.1341650887699E-03
(PID.TID 0000.0001) %MON dynstat_salt_max             =   3.7441474341312E+01
(PID.TID 0000.0001) %MON dynstat_salt_min             =   3.1030658008826E+01
(PID.TID 0000.0001) %MON dynstat_salt_mean            =   3.4714982136511E+01
(PID.TID 0000.0001) %MON dynstat_salt_sd              =   2.7632723299679E-01
(PID.TID 0000.0001) %MON dynstat_salt_del2            =   8.5749989978903E-04
(PID.TID 0000.0001) %MON forcing_qnet_max             =   1.2928416234430E+02
(PID.TID 0000.0001) %MON forcing_qnet_min             =  -3.5169765534076E+01
(PID.TID 0000.0001) %MON forcing_qnet_mean            =  -7.3726265389202E-01
(PID.TID 0000.0001) %MON forcing_qnet_sd              =   2.2429875869725E+01
(PID.TID 0000.0001) %MON forcing_qnet_del2            =   1.1187126508289E-01
(PID.TID 0000.0001) %MON forcing_qsw_max              =   0.0000000000000E+00
(PID.TID 0000.0001) %MON forcing_qsw_min              =   0.0000000000000E+00
(PID.TID 0000.0001) %MON forcing_qsw_mean             =   0.0000000000000E+00
(PID.TID 0000.0001) %MON forcing_qsw_sd               =   0.0000000000000E+00
(PID.TID 0000.0001) %MON forcing_qsw_del2             =   0.0000000000000E+00
(PID.TID 0000.0001) %MON forcing_empmr_max            =   3.7600374110707E-05
(PID.TID 0000.0001) %MON forcing_empmr_min            =  -2.9685016686068E-05
(PID.TID 0000.0001) %MON forcing_empmr_mean           =   1.4208375872388E-06
(PID.TID 0000.0001) %MON forcing_empmr_sd             =   1.1923373923198E-05
(PID.TID 0000.0001) %MON forcing_empmr_del2           =   7.4400852469101E-08
(PID.TID 0000.0001) %MON forcing_fu_max               =   1.6004334390163E-01
(PID.TID 0000.0001) %MON forcing_fu_min               =  -1.0329221189022E-01
(PID.TID 0000.0001) %MON forcing_fu_mean              =   4.1280488583042E-03
(PID.TID 0000.0001) %MON forcing_fu_sd                =   5.5800359441598E-02
(PID.TID 0000.0001) %MON forcing_fu_del2              =   3.2370368543278E-04
(PID.TID 0000.0001) %MON forcing_fv_max               =   8.4633164107800E-02
(PID.TID 0000.0001) %MON forcing_fv_min               =  -7.0490099489689E-02
(PID.TID 0000.0001) %MON forcing_fv_mean              =   2.8803575798275E-03
(PID.TID 0000.0001) %MON forcing_fv_sd                =   2.2193297771215E-02
(PID.TID 0000.0001) %MON forcing_fv_del2              =   2.1170835219132E-04
(PID.TID 0000.0001) %MON trAdv_CFL_u_max              =   1.7260652773861E-02
(PID.TID 0000.0001) %MON trAdv_CFL_v_max              =   2.5458631035284E-02
(PID.TID 0000.0001) %MON trAdv_CFL_w_max              =   8.1595673088396E-02
(PID.TID 0000.0001) %MON advcfl_uvel_max              =   2.3207885768716E-02
(PID.TID 0000.0001) %MON advcfl_vvel_max              =   3.1027825223712E-02
(PID.TID 0000.0001) %MON advcfl_wvel_max              =   1.0839733106257E-01
(PID.TID 0000.0001) %MON advcfl_W_hf_max              =   1.1636772305246E-01
(PID.TID 0000.0001) %MON pe_b_mean                    =   3.6252272860985E-04
(PID.TID 0000.0001) %MON ke_max                       =   2.7946459178344E-02
(PID.TID 0000.0001) %MON ke_mean                      =   4.1353251596212E-05
(PID.TID 0000.0001) %MON ke_vol                       =   1.4101703507225E+18
(PID.TID 0000.0001) %MON vort_r_min                   =  -7.3772059330589E-07
(PID.TID 0000.0001) %MON vort_r_max                   =   7.0994080220405E-07
(PID.TID 0000.0001) %MON vort_a_mean                  =  -1.9976608796704E-05
(PID.TID 0000.0001) %MON vort_a_sd                    =   7.3718548669298E-05
(PID.TID 0000.0001) %MON vort_p_mean                  =  -2.3730263022063E-05
(PID.TID 0000.0001) %MON vort_p_sd                    =   1.0369745383963E-04
(PID.TID 0000.0001) %MON surfExpan_theta_mean         =   1.0513695996352E-05
(PID.TID 0000.0001) %MON surfExpan_salt_mean          =   8.5462448814636E-08
(PID.TID 0000.0001) // =======================================================
(PID.TID 0000.0001) // End MONITOR dynamic field statistics
(PID.TID 0000.0001) // =======================================================
 SH   5.2321942299666944        23.291682105507277     
 NH   10.438670717474963        25.558209285139867     
 SH   5.2321942299666944        23.291682105507277     
 NH   10.438670717474963        25.558209285139867     
 SH   5.2321942299666944        23.291682105507277     
 NH   10.438670717474963        25.558209285139867     
 SH   5.2321942299666944        23.291682105507277     
 NH   10.438670717474963        25.558209285139867     
 SH   5.2321942299666944        23.291682105507277     
 NH   10.438670717474963        25.558209285139867     
 SH   5.2321942299666944        23.291682105507277     
 NH   10.438670717474963        25.558209285139867     
 cg2d: Sum(rhs),rhsMax =   5.08162392345097E-02  8.39964064104630E+00
(PID.TID 0000.0001)      cg2d_init_res =   1.77778308129534E-01
(PID.TID 0000.0001)      cg2d_iters(min,last) =      -1      91
(PID.TID 0000.0001)      cg2d_last_res =   9.50937522242098E-14
(PID.TID 0000.0001) // =======================================================
(PID.TID 0000.0001) // Begin MONITOR dynamic field statistics
(PID.TID 0000.0001) // =======================================================
(PID.TID 0000.0001) %MON time_tsnumber                =                     6
(PID.TID 0000.0001) %MON time_secondsf                =   2.5920000000000E+05
(PID.TID 0000.0001) %MON dynstat_eta_max              =   2.1090162412411E+00
(PID.TID 0000.0001) %MON dynstat_eta_min              =  -1.6411478850556E+00
(PID.TID 0000.0001) %MON dynstat_eta_mean             =  -3.5582715228254E-04
(PID.TID 0000.0001) %MON dynstat_eta_sd               =   5.7265652833474E-01
(PID.TID 0000.0001) %MON dynstat_eta_del2             =   2.5264064466317E-03
(PID.TID 0000.0001) %MON dynstat_uvel_max             =   1.7631280749224E-01
(PID.TID 0000.0001) %MON dynstat_uvel_min             =  -2.7675819223496E-01
(PID.TID 0000.0001) %MON dynstat_uvel_mean            =  -7.4692611400048E-04
(PID.TID 0000.0001) %MON dynstat_uvel_sd              =   6.0916826270440E-03
(PID.TID 0000.0001) %MON dynstat_uvel_del2            =   7.4711291335407E-05
(PID.TID 0000.0001) %MON dynstat_vvel_max             =   2.5139661920545E-01
(PID.TID 0000.0001) %MON dynstat_vvel_min             =  -3.7680640713980E-01
(PID.TID 0000.0001) %MON dynstat_vvel_mean            =   9.0837276589601E-04
(PID.TID 0000.0001) %MON dynstat_vvel_sd              =   9.2375849908209E-03
(PID.TID 0000.0001) %MON dynstat_vvel_del2            =   8.4274470451698E-05
(PID.TID 0000.0001) %MON dynstat_wvel_max             =   1.1616630008113E-03
(PID.TID 0000.0001) %MON dynstat_wvel_min             =  -7.3200836290985E-04
(PID.TID 0000.0001) %MON dynstat_wvel_mean            =  -7.4436569411849E-22
(PID.TID 0000.0001) %MON dynstat_wvel_sd              =   3.7840187835989E-05
(PID.TID 0000.0001) %MON dynstat_wvel_del2            =   4.9983848124822E-07
(PID.TID 0000.0001) %MON dynstat_theta_max            =   2.9221136596974E+01
(PID.TID 0000.0001) %MON dynstat_theta_min            =  -1.8536241038660E+00
(PID.TID 0000.0001) %MON dynstat_theta_mean           =   3.4373920287242E+00
(PID.TID 0000.0001) %MON dynstat_theta_sd             =   4.1090476675743E+00
(PID.TID 0000.0001) %MON dynstat_theta_del2           =   5.1083090322827E-03
(PID.TID 0000.0001) %MON dynstat_salt_max             =   3.7441881863625E+01
(PID.TID 0000.0001) %MON dynstat_salt_min             =   3.1032879899829E+01
(PID.TID 0000.0001) %MON dynstat_salt_mean            =   3.4714985721369E+01
(PID.TID 0000.0001) %MON dynstat_salt_sd              =   2.7631979190648E-01
(PID.TID 0000.0001) %MON dynstat_salt_del2            =   8.5634571164468E-04
(PID.TID 0000.0001) %MON forcing_qnet_max             =   1.2868301359409E+02
(PID.TID 0000.0001) %MON forcing_qnet_min             =  -3.5196631381009E+01
(PID.TID 0000.0001) %MON forcing_qnet_mean            =  -7.4712127087538E-01
(PID.TID 0000.0001) %MON forcing_qnet_sd              =   2.2374586403941E+01
(PID.TID 0000.0001) %MON forcing_qnet_del2            =   1.1170022956569E-01
(PID.TID 0000.0001) %MON forcing_qsw_max              =   0.0000000000000E+00
(PID.TID 0000.0001) %MON forcing_qsw_min              =   0.0000000000000E+00
(PID.TID 0000.0001) %MON forcing_qsw_mean             =   0.0000000000000E+00
(PID.TID 0000.0001) %MON forcing_qsw_sd               =   0.0000000000000E+00
(PID.TID 0000.0001) %MON forcing_qsw_del2             =   0.0000000000000E+00
(PID.TID 0000.0001) %MON forcing_empmr_max            =   3.7600374110707E-05
(PID.TID 0000.0001) %MON forcing_empmr_min            =  -2.9685016686068E-05
(PID.TID 0000.0001) %MON forcing_empmr_mean           =   1.4208375872388E-06
(PID.TID 0000.0001) %MON forcing_empmr_sd             =   1.1923373923198E-05
(PID.TID 0000.0001) %MON forcing_empmr_del2           =   7.4400852469101E-08
(PID.TID 0000.0001) %MON forcing_fu_max               =   1.6004334390163E-01
(PID.TID 0000.0001) %MON forcing_fu_min               =  -1.0329221189022E-01
(PID.TID 0000.0001) %MON forcing_fu_mean              =   4.1280488583042E-03
(PID.TID 0000.0001) %MON forcing_fu_sd                =   5.5800359441598E-02
(PID.TID 0000.0001) %MON forcing_fu_del2              =   3.2370368543278E-04
(PID.TID 0000.0001) %MON forcing_fv_max               =   8.4633164107800E-02
(PID.TID 0000.0001) %MON forcing_fv_min               =  -7.0490099489689E-02
(PID.TID 0000.0001) %MON forcing_fv_mean              =   2.8803575798275E-03
(PID.TID 0000.0001) %MON forcing_fv_sd                =   2.2193297771215E-02
(PID.TID 0000.0001) %MON forcing_fv_del2              =   2.1170835219132E-04
(PID.TID 0000.0001) %MON trAdv_CFL_u_max              =   2.0207294030480E-02
(PID.TID 0000.0001) %MON trAdv_CFL_v_max              =   3.1285263076497E-02
(PID.TID 0000.0001) %MON trAdv_CFL_w_max              =   1.0144878419958E-01
(PID.TID 0000.0001) %MON advcfl_uvel_max              =   2.7299581019254E-02
(PID.TID 0000.0001) %MON advcfl_vvel_max              =   3.6603720829524E-02
(PID.TID 0000.0001) %MON advcfl_wvel_max              =   1.2900469596622E-01
(PID.TID 0000.0001) %MON advcfl_W_hf_max              =   1.3849033537550E-01
(PID.TID 0000.0001) %MON pe_b_mean                    =   3.8046594233162E-04
(PID.TID 0000.0001) %MON ke_max                       =   3.8872405431221E-02
(PID.TID 0000.0001) %MON ke_mean                      =   5.6588798293734E-05
(PID.TID 0000.0001) %MON ke_vol                       =   1.4101703507225E+18
(PID.TID 0000.0001) %MON vort_r_min                   =  -8.6557637415066E-07
(PID.TID 0000.0001) %MON vort_r_max                   =   8.3970954069566E-07
(PID.TID 0000.0001) %MON vort_a_mean                  =  -1.9976608796704E-05
(PID.TID 0000.0001) %MON vort_a_sd                    =   7.3718562688641E-05
(PID.TID 0000.0001) %MON vort_p_mean                  =  -2.3730263022063E-05
(PID.TID 0000.0001) %MON vort_p_sd                    =   1.0369746997880E-04
(PID.TID 0000.0001) %MON surfExpan_theta_mean         =   3.6344151478671E-06
(PID.TID 0000.0001) %MON surfExpan_salt_mean          =  -3.4140408359033E-07
(PID.TID 0000.0001) // =======================================================
(PID.TID 0000.0001) // End MONITOR dynamic field statistics
(PID.TID 0000.0001) // =======================================================
 SH   5.2371137473676868        23.293843137346016     
 NH   10.429558047131195        25.556458223563027     
 SH   5.2371137473676868        23.293843137346016     
 NH   10.429558047131195        25.556458223563027     
 SH   5.2371137473676868        23.293843137346016     
 NH   10.429558047131195        25.556458223563027     
 SH   5.2371137473676868        23.293843137346016     
 NH   10.429558047131195        25.556458223563027     
 SH   5.2371137473676868        23.293843137346016     
 NH   10.429558047131195        25.556458223563027     
 SH   5.2371137473676868        23.293843137346016     
 NH   10.429558047131195        25.556458223563027     
 cg2d: Sum(rhs),rhsMax =   6.20022130572424E-02  8.14964226937412E+00
(PID.TID 0000.0001)      cg2d_init_res =   1.79394383878642E-01
(PID.TID 0000.0001)      cg2d_iters(min,last) =      -1      92
(PID.TID 0000.0001)      cg2d_last_res =   6.63196164268344E-14
(PID.TID 0000.0001) // =======================================================
(PID.TID 0000.0001) // Begin MONITOR dynamic field statistics
(PID.TID 0000.0001) // =======================================================
(PID.TID 0000.0001) %MON time_tsnumber                =                     7
(PID.TID 0000.0001) %MON time_secondsf                =   3.0240000000000E+05
(PID.TID 0000.0001) %MON dynstat_eta_max              =   2.1686658528493E+00
(PID.TID 0000.0001) %MON dynstat_eta_min              =  -1.5677683515893E+00
(PID.TID 0000.0001) %MON dynstat_eta_mean             =  -4.1513167766288E-04
(PID.TID 0000.0001) %MON dynstat_eta_sd               =   5.7382984907465E-01
(PID.TID 0000.0001) %MON dynstat_eta_del2             =   2.4518552203950E-03
(PID.TID 0000.0001) %MON dynstat_uvel_max             =   2.0119878286531E-01
(PID.TID 0000.0001) %MON dynstat_uvel_min             =  -3.1629611444642E-01
(PID.TID 0000.0001) %MON dynstat_uvel_mean            =  -6.5062788148167E-04
(PID.TID 0000.0001) %MON dynstat_uvel_sd              =   7.1235549016110E-03
(PID.TID 0000.0001) %MON dynstat_uvel_del2            =   8.4724116396432E-05
(PID.TID 0000.0001) %MON dynstat_vvel_max             =   2.8960537494101E-01
(PID.TID 0000.0001) %MON dynstat_vvel_min             =  -4.3213049432840E-01
(PID.TID 0000.0001) %MON dynstat_vvel_mean            =   6.8483703759378E-04
(PID.TID 0000.0001) %MON dynstat_vvel_sd              =   1.0456441616287E-02
(PID.TID 0000.0001) %MON dynstat_vvel_del2            =   9.4175308282046E-05
(PID.TID 0000.0001) %MON dynstat_wvel_max             =   1.3396567452693E-03
(PID.TID 0000.0001) %MON dynstat_wvel_min             =  -8.4437217233784E-04
(PID.TID 0000.0001) %MON dynstat_wvel_mean            =  -2.9547340529894E-22
(PID.TID 0000.0001) %MON dynstat_wvel_sd              =   4.3006094612946E-05
(PID.TID 0000.0001) %MON dynstat_wvel_del2            =   5.6431564333675E-07
(PID.TID 0000.0001) %MON dynstat_theta_max            =   2.9205566721278E+01
(PID.TID 0000.0001) %MON dynstat_theta_min            =  -1.8544077871651E+00
(PID.TID 0000.0001) %MON dynstat_theta_mean           =   3.4373989409772E+00
(PID.TID 0000.0001) %MON dynstat_theta_sd             =   4.1089922573140E+00
(PID.TID 0000.0001) %MON dynstat_theta_del2           =   5.0815633500344E-03
(PID.TID 0000.0001) %MON dynstat_salt_max             =   3.7442315220806E+01
(PID.TID 0000.0001) %MON dynstat_salt_min             =   3.1035225273203E+01
(PID.TID 0000.0001) %MON dynstat_salt_mean            =   3.4714992333676E+01
(PID.TID 0000.0001) %MON dynstat_salt_sd              =   2.7631362146955E-01
(PID.TID 0000.0001) %MON dynstat_salt_del2            =   8.5517580086176E-04
(PID.TID 0000.0001) %MON forcing_qnet_max             =   1.2794346961780E+02
(PID.TID 0000.0001) %MON forcing_qnet_min             =  -3.5207336447219E+01
(PID.TID 0000.0001) %MON forcing_qnet_mean            =  -7.5378740100872E-01
(PID.TID 0000.0001) %MON forcing_qnet_sd              =   2.2300953695753E+01
(PID.TID 0000.0001) %MON forcing_qnet_del2            =   1.1145635877534E-01
(PID.TID 0000.0001) %MON forcing_qsw_max              =   0.0000000000000E+00
(PID.TID 0000.0001) %MON forcing_qsw_min              =   0.0000000000000E+00
(PID.TID 0000.0001) %MON forcing_qsw_mean             =   0.0000000000000E+00
(PID.TID 0000.0001) %MON forcing_qsw_sd               =   0.0000000000000E+00
(PID.TID 0000.0001) %MON forcing_qsw_del2             =   0.0000000000000E+00
(PID.TID 0000.0001) %MON forcing_empmr_max            =   3.7600374110707E-05
(PID.TID 0000.0001) %MON forcing_empmr_min            =  -2.9685016686068E-05
(PID.TID 0000.0001) %MON forcing_empmr_mean           =   1.4208375872388E-06
(PID.TID 0000.0001) %MON forcing_empmr_sd             =   1.1923373923198E-05
(PID.TID 0000.0001) %MON forcing_empmr_del2           =   7.4400852469101E-08
(PID.TID 0000.0001) %MON forcing_fu_max               =   1.6004334390163E-01
(PID.TID 0000.0001) %MON forcing_fu_min               =  -1.0329221189022E-01
(PID.TID 0000.0001) %MON forcing_fu_mean              =   4.1280488583042E-03
(PID.TID 0000.0001) %MON forcing_fu_sd                =   5.5800359441598E-02
(PID.TID 0000.0001) %MON forcing_fu_del2              =   3.2370368543278E-04
(PID.TID 0000.0001) %MON forcing_fv_max               =   8.4633164107800E-02
(PID.TID 0000.0001) %MON forcing_fv_min               =  -7.0490099489689E-02
(PID.TID 0000.0001) %MON forcing_fv_mean              =   2.8803575798275E-03
(PID.TID 0000.0001) %MON forcing_fv_sd                =   2.2193297771215E-02
(PID.TID 0000.0001) %MON forcing_fv_del2              =   2.1170835219132E-04
(PID.TID 0000.0001) %MON trAdv_CFL_u_max              =   2.2470650080635E-02
(PID.TID 0000.0001) %MON trAdv_CFL_v_max              =   3.6907421885796E-02
(PID.TID 0000.0001) %MON trAdv_CFL_w_max              =   1.2073516417352E-01
(PID.TID 0000.0001) %MON advcfl_uvel_max              =   3.1199623514936E-02
(PID.TID 0000.0001) %MON advcfl_vvel_max              =   4.1978012254055E-02
(PID.TID 0000.0001) %MON advcfl_wvel_max              =   1.4890585798994E-01
(PID.TID 0000.0001) %MON advcfl_W_hf_max              =   1.5985481813626E-01
(PID.TID 0000.0001) %MON pe_b_mean                    =   3.8202667166867E-04
(PID.TID 0000.0001) %MON ke_max                       =   5.1121870349508E-02
(PID.TID 0000.0001) %MON ke_mean                      =   7.3581199061606E-05
(PID.TID 0000.0001) %MON ke_vol                       =   1.4101703507225E+18
(PID.TID 0000.0001) %MON vort_r_min                   =  -9.8706157757448E-07
(PID.TID 0000.0001) %MON vort_r_max                   =   9.6583948675104E-07
(PID.TID 0000.0001) %MON vort_a_mean                  =  -1.9976608796704E-05
(PID.TID 0000.0001) %MON vort_a_sd                    =   7.3718583779620E-05
(PID.TID 0000.0001) %MON vort_p_mean                  =  -2.3730263022063E-05
(PID.TID 0000.0001) %MON vort_p_sd                    =   1.0369748494323E-04
(PID.TID 0000.0001) %MON surfExpan_theta_mean         =  -1.0434349095895E-06
(PID.TID 0000.0001) %MON surfExpan_salt_mean          =  -5.4990834175241E-07
(PID.TID 0000.0001) // =======================================================
(PID.TID 0000.0001) // End MONITOR dynamic field statistics
(PID.TID 0000.0001) // =======================================================
 SH   5.2423160942678351        23.296846301464711     
 NH   10.420060276248194        25.555955770287142     
 SH   5.2423160942678351        23.296846301464711     
 NH   10.420060276248194        25.555955770287142     
 SH   5.2423160942678351        23.296846301464711     
 NH   10.420060276248194        25.555955770287142     
 SH   5.2423160942678351        23.296846301464711     
 NH   10.420060276248194        25.555955770287142     
 SH   5.2423160942678351        23.296846301464711     
 NH   10.420060276248194        25.555955770287142     
 SH   5.2423160942678351        23.296846301464711     
 NH   10.420060276248194        25.555955770287142     
 cg2d: Sum(rhs),rhsMax =   7.45369888798257E-02  7.83172989847693E+00
(PID.TID 0000.0001)      cg2d_init_res =   1.90659459426571E-01
(PID.TID 0000.0001)      cg2d_iters(min,last) =      -1      91
(PID.TID 0000.0001)      cg2d_last_res =   9.17543546811455E-14
(PID.TID 0000.0001) // =======================================================
(PID.TID 0000.0001) // Begin MONITOR dynamic field statistics
(PID.TID 0000.0001) // =======================================================
(PID.TID 0000.0001) %MON time_tsnumber                =                     8
(PID.TID 0000.0001) %MON time_secondsf                =   3.4560000000000E+05
(PID.TID 0000.0001) %MON dynstat_eta_max              =   2.1813824479660E+00
(PID.TID 0000.0001) %MON dynstat_eta_min              =  -1.5232878510331E+00
(PID.TID 0000.0001) %MON dynstat_eta_mean             =  -4.7443620304315E-04
(PID.TID 0000.0001) %MON dynstat_eta_sd               =   5.6830870304097E-01
(PID.TID 0000.0001) %MON dynstat_eta_del2             =   2.3777254811482E-03
(PID.TID 0000.0001) %MON dynstat_uvel_max             =   2.2486433917308E-01
(PID.TID 0000.0001) %MON dynstat_uvel_min             =  -3.5386673565066E-01
(PID.TID 0000.0001) %MON dynstat_uvel_mean            =  -5.3191288481324E-04
(PID.TID 0000.0001) %MON dynstat_uvel_sd              =   8.1773868336187E-03
(PID.TID 0000.0001) %MON dynstat_uvel_del2            =   9.3935275700510E-05
(PID.TID 0000.0001) %MON dynstat_vvel_max             =   3.2652727733179E-01
(PID.TID 0000.0001) %MON dynstat_vvel_min             =  -4.8528712621470E-01
(PID.TID 0000.0001) %MON dynstat_vvel_mean            =   4.1964450418123E-04
(PID.TID 0000.0001) %MON dynstat_vvel_sd              =   1.1565436436077E-02
(PID.TID 0000.0001) %MON dynstat_vvel_del2            =   1.0261268089807E-04
(PID.TID 0000.0001) %MON dynstat_wvel_max             =   1.5111339380005E-03
(PID.TID 0000.0001) %MON dynstat_wvel_min             =  -9.5245856495739E-04
(PID.TID 0000.0001) %MON dynstat_wvel_mean            =  -6.8186170453602E-23
(PID.TID 0000.0001) %MON dynstat_wvel_sd              =   4.7775351669016E-05
(PID.TID 0000.0001) %MON dynstat_wvel_del2            =   6.2234945054965E-07
(PID.TID 0000.0001) %MON dynstat_theta_max            =   2.9190552195656E+01
(PID.TID 0000.0001) %MON dynstat_theta_min            =  -1.8550806450587E+00
(PID.TID 0000.0001) %MON dynstat_theta_mean           =   3.4374401614911E+00
(PID.TID 0000.0001) %MON dynstat_theta_sd             =   4.1090655410318E+00
(PID.TID 0000.0001) %MON dynstat_theta_del2           =   5.0555532162026E-03
(PID.TID 0000.0001) %MON dynstat_salt_max             =   3.7442790798961E+01
(PID.TID 0000.0001) %MON dynstat_salt_min             =   3.1037363575676E+01
(PID.TID 0000.0001) %MON dynstat_salt_mean            =   3.4714999724791E+01
(PID.TID 0000.0001) %MON dynstat_salt_sd              =   2.7630966845126E-01
(PID.TID 0000.0001) %MON dynstat_salt_del2            =   8.5403880757477E-04
(PID.TID 0000.0001) %MON forcing_qnet_max             =   1.2704650302680E+02
(PID.TID 0000.0001) %MON forcing_qnet_min             =  -3.5209428523680E+01
(PID.TID 0000.0001) %MON forcing_qnet_mean            =  -7.5781570220573E-01
(PID.TID 0000.0001) %MON forcing_qnet_sd              =   2.2208404350233E+01
(PID.TID 0000.0001) %MON forcing_qnet_del2            =   1.1115902245919E-01
(PID.TID 0000.0001) %MON forcing_qsw_max              =   0.0000000000000E+00
(PID.TID 0000.0001) %MON forcing_qsw_min              =   0.0000000000000E+00
(PID.TID 0000.0001) %MON forcing_qsw_mean             =   0.0000000000000E+00
(PID.TID 0000.0001) %MON forcing_qsw_sd               =   0.0000000000000E+00
(PID.TID 0000.0001) %MON forcing_qsw_del2             =   0.0000000000000E+00
(PID.TID 0000.0001) %MON forcing_empmr_max            =   3.7600374110707E-05
(PID.TID 0000.0001) %MON forcing_empmr_min            =  -2.9685016686068E-05
(PID.TID 0000.0001) %MON forcing_empmr_mean           =   1.4208375872388E-06
(PID.TID 0000.0001) %MON forcing_empmr_sd             =   1.1923373923198E-05
(PID.TID 0000.0001) %MON forcing_empmr_del2           =   7.4400852469101E-08
(PID.TID 0000.0001) %MON forcing_fu_max               =   1.6004334390163E-01
(PID.TID 0000.0001) %MON forcing_fu_min               =  -1.0329221189022E-01
(PID.TID 0000.0001) %MON forcing_fu_mean              =   4.1280488583042E-03
(PID.TID 0000.0001) %MON forcing_fu_sd                =   5.5800359441598E-02
(PID.TID 0000.0001) %MON forcing_fu_del2              =   3.2370368543278E-04
(PID.TID 0000.0001) %MON forcing_fv_max               =   8.4633164107800E-02
(PID.TID 0000.0001) %MON forcing_fv_min               =  -7.0490099489689E-02
(PID.TID 0000.0001) %MON forcing_fv_mean              =   2.8803575798275E-03
(PID.TID 0000.0001) %MON forcing_fv_sd                =   2.2193297771215E-02
(PID.TID 0000.0001) %MON forcing_fv_del2              =   2.1170835219132E-04
(PID.TID 0000.0001) %MON trAdv_CFL_u_max              =   2.4068409111400E-02
(PID.TID 0000.0001) %MON trAdv_CFL_v_max              =   4.2326303804008E-02
(PID.TID 0000.0001) %MON trAdv_CFL_w_max              =   1.3936061068289E-01
(PID.TID 0000.0001) %MON advcfl_uvel_max              =   3.4905610352132E-02
(PID.TID 0000.0001) %MON advcfl_vvel_max              =   4.7141752776869E-02
(PID.TID 0000.0001) %MON advcfl_wvel_max              =   1.6805277858275E-01
(PID.TID 0000.0001) %MON advcfl_W_hf_max              =   1.8040960053737E-01
(PID.TID 0000.0001) %MON pe_b_mean                    =   3.7471070734545E-04
(PID.TID 0000.0001) %MON ke_max                       =   6.4498605099550E-02
(PID.TID 0000.0001) %MON ke_mean                      =   9.1938466199971E-05
(PID.TID 0000.0001) %MON ke_vol                       =   1.4101703507225E+18
(PID.TID 0000.0001) %MON vort_r_min                   =  -1.1019909403564E-06
(PID.TID 0000.0001) %MON vort_r_max                   =   1.0883488547808E-06
(PID.TID 0000.0001) %MON vort_a_mean                  =  -1.9976608796704E-05
(PID.TID 0000.0001) %MON vort_a_sd                    =   7.3718610092214E-05
(PID.TID 0000.0001) %MON vort_p_mean                  =  -2.3730263022063E-05
(PID.TID 0000.0001) %MON vort_p_sd                    =   1.0369750059110E-04
(PID.TID 0000.0001) %MON surfExpan_theta_mean         =  -3.5689833321492E-06
(PID.TID 0000.0001) %MON surfExpan_salt_mean          =  -5.8512584488898E-07
(PID.TID 0000.0001) // =======================================================
(PID.TID 0000.0001) // End MONITOR dynamic field statistics
(PID.TID 0000.0001) // =======================================================
 SH   5.2477054949058584        23.300073459300677     
 NH   10.410700657775294        25.556757676327777     
 SH   5.2477054949058584        23.300073459300677     
 NH   10.410700657775294        25.556757676327777     
 SH   5.2477054949058584        23.300073459300677     
 NH   10.410700657775294        25.556757676327777     
 SH   5.2477054949058584        23.300073459300677     
 NH   10.410700657775294        25.556757676327777     
 SH   5.2477054949058584        23.300073459300677     
 NH   10.410700657775294        25.556757676327777     
 SH   5.2477054949058584        23.300073459300677     
 NH   10.410700657775294        25.556757676327777     
 cg2d: Sum(rhs),rhsMax =   8.81669432077914E-02  7.51087934191376E+00
(PID.TID 0000.0001)      cg2d_init_res =   2.01247866011954E-01
(PID.TID 0000.0001)      cg2d_iters(min,last) =      -1      91
(PID.TID 0000.0001)      cg2d_last_res =   8.39275989094989E-14
(PID.TID 0000.0001) // =======================================================
(PID.TID 0000.0001) // Begin MONITOR dynamic field statistics
(PID.TID 0000.0001) // =======================================================
(PID.TID 0000.0001) %MON time_tsnumber                =                     9
(PID.TID 0000.0001) %MON time_secondsf                =   3.8880000000000E+05
(PID.TID 0000.0001) %MON dynstat_eta_max              =   2.1623374271136E+00
(PID.TID 0000.0001) %MON dynstat_eta_min              =  -1.5033467449869E+00
(PID.TID 0000.0001) %MON dynstat_eta_mean             =  -5.3374072842358E-04
(PID.TID 0000.0001) %MON dynstat_eta_sd               =   5.5936794607792E-01
(PID.TID 0000.0001) %MON dynstat_eta_del2             =   2.3104134699619E-03
(PID.TID 0000.0001) %MON dynstat_uvel_max             =   2.4692145436370E-01
(PID.TID 0000.0001) %MON dynstat_uvel_min             =  -3.8941815143116E-01
(PID.TID 0000.0001) %MON dynstat_uvel_mean            =  -3.9688262083266E-04
(PID.TID 0000.0001) %MON dynstat_uvel_sd              =   9.2445216981685E-03
(PID.TID 0000.0001) %MON dynstat_uvel_del2            =   1.0238386143037E-04
(PID.TID 0000.0001) %MON dynstat_vvel_max             =   3.6210344746717E-01
(PID.TID 0000.0001) %MON dynstat_vvel_min             =  -5.3589043978411E-01
(PID.TID 0000.0001) %MON dynstat_vvel_mean            =   1.4420643395769E-04
(PID.TID 0000.0001) %MON dynstat_vvel_sd              =   1.2557488866261E-02
(PID.TID 0000.0001) %MON dynstat_vvel_del2            =   1.0955649969382E-04
(PID.TID 0000.0001) %MON dynstat_wvel_max             =   1.6761218388910E-03
(PID.TID 0000.0001) %MON dynstat_wvel_min             =  -1.0555112007361E-03
(PID.TID 0000.0001) %MON dynstat_wvel_mean            =   5.1707845927315E-22
(PID.TID 0000.0001) %MON dynstat_wvel_sd              =   5.2132852857366E-05
(PID.TID 0000.0001) %MON dynstat_wvel_del2            =   6.7381742098419E-07
(PID.TID 0000.0001) %MON dynstat_theta_max            =   2.9175538096650E+01
(PID.TID 0000.0001) %MON dynstat_theta_min            =  -1.8556622432403E+00
(PID.TID 0000.0001) %MON dynstat_theta_mean           =   3.4374939954595E+00
(PID.TID 0000.0001) %MON dynstat_theta_sd             =   4.1091894280160E+00
(PID.TID 0000.0001) %MON dynstat_theta_del2           =   5.0308909734279E-03
(PID.TID 0000.0001) %MON dynstat_salt_max             =   3.7443313582031E+01
(PID.TID 0000.0001) %MON dynstat_salt_min             =   3.1039122527122E+01
(PID.TID 0000.0001) %MON dynstat_salt_mean            =   3.4715006400799E+01
(PID.TID 0000.0001) %MON dynstat_salt_sd              =   2.7630871569720E-01
(PID.TID 0000.0001) %MON dynstat_salt_del2            =   8.5296818730265E-04
(PID.TID 0000.0001) %MON forcing_qnet_max             =   1.2603844408260E+02
(PID.TID 0000.0001) %MON forcing_qnet_min             =  -3.5210103370649E+01
(PID.TID 0000.0001) %MON forcing_qnet_mean            =  -7.5997275347833E-01
(PID.TID 0000.0001) %MON forcing_qnet_sd              =   2.2103567259804E+01
(PID.TID 0000.0001) %MON forcing_qnet_del2            =   1.1084247263765E-01
(PID.TID 0000.0001) %MON forcing_qsw_max              =   0.0000000000000E+00
(PID.TID 0000.0001) %MON forcing_qsw_min              =   0.0000000000000E+00
(PID.TID 0000.0001) %MON forcing_qsw_mean             =   0.0000000000000E+00
(PID.TID 0000.0001) %MON forcing_qsw_sd               =   0.0000000000000E+00
(PID.TID 0000.0001) %MON forcing_qsw_del2             =   0.0000000000000E+00
(PID.TID 0000.0001) %MON forcing_empmr_max            =   3.7600374110707E-05
(PID.TID 0000.0001) %MON forcing_empmr_min            =  -2.9685016686068E-05
(PID.TID 0000.0001) %MON forcing_empmr_mean           =   1.4208375872388E-06
(PID.TID 0000.0001) %MON forcing_empmr_sd             =   1.1923373923198E-05
(PID.TID 0000.0001) %MON forcing_empmr_del2           =   7.4400852469101E-08
(PID.TID 0000.0001) %MON forcing_fu_max               =   1.6004334390163E-01
(PID.TID 0000.0001) %MON forcing_fu_min               =  -1.0329221189022E-01
(PID.TID 0000.0001) %MON forcing_fu_mean              =   4.1280488583042E-03
(PID.TID 0000.0001) %MON forcing_fu_sd                =   5.5800359441598E-02
(PID.TID 0000.0001) %MON forcing_fu_del2              =   3.2370368543278E-04
(PID.TID 0000.0001) %MON forcing_fv_max               =   8.4633164107800E-02
(PID.TID 0000.0001) %MON forcing_fv_min               =  -7.0490099489689E-02
(PID.TID 0000.0001) %MON forcing_fv_mean              =   2.8803575798275E-03
(PID.TID 0000.0001) %MON forcing_fv_sd                =   2.2193297771215E-02
(PID.TID 0000.0001) %MON forcing_fv_del2              =   2.1170835219132E-04
(PID.TID 0000.0001) %MON trAdv_CFL_u_max              =   2.7028632475509E-02
(PID.TID 0000.0001) %MON trAdv_CFL_v_max              =   4.7532887879760E-02
(PID.TID 0000.0001) %MON trAdv_CFL_w_max              =   1.5728016457104E-01
(PID.TID 0000.0001) %MON advcfl_uvel_max              =   3.8412421650513E-02
(PID.TID 0000.0001) %MON advcfl_vvel_max              =   5.2057458900349E-02
(PID.TID 0000.0001) %MON advcfl_wvel_max              =   1.8650564262214E-01
(PID.TID 0000.0001) %MON advcfl_W_hf_max              =   2.0021929281494E-01
(PID.TID 0000.0001) %MON pe_b_mean                    =   3.6301346497912E-04
(PID.TID 0000.0001) %MON ke_max                       =   7.8709413625947E-02
(PID.TID 0000.0001) %MON ke_mean                      =   1.1128065940596E-04
(PID.TID 0000.0001) %MON ke_vol                       =   1.4101703507225E+18
(PID.TID 0000.0001) %MON vort_r_min                   =  -1.2095080414426E-06
(PID.TID 0000.0001) %MON vort_r_max                   =   1.2068263393628E-06
(PID.TID 0000.0001) %MON vort_a_mean                  =  -1.9976608796704E-05
(PID.TID 0000.0001) %MON vort_a_sd                    =   7.3718640245758E-05
(PID.TID 0000.0001) %MON vort_p_mean                  =  -2.3730263022063E-05
(PID.TID 0000.0001) %MON vort_p_sd                    =   1.0369751854816E-04
(PID.TID 0000.0001) %MON surfExpan_theta_mean         =  -4.3703073428783E-06
(PID.TID 0000.0001) %MON surfExpan_salt_mean          =  -5.0646578392391E-07
(PID.TID 0000.0001) // =======================================================
(PID.TID 0000.0001) // End MONITOR dynamic field statistics
(PID.TID 0000.0001) // =======================================================
 SH   5.2532022264413172        23.303131054158257     
 NH   10.401967103101356        25.558497180843233     
 SH   5.2532022264413172        23.303131054158257     
 NH   10.401967103101356        25.558497180843233     
 SH   5.2532022264413172        23.303131054158257     
 NH   10.401967103101356        25.558497180843233     
 SH   5.2532022264413172        23.303131054158257     
 NH   10.401967103101356        25.558497180843233     
 SH   5.2532022264413172        23.303131054158257     
 NH   10.401967103101356        25.558497180843233     
 SH   5.2532022264413172        23.303131054158257     
 NH   10.401967103101356        25.558497180843233     
 cg2d: Sum(rhs),rhsMax =   1.03733411494724E-01  7.14011975248343E+00
(PID.TID 0000.0001)      cg2d_init_res =   2.15513765249366E-01
(PID.TID 0000.0001)      cg2d_iters(min,last) =      -1      90
(PID.TID 0000.0001)      cg2d_last_res =   8.95461883553269E-14
(PID.TID 0000.0001) // =======================================================
(PID.TID 0000.0001) // Begin MONITOR dynamic field statistics
(PID.TID 0000.0001) // =======================================================
(PID.TID 0000.0001) %MON time_tsnumber                =                    10
(PID.TID 0000.0001) %MON time_secondsf                =   4.3200000000000E+05
(PID.TID 0000.0001) %MON dynstat_eta_max              =   2.1173250999544E+00
(PID.TID 0000.0001) %MON dynstat_eta_min              =  -1.4905581299143E+00
(PID.TID 0000.0001) %MON dynstat_eta_mean             =  -5.9304525380412E-04
(PID.TID 0000.0001) %MON dynstat_eta_sd               =   5.4870210546702E-01
(PID.TID 0000.0001) %MON dynstat_eta_del2             =   2.2487674650376E-03
(PID.TID 0000.0001) %MON dynstat_uvel_max             =   2.6710278541133E-01
(PID.TID 0000.0001) %MON dynstat_uvel_min             =  -4.2287284766774E-01
(PID.TID 0000.0001) %MON dynstat_uvel_mean            =  -2.5221323906865E-04
(PID.TID 0000.0001) %MON dynstat_uvel_sd              =   1.0314893839398E-02
(PID.TID 0000.0001) %MON dynstat_uvel_del2            =   1.1009361394884E-04
(PID.TID 0000.0001) %MON dynstat_vvel_max             =   3.9627851822473E-01
(PID.TID 0000.0001) %MON dynstat_vvel_min             =  -5.8372832632034E-01
(PID.TID 0000.0001) %MON dynstat_vvel_mean            =  -1.0825539101612E-04
(PID.TID 0000.0001) %MON dynstat_vvel_sd              =   1.3432242114722E-02
(PID.TID 0000.0001) %MON dynstat_vvel_del2            =   1.1501165588548E-04
(PID.TID 0000.0001) %MON dynstat_wvel_max             =   1.8338321465472E-03
(PID.TID 0000.0001) %MON dynstat_wvel_min             =  -1.1528031803873E-03
(PID.TID 0000.0001) %MON dynstat_wvel_mean            =  -3.4093085226801E-23
(PID.TID 0000.0001) %MON dynstat_wvel_sd              =   5.6073456533065E-05
(PID.TID 0000.0001) %MON dynstat_wvel_del2            =   7.1867175470300E-07
(PID.TID 0000.0001) %MON dynstat_theta_max            =   2.9160237826652E+01
(PID.TID 0000.0001) %MON dynstat_theta_min            =  -1.8561641965221E+00
(PID.TID 0000.0001) %MON dynstat_theta_mean           =   3.4375454472317E+00
(PID.TID 0000.0001) %MON dynstat_theta_sd             =   4.1093073532794E+00
(PID.TID 0000.0001) %MON dynstat_theta_del2           =   5.0085358001987E-03
(PID.TID 0000.0001) %MON dynstat_salt_max             =   3.7443878697489E+01
(PID.TID 0000.0001) %MON dynstat_salt_min             =   3.1040446222908E+01
(PID.TID 0000.0001) %MON dynstat_salt_mean            =   3.4715011562469E+01
(PID.TID 0000.0001) %MON dynstat_salt_sd              =   2.7631098327453E-01
(PID.TID 0000.0001) %MON dynstat_salt_del2            =   8.5200449844461E-04
(PID.TID 0000.0001) %MON forcing_qnet_max             =   1.2500245889118E+02
(PID.TID 0000.0001) %MON forcing_qnet_min             =  -3.5213794215839E+01
(PID.TID 0000.0001) %MON forcing_qnet_mean            =  -7.6097965876934E-01
(PID.TID 0000.0001) %MON forcing_qnet_sd              =   2.1996517230352E+01
(PID.TID 0000.0001) %MON forcing_qnet_del2            =   1.1054080111342E-01
(PID.TID 0000.0001) %MON forcing_qsw_max              =   0.0000000000000E+00
(PID.TID 0000.0001) %MON forcing_qsw_min              =   0.0000000000000E+00
(PID.TID 0000.0001) %MON forcing_qsw_mean             =   0.0000000000000E+00
(PID.TID 0000.0001) %MON forcing_qsw_sd               =   0.0000000000000E+00
(PID.TID 0000.0001) %MON forcing_qsw_del2             =   0.0000000000000E+00
(PID.TID 0000.0001) %MON forcing_empmr_max            =   3.7600374110707E-05
(PID.TID 0000.0001) %MON forcing_empmr_min            =  -2.9685016686068E-05
(PID.TID 0000.0001) %MON forcing_empmr_mean           =   1.4208375872388E-06
(PID.TID 0000.0001) %MON forcing_empmr_sd             =   1.1923373923198E-05
(PID.TID 0000.0001) %MON forcing_empmr_del2           =   7.4400852469101E-08
(PID.TID 0000.0001) %MON forcing_fu_max               =   1.6004334390163E-01
(PID.TID 0000.0001) %MON forcing_fu_min               =  -1.0329221189022E-01
(PID.TID 0000.0001) %MON forcing_fu_mean              =   4.1280488583042E-03
(PID.TID 0000.0001) %MON forcing_fu_sd                =   5.5800359441598E-02
(PID.TID 0000.0001) %MON forcing_fu_del2              =   3.2370368543278E-04
(PID.TID 0000.0001) %MON forcing_fv_max               =   8.4633164107800E-02
(PID.TID 0000.0001) %MON forcing_fv_min               =  -7.0490099489689E-02
(PID.TID 0000.0001) %MON forcing_fv_mean              =   2.8803575798275E-03
(PID.TID 0000.0001) %MON forcing_fv_sd                =   2.2193297771215E-02
(PID.TID 0000.0001) %MON forcing_fv_del2              =   2.1170835219132E-04
(PID.TID 0000.0001) %MON trAdv_CFL_u_max              =   3.0091612108443E-02
(PID.TID 0000.0001) %MON trAdv_CFL_v_max              =   5.2489379614871E-02
(PID.TID 0000.0001) %MON trAdv_CFL_w_max              =   1.7455015271046E-01
(PID.TID 0000.0001) %MON advcfl_uvel_max              =   4.1712411374429E-02
(PID.TID 0000.0001) %MON advcfl_vvel_max              =   5.6704525963614E-02
(PID.TID 0000.0001) %MON advcfl_wvel_max              =   2.0416429069289E-01
(PID.TID 0000.0001) %MON advcfl_W_hf_max              =   2.1917637089090E-01
(PID.TID 0000.0001) %MON pe_b_mean                    =   3.4930189963366E-04
(PID.TID 0000.0001) %MON ke_max                       =   9.3493783917264E-02
(PID.TID 0000.0001) %MON ke_mean                      =   1.3124168982596E-04
(PID.TID 0000.0001) %MON ke_vol                       =   1.4101703507225E+18
(PID.TID 0000.0001) %MON vort_r_min                   =  -1.3092010681079E-06
(PID.TID 0000.0001) %MON vort_r_max                   =   1.3212544760769E-06
(PID.TID 0000.0001) %MON vort_a_mean                  =  -1.9976608796704E-05
(PID.TID 0000.0001) %MON vort_a_sd                    =   7.3718672530059E-05
(PID.TID 0000.0001) %MON vort_p_mean                  =  -2.3730263022063E-05
(PID.TID 0000.0001) %MON vort_p_sd                    =   1.0369753751434E-04
(PID.TID 0000.0001) %MON surfExpan_theta_mean         =  -4.0153708575676E-06
(PID.TID 0000.0001) %MON surfExpan_salt_mean          =  -3.7100492511307E-07
(PID.TID 0000.0001) // =======================================================
(PID.TID 0000.0001) // End MONITOR dynamic field statistics
(PID.TID 0000.0001) // =======================================================
 SH   5.2587156549950009        23.305849179002962     
 NH   10.394147743097108        25.560636710609288     
 SH   5.2587156549950009        23.305849179002962     
 NH   10.394147743097108        25.560636710609288     
 SH   5.2587156549950009        23.305849179002962     
 NH   10.394147743097108        25.560636710609288     
 SH   5.2587156549950009        23.305849179002962     
 NH   10.394147743097108        25.560636710609288     
 SH   5.2587156549950009        23.305849179002962     
 NH   10.394147743097108        25.560636710609288     
 SH   5.2587156549950009        23.305849179002962     
 NH   10.394147743097108        25.560636710609288     
 cg2d: Sum(rhs),rhsMax =   1.21696903841520E-01  6.73087533516191E+00
(PID.TID 0000.0001)      cg2d_init_res =   2.34235427666632E-01
(PID.TID 0000.0001)      cg2d_iters(min,last) =      -1      91
(PID.TID 0000.0001)      cg2d_last_res =   8.01319095969007E-14
(PID.TID 0000.0001) // =======================================================
(PID.TID 0000.0001) // Begin MONITOR dynamic field statistics
(PID.TID 0000.0001) // =======================================================
(PID.TID 0000.0001) %MON time_tsnumber                =                    11
(PID.TID 0000.0001) %MON time_secondsf                =   4.7520000000000E+05
(PID.TID 0000.0001) %MON dynstat_eta_max              =   2.0574203563322E+00
(PID.TID 0000.0001) %MON dynstat_eta_min              =  -1.4718022645691E+00
(PID.TID 0000.0001) %MON dynstat_eta_mean             =  -6.5234977918443E-04
(PID.TID 0000.0001) %MON dynstat_eta_sd               =   5.3759416176755E-01
(PID.TID 0000.0001) %MON dynstat_eta_del2             =   2.1915366388640E-03
(PID.TID 0000.0001) %MON dynstat_uvel_max             =   2.8533286624932E-01
(PID.TID 0000.0001) %MON dynstat_uvel_min             =  -4.5413834029927E-01
(PID.TID 0000.0001) %MON dynstat_uvel_mean            =  -1.0592192683986E-04
(PID.TID 0000.0001) %MON dynstat_uvel_sd              =   1.1378562222608E-02
(PID.TID 0000.0001) %MON dynstat_uvel_del2            =   1.1710429117452E-04
(PID.TID 0000.0001) %MON dynstat_vvel_max             =   4.2898559494838E-01
(PID.TID 0000.0001) %MON dynstat_vvel_min             =  -6.2857644394949E-01
(PID.TID 0000.0001) %MON dynstat_vvel_mean            =  -3.1120911694962E-04
(PID.TID 0000.0001) %MON dynstat_vvel_sd              =   1.4192061940440E-02
(PID.TID 0000.0001) %MON dynstat_vvel_del2            =   1.1902036942047E-04
(PID.TID 0000.0001) %MON dynstat_wvel_max             =   1.9836746401767E-03
(PID.TID 0000.0001) %MON dynstat_wvel_min             =  -1.2435931667172E-03
(PID.TID 0000.0001) %MON dynstat_wvel_mean            =   4.7730319317521E-22
(PID.TID 0000.0001) %MON dynstat_wvel_sd              =   5.9602446981374E-05
(PID.TID 0000.0001) %MON dynstat_wvel_del2            =   7.5701274475294E-07
(PID.TID 0000.0001) %MON dynstat_theta_max            =   2.9144641102776E+01
(PID.TID 0000.0001) %MON dynstat_theta_min            =  -1.8565927821695E+00
(PID.TID 0000.0001) %MON dynstat_theta_mean           =   3.4375861836036E+00
(PID.TID 0000.0001) %MON dynstat_theta_sd             =   4.1093885636563E+00
(PID.TID 0000.0001) %MON dynstat_theta_del2           =   4.9884140188062E-03
(PID.TID 0000.0001) %MON dynstat_salt_max             =   3.7444474705316E+01
(PID.TID 0000.0001) %MON dynstat_salt_min             =   3.1041353714161E+01
(PID.TID 0000.0001) %MON dynstat_salt_mean            =   3.4715014979354E+01
(PID.TID 0000.0001) %MON dynstat_salt_sd              =   2.7631601923976E-01
(PID.TID 0000.0001) %MON dynstat_salt_del2            =   8.5116513546669E-04
(PID.TID 0000.0001) %MON forcing_qnet_max             =   1.2401843013947E+02
(PID.TID 0000.0001) %MON forcing_qnet_min             =  -3.5221974174381E+01
(PID.TID 0000.0001) %MON forcing_qnet_mean            =  -7.6143089015327E-01
(PID.TID 0000.0001) %MON forcing_qnet_sd              =   2.1896269594414E+01
(PID.TID 0000.0001) %MON forcing_qnet_del2            =   1.1027657879454E-01
(PID.TID 0000.0001) %MON forcing_qsw_max              =   0.0000000000000E+00
(PID.TID 0000.0001) %MON forcing_qsw_min              =   0.0000000000000E+00
(PID.TID 0000.0001) %MON forcing_qsw_mean             =   0.0000000000000E+00
(PID.TID 0000.0001) %MON forcing_qsw_sd               =   0.0000000000000E+00
(PID.TID 0000.0001) %MON forcing_qsw_del2             =   0.0000000000000E+00
(PID.TID 0000.0001) %MON forcing_empmr_max            =   3.7600374110707E-05
(PID.TID 0000.0001) %MON forcing_empmr_min            =  -2.9685016686068E-05
(PID.TID 0000.0001) %MON forcing_empmr_mean           =   1.4208375872388E-06
(PID.TID 0000.0001) %MON forcing_empmr_sd             =   1.1923373923198E-05
(PID.TID 0000.0001) %MON forcing_empmr_del2           =   7.4400852469101E-08
(PID.TID 0000.0001) %MON forcing_fu_max               =   1.6004334390163E-01
(PID.TID 0000.0001) %MON forcing_fu_min               =  -1.0329221189022E-01
(PID.TID 0000.0001) %MON forcing_fu_mean              =   4.1280488583042E-03
(PID.TID 0000.0001) %MON forcing_fu_sd                =   5.5800359441598E-02
(PID.TID 0000.0001) %MON forcing_fu_del2              =   3.2370368543278E-04
(PID.TID 0000.0001) %MON forcing_fv_max               =   8.4633164107800E-02
(PID.TID 0000.0001) %MON forcing_fv_min               =  -7.0490099489689E-02
(PID.TID 0000.0001) %MON forcing_fv_mean              =   2.8803575798275E-03
(PID.TID 0000.0001) %MON forcing_fv_sd                =   2.2193297771215E-02
(PID.TID 0000.0001) %MON forcing_fv_del2              =   2.1170835219132E-04
(PID.TID 0000.0001) %MON trAdv_CFL_u_max              =   3.3045612082698E-02
(PID.TID 0000.0001) %MON trAdv_CFL_v_max              =   5.7175003391599E-02
(PID.TID 0000.0001) %MON trAdv_CFL_w_max              =   1.9107683616129E-01
(PID.TID 0000.0001) %MON advcfl_uvel_max              =   4.4796456844985E-02
(PID.TID 0000.0001) %MON advcfl_vvel_max              =   6.1061160952620E-02
(PID.TID 0000.0001) %MON advcfl_wvel_max              =   2.2096768513522E-01
(PID.TID 0000.0001) %MON advcfl_W_hf_max              =   2.3721530904222E-01
(PID.TID 0000.0001) %MON pe_b_mean                    =   3.3530259430737E-04
(PID.TID 0000.0001) %MON ke_max                       =   1.0857374988067E-01
(PID.TID 0000.0001) %MON ke_mean                      =   1.5145806090109E-04
(PID.TID 0000.0001) %MON ke_vol                       =   1.4101703507225E+18
(PID.TID 0000.0001) %MON vort_r_min                   =  -1.4006896833146E-06
(PID.TID 0000.0001) %MON vort_r_max                   =   1.4314550776148E-06
(PID.TID 0000.0001) %MON vort_a_mean                  =  -1.9976608796704E-05
(PID.TID 0000.0001) %MON vort_a_sd                    =   7.3718704848210E-05
(PID.TID 0000.0001) %MON vort_p_mean                  =  -2.3730263022063E-05
(PID.TID 0000.0001) %MON vort_p_sd                    =   1.0369755364875E-04
(PID.TID 0000.0001) %MON surfExpan_theta_mean         =  -3.0652696303745E-06
(PID.TID 0000.0001) %MON surfExpan_salt_mean          =  -2.2589481824183E-07
(PID.TID 0000.0001) // =======================================================
(PID.TID 0000.0001) // End MONITOR dynamic field statistics
(PID.TID 0000.0001) // =======================================================
 SH   5.2641361922430292        23.308207508682585     
 NH   10.387263635222325        25.562700723406124     
 SH   5.2641361922430292        23.308207508682585     
 NH   10.387263635222325        25.562700723406124     
 SH   5.2641361922430292        23.308207508682585     
 NH   10.387263635222325        25.562700723406124     
 SH   5.2641361922430292        23.308207508682585     
 NH   10.387263635222325        25.562700723406124     
 SH   5.2641361922430292        23.308207508682585     
 NH   10.387263635222325        25.562700723406124     
 SH   5.2641361922430292        23.308207508682585     
 NH   10.387263635222325        25.562700723406124     
 cg2d: Sum(rhs),rhsMax =   1.42511098064750E-01  6.29834734731792E+00
(PID.TID 0000.0001)      cg2d_init_res =   2.56946986768133E-01
(PID.TID 0000.0001)      cg2d_iters(min,last) =      -1      92
(PID.TID 0000.0001)      cg2d_last_res =   7.08058864175835E-14
(PID.TID 0000.0001) // =======================================================
(PID.TID 0000.0001) // Begin MONITOR dynamic field statistics
(PID.TID 0000.0001) // =======================================================
(PID.TID 0000.0001) %MON time_tsnumber                =                    12
(PID.TID 0000.0001) %MON time_secondsf                =   5.1840000000000E+05
(PID.TID 0000.0001) %MON dynstat_eta_max              =   1.9920210406158E+00
(PID.TID 0000.0001) %MON dynstat_eta_min              =  -1.4426487183770E+00
(PID.TID 0000.0001) %MON dynstat_eta_mean             =  -7.1165430456470E-04
(PID.TID 0000.0001) %MON dynstat_eta_sd               =   5.2742413282995E-01
(PID.TID 0000.0001) %MON dynstat_eta_del2             =   2.1371338279660E-03
(PID.TID 0000.0001) %MON dynstat_uvel_max             =   3.0178279282052E-01
(PID.TID 0000.0001) %MON dynstat_uvel_min             =  -4.8309844566278E-01
(PID.TID 0000.0001) %MON dynstat_uvel_mean            =   3.3897585602463E-05
(PID.TID 0000.0001) %MON dynstat_uvel_sd              =   1.2424756353095E-02
(PID.TID 0000.0001) %MON dynstat_uvel_del2            =   1.2345569938038E-04
(PID.TID 0000.0001) %MON dynstat_vvel_max             =   4.6012757155267E-01
(PID.TID 0000.0001) %MON dynstat_vvel_min             =  -6.7019952552637E-01
(PID.TID 0000.0001) %MON dynstat_vvel_mean            =  -4.4963435283490E-04
(PID.TID 0000.0001) %MON dynstat_vvel_sd              =   1.4839936903288E-02
(PID.TID 0000.0001) %MON dynstat_vvel_del2            =   1.2165625681699E-04
(PID.TID 0000.0001) %MON dynstat_wvel_max             =   2.1246216401119E-03
(PID.TID 0000.0001) %MON dynstat_wvel_min             =  -1.3270576287669E-03
(PID.TID 0000.0001) %MON dynstat_wvel_mean            =   3.5797739488141E-22
(PID.TID 0000.0001) %MON dynstat_wvel_sd              =   6.2725470674813E-05
(PID.TID 0000.0001) %MON dynstat_wvel_del2            =   7.8898634917303E-07
(PID.TID 0000.0001) %MON dynstat_theta_max            =   2.9128920435892E+01
(PID.TID 0000.0001) %MON dynstat_theta_min            =  -1.8569545185269E+00
(PID.TID 0000.0001) %MON dynstat_theta_mean           =   3.4376135636007E+00
(PID.TID 0000.0001) %MON dynstat_theta_sd             =   4.1094252930265E+00
(PID.TID 0000.0001) %MON dynstat_theta_del2           =   4.9714424511094E-03
(PID.TID 0000.0001) %MON dynstat_salt_max             =   3.7445087933176E+01
(PID.TID 0000.0001) %MON dynstat_salt_min             =   3.1041916804427E+01
(PID.TID 0000.0001) %MON dynstat_salt_mean            =   3.4715016841978E+01
(PID.TID 0000.0001) %MON dynstat_salt_sd              =   2.7632283445440E-01
(PID.TID 0000.0001) %MON dynstat_salt_del2            =   8.5045499776971E-04
(PID.TID 0000.0001) %MON forcing_qnet_max             =   1.2313400537086E+02
(PID.TID 0000.0001) %MON forcing_qnet_min             =  -3.5234046102201E+01
(PID.TID 0000.0001) %MON forcing_qnet_mean            =  -7.6179752403340E-01
(PID.TID 0000.0001) %MON forcing_qnet_sd              =   2.1807809677973E+01
(PID.TID 0000.0001) %MON forcing_qnet_del2            =   1.1005663933986E-01
(PID.TID 0000.0001) %MON forcing_qsw_max              =   0.0000000000000E+00
(PID.TID 0000.0001) %MON forcing_qsw_min              =   0.0000000000000E+00
(PID.TID 0000.0001) %MON forcing_qsw_mean             =   0.0000000000000E+00
(PID.TID 0000.0001) %MON forcing_qsw_sd               =   0.0000000000000E+00
(PID.TID 0000.0001) %MON forcing_qsw_del2             =   0.0000000000000E+00
(PID.TID 0000.0001) %MON forcing_empmr_max            =   3.7600374110707E-05
(PID.TID 0000.0001) %MON forcing_empmr_min            =  -2.9685016686068E-05
(PID.TID 0000.0001) %MON forcing_empmr_mean           =   1.4208375872388E-06
(PID.TID 0000.0001) %MON forcing_empmr_sd             =   1.1923373923198E-05
(PID.TID 0000.0001) %MON forcing_empmr_del2           =   7.4400852469101E-08
(PID.TID 0000.0001) %MON forcing_fu_max               =   1.6004334390163E-01
(PID.TID 0000.0001) %MON forcing_fu_min               =  -1.0329221189022E-01
(PID.TID 0000.0001) %MON forcing_fu_mean              =   4.1280488583042E-03
(PID.TID 0000.0001) %MON forcing_fu_sd                =   5.5800359441598E-02
(PID.TID 0000.0001) %MON forcing_fu_del2              =   3.2370368543278E-04
(PID.TID 0000.0001) %MON forcing_fv_max               =   8.4633164107800E-02
(PID.TID 0000.0001) %MON forcing_fv_min               =  -7.0490099489689E-02
(PID.TID 0000.0001) %MON forcing_fv_mean              =   2.8803575798275E-03
(PID.TID 0000.0001) %MON forcing_fv_sd                =   2.2193297771215E-02
(PID.TID 0000.0001) %MON forcing_fv_del2              =   2.1170835219132E-04
(PID.TID 0000.0001) %MON trAdv_CFL_u_max              =   3.5883060362353E-02
(PID.TID 0000.0001) %MON trAdv_CFL_v_max              =   6.1567785379270E-02
(PID.TID 0000.0001) %MON trAdv_CFL_w_max              =   2.0680308993424E-01
(PID.TID 0000.0001) %MON advcfl_uvel_max              =   4.7653097641460E-02
(PID.TID 0000.0001) %MON advcfl_vvel_max              =   6.5104509550829E-02
(PID.TID 0000.0001) %MON advcfl_wvel_max              =   2.3679164309332E-01
(PID.TID 0000.0001) %MON advcfl_W_hf_max              =   2.5420279332077E-01
(PID.TID 0000.0001) %MON pe_b_mean                    =   3.2273641651408E-04
(PID.TID 0000.0001) %MON ke_max                       =   1.2368775153714E-01
(PID.TID 0000.0001) %MON ke_mean                      =   1.7155506635132E-04
(PID.TID 0000.0001) %MON ke_vol                       =   1.4101703507225E+18
(PID.TID 0000.0001) %MON vort_r_min                   =  -1.4836120620450E-06
(PID.TID 0000.0001) %MON vort_r_max                   =   1.5370000038374E-06
(PID.TID 0000.0001) %MON vort_a_mean                  =  -1.9976608796704E-05
(PID.TID 0000.0001) %MON vort_a_sd                    =   7.3718735104071E-05
(PID.TID 0000.0001) %MON vort_p_mean                  =  -2.3730263022063E-05
(PID.TID 0000.0001) %MON vort_p_sd                    =   1.0369756238107E-04
(PID.TID 0000.0001) %MON surfExpan_theta_mean         =  -1.9800506357549E-06
(PID.TID 0000.0001) %MON surfExpan_salt_mean          =  -1.0449631760537E-07
(PID.TID 0000.0001) // =======================================================
(PID.TID 0000.0001) // End MONITOR dynamic field statistics
(PID.TID 0000.0001) // =======================================================
 SH   5.2693388130081189        23.310260808741020     
 NH   10.381099885797994        25.564394919535118     
 SH   5.2693388130081189        23.310260808741020     
 NH   10.381099885797994        25.564394919535118     
 SH   5.2693388130081189        23.310260808741020     
 NH   10.381099885797994        25.564394919535118     
 SH   5.2693388130081189        23.310260808741020     
 NH   10.381099885797994        25.564394919535118     
 SH   5.2693388130081189        23.310260808741020     
 NH   10.381099885797994        25.564394919535118     
 SH   5.2693388130081189        23.310260808741020     
 NH   10.381099885797994        25.564394919535118     
 cg2d: Sum(rhs),rhsMax =   1.67290182010639E-01  5.83442550396309E+00
(PID.TID 0000.0001)      cg2d_init_res =   2.83163426498427E-01
(PID.TID 0000.0001)      cg2d_iters(min,last) =      -1      92
(PID.TID 0000.0001)      cg2d_last_res =   7.09032644359879E-14
(PID.TID 0000.0001) // =======================================================
(PID.TID 0000.0001) // Begin MONITOR dynamic field statistics
(PID.TID 0000.0001) // =======================================================
(PID.TID 0000.0001) %MON time_tsnumber                =                    13
(PID.TID 0000.0001) %MON time_secondsf                =   5.6160000000000E+05
(PID.TID 0000.0001) %MON dynstat_eta_max              =   1.9246583421835E+00
(PID.TID 0000.0001) %MON dynstat_eta_min              =  -1.4051882926014E+00
(PID.TID 0000.0001) %MON dynstat_eta_mean             =  -7.7095882994518E-04
(PID.TID 0000.0001) %MON dynstat_eta_sd               =   5.1938250977064E-01
(PID.TID 0000.0001) %MON dynstat_eta_del2             =   2.0847738534603E-03
(PID.TID 0000.0001) %MON dynstat_uvel_max             =   3.1771325174486E-01
(PID.TID 0000.0001) %MON dynstat_uvel_min             =  -5.0962466644970E-01
(PID.TID 0000.0001) %MON dynstat_uvel_mean            =   1.6057045851363E-04
(PID.TID 0000.0001) %MON dynstat_uvel_sd              =   1.3442762234622E-02
(PID.TID 0000.0001) %MON dynstat_uvel_del2            =   1.2919581698165E-04
(PID.TID 0000.0001) %MON dynstat_vvel_max             =   4.8958407571973E-01
(PID.TID 0000.0001) %MON dynstat_vvel_min             =  -7.0842659908508E-01
(PID.TID 0000.0001) %MON dynstat_vvel_mean            =  -5.2051911928531E-04
(PID.TID 0000.0001) %MON dynstat_vvel_sd              =   1.5380721938654E-02
(PID.TID 0000.0001) %MON dynstat_vvel_del2            =   1.2302739365760E-04
(PID.TID 0000.0001) %MON dynstat_wvel_max             =   2.2560291716837E-03
(PID.TID 0000.0001) %MON dynstat_wvel_min             =  -1.4024699804435E-03
(PID.TID 0000.0001) %MON dynstat_wvel_mean            =   2.6706250094327E-22
(PID.TID 0000.0001) %MON dynstat_wvel_sd              =   6.5454170104256E-05
(PID.TID 0000.0001) %MON dynstat_wvel_del2            =   8.1484725278929E-07
(PID.TID 0000.0001) %MON dynstat_theta_max            =   2.9113314388200E+01
(PID.TID 0000.0001) %MON dynstat_theta_min            =  -1.8572595405813E+00
(PID.TID 0000.0001) %MON dynstat_theta_mean           =   3.4376290283016E+00
(PID.TID 0000.0001) %MON dynstat_theta_sd             =   4.1094241803486E+00
(PID.TID 0000.0001) %MON dynstat_theta_del2           =   4.9576239271257E-03
(PID.TID 0000.0001) %MON dynstat_salt_max             =   3.7445706203450E+01
(PID.TID 0000.0001) %MON dynstat_salt_min             =   3.1042247272416E+01
(PID.TID 0000.0001) %MON dynstat_salt_mean            =   3.4715017597311E+01
(PID.TID 0000.0001) %MON dynstat_salt_sd              =   2.7633018837649E-01
(PID.TID 0000.0001) %MON dynstat_salt_del2            =   8.4987175731102E-04
(PID.TID 0000.0001) %MON forcing_qnet_max             =   1.2235610963815E+02
(PID.TID 0000.0001) %MON forcing_qnet_min             =  -3.5248328241757E+01
(PID.TID 0000.0001) %MON forcing_qnet_mean            =  -7.6244491354926E-01
(PID.TID 0000.0001) %MON forcing_qnet_sd              =   2.1731426890341E+01
(PID.TID 0000.0001) %MON forcing_qnet_del2            =   1.0987410553961E-01
(PID.TID 0000.0001) %MON forcing_qsw_max              =   0.0000000000000E+00
(PID.TID 0000.0001) %MON forcing_qsw_min              =   0.0000000000000E+00
(PID.TID 0000.0001) %MON forcing_qsw_mean             =   0.0000000000000E+00
(PID.TID 0000.0001) %MON forcing_qsw_sd               =   0.0000000000000E+00
(PID.TID 0000.0001) %MON forcing_qsw_del2             =   0.0000000000000E+00
(PID.TID 0000.0001) %MON forcing_empmr_max            =   3.7600374110707E-05
(PID.TID 0000.0001) %MON forcing_empmr_min            =  -2.9685016686068E-05
(PID.TID 0000.0001) %MON forcing_empmr_mean           =   1.4208375872388E-06
(PID.TID 0000.0001) %MON forcing_empmr_sd             =   1.1923373923198E-05
(PID.TID 0000.0001) %MON forcing_empmr_del2           =   7.4400852469101E-08
(PID.TID 0000.0001) %MON forcing_fu_max               =   1.6004334390163E-01
(PID.TID 0000.0001) %MON forcing_fu_min               =  -1.0329221189022E-01
(PID.TID 0000.0001) %MON forcing_fu_mean              =   4.1280488583042E-03
(PID.TID 0000.0001) %MON forcing_fu_sd                =   5.5800359441598E-02
(PID.TID 0000.0001) %MON forcing_fu_del2              =   3.2370368543278E-04
(PID.TID 0000.0001) %MON forcing_fv_max               =   8.4633164107800E-02
(PID.TID 0000.0001) %MON forcing_fv_min               =  -7.0490099489689E-02
(PID.TID 0000.0001) %MON forcing_fv_mean              =   2.8803575798275E-03
(PID.TID 0000.0001) %MON forcing_fv_sd                =   2.2193297771215E-02
(PID.TID 0000.0001) %MON forcing_fv_del2              =   2.1170835219132E-04
(PID.TID 0000.0001) %MON trAdv_CFL_u_max              =   3.8602383964961E-02
(PID.TID 0000.0001) %MON trAdv_CFL_v_max              =   6.5644681639091E-02
(PID.TID 0000.0001) %MON trAdv_CFL_w_max              =   2.2161269161298E-01
(PID.TID 0000.0001) %MON advcfl_uvel_max              =   5.0269658718331E-02
(PID.TID 0000.0001) %MON advcfl_vvel_max              =   6.8817963202782E-02
(PID.TID 0000.0001) %MON advcfl_wvel_max              =   2.5157058063153E-01
(PID.TID 0000.0001) %MON advcfl_W_hf_max              =   2.7006841744267E-01
(PID.TID 0000.0001) %MON pe_b_mean                    =   3.1297005417854E-04
(PID.TID 0000.0001) %MON ke_max                       =   1.3901058207322E-01
(PID.TID 0000.0001) %MON ke_mean                      =   1.9118966198228E-04
(PID.TID 0000.0001) %MON ke_vol                       =   1.4101703507225E+18
(PID.TID 0000.0001) %MON vort_r_min                   =  -1.5578080019587E-06
(PID.TID 0000.0001) %MON vort_r_max                   =   1.6374151057945E-06
(PID.TID 0000.0001) %MON vort_a_mean                  =  -1.9976608796704E-05
(PID.TID 0000.0001) %MON vort_a_sd                    =   7.3718761610168E-05
(PID.TID 0000.0001) %MON vort_p_mean                  =  -2.3730263022063E-05
(PID.TID 0000.0001) %MON vort_p_sd                    =   1.0369755999395E-04
(PID.TID 0000.0001) %MON surfExpan_theta_mean         =  -1.0645421035144E-06
(PID.TID 0000.0001) %MON surfExpan_salt_mean          =  -2.4863087271116E-08
(PID.TID 0000.0001) // =======================================================
(PID.TID 0000.0001) // End MONITOR dynamic field statistics
(PID.TID 0000.0001) // =======================================================
 SH   5.2741910991852592        23.312091702000828     
 NH   10.375298545136218        25.565612820531328     
 SH   5.2741910991852592        23.312091702000828     
 NH   10.375298545136218        25.565612820531328     
 SH   5.2741910991852592        23.312091702000828     
 NH   10.375298545136218        25.565612820531328     
 SH   5.2741910991852592        23.312091702000828     
 NH   10.375298545136218        25.565612820531328     
 SH   5.2741910991852592        23.312091702000828     
 NH   10.375298545136218        25.565612820531328     
 SH   5.2741910991852592        23.312091702000828     
 NH   10.375298545136218        25.565612820531328     
 cg2d: Sum(rhs),rhsMax =   1.97428275529153E-01  5.34117926971723E+00
(PID.TID 0000.0001)      cg2d_init_res =   3.10920336160307E-01
(PID.TID 0000.0001)      cg2d_iters(min,last) =      -1      92
(PID.TID 0000.0001)      cg2d_last_res =   6.79796230302124E-14
(PID.TID 0000.0001) // =======================================================
(PID.TID 0000.0001) // Begin MONITOR dynamic field statistics
(PID.TID 0000.0001) // =======================================================
(PID.TID 0000.0001) %MON time_tsnumber                =                    14
(PID.TID 0000.0001) %MON time_secondsf                =   6.0480000000000E+05
(PID.TID 0000.0001) %MON dynstat_eta_max              =   1.8626849782432E+00
(PID.TID 0000.0001) %MON dynstat_eta_min              =  -1.3937095663790E+00
(PID.TID 0000.0001) %MON dynstat_eta_mean             =  -8.3026335532558E-04
(PID.TID 0000.0001) %MON dynstat_eta_sd               =   5.1403019135080E-01
(PID.TID 0000.0001) %MON dynstat_eta_del2             =   2.0367725063589E-03
(PID.TID 0000.0001) %MON dynstat_uvel_max             =   3.3194055072039E-01
(PID.TID 0000.0001) %MON dynstat_uvel_min             =  -5.3359801238752E-01
(PID.TID 0000.0001) %MON dynstat_uvel_mean            =   2.6953335702944E-04
(PID.TID 0000.0001) %MON dynstat_uvel_sd              =   1.4421446788762E-02
(PID.TID 0000.0001) %MON dynstat_uvel_del2            =   1.3436046107233E-04
(PID.TID 0000.0001) %MON dynstat_vvel_max             =   5.1722869206293E-01
(PID.TID 0000.0001) %MON dynstat_vvel_min             =  -7.4309836693573E-01
(PID.TID 0000.0001) %MON dynstat_vvel_mean            =  -5.3034242545944E-04
(PID.TID 0000.0001) %MON dynstat_vvel_sd              =   1.5821099178466E-02
(PID.TID 0000.0001) %MON dynstat_vvel_del2            =   1.2327159291695E-04
(PID.TID 0000.0001) %MON dynstat_wvel_max             =   2.3771458818426E-03
(PID.TID 0000.0001) %MON dynstat_wvel_min             =  -1.4690767345299E-03
(PID.TID 0000.0001) %MON dynstat_wvel_mean            =   1.2500797916494E-21
(PID.TID 0000.0001) %MON dynstat_wvel_sd              =   6.7800827511743E-05
(PID.TID 0000.0001) %MON dynstat_wvel_del2            =   8.3487415400831E-07
(PID.TID 0000.0001) %MON dynstat_theta_max            =   2.9098030569789E+01
(PID.TID 0000.0001) %MON dynstat_theta_min            =  -1.8575209121660E+00
(PID.TID 0000.0001) %MON dynstat_theta_mean           =   3.4376361824414E+00
(PID.TID 0000.0001) %MON dynstat_theta_sd             =   4.1093991274902E+00
(PID.TID 0000.0001) %MON dynstat_theta_del2           =   4.9467456699530E-03
(PID.TID 0000.0001) %MON dynstat_salt_max             =   3.7446320714684E+01
(PID.TID 0000.0001) %MON dynstat_salt_min             =   3.1042478607178E+01
(PID.TID 0000.0001) %MON dynstat_salt_mean            =   3.4715017783102E+01
(PID.TID 0000.0001) %MON dynstat_salt_sd              =   2.7633694192215E-01
(PID.TID 0000.0001) %MON dynstat_salt_del2            =   8.4940357307884E-04
(PID.TID 0000.0001) %MON forcing_qnet_max             =   1.2165939327964E+02
(PID.TID 0000.0001) %MON forcing_qnet_min             =  -3.5262724638319E+01
(PID.TID 0000.0001) %MON forcing_qnet_mean            =  -7.6363830420362E-01
(PID.TID 0000.0001) %MON forcing_qnet_sd              =   2.1663823286428E+01
(PID.TID 0000.0001) %MON forcing_qnet_del2            =   1.0971361434333E-01
(PID.TID 0000.0001) %MON forcing_qsw_max              =   0.0000000000000E+00
(PID.TID 0000.0001) %MON forcing_qsw_min              =   0.0000000000000E+00
(PID.TID 0000.0001) %MON forcing_qsw_mean             =   0.0000000000000E+00
(PID.TID 0000.0001) %MON forcing_qsw_sd               =   0.0000000000000E+00
(PID.TID 0000.0001) %MON forcing_qsw_del2             =   0.0000000000000E+00
(PID.TID 0000.0001) %MON forcing_empmr_max            =   3.7600374110707E-05
(PID.TID 0000.0001) %MON forcing_empmr_min            =  -2.9685016686068E-05
(PID.TID 0000.0001) %MON forcing_empmr_mean           =   1.4208375872388E-06
(PID.TID 0000.0001) %MON forcing_empmr_sd             =   1.1923373923198E-05
(PID.TID 0000.0001) %MON forcing_empmr_del2           =   7.4400852469101E-08
(PID.TID 0000.0001) %MON forcing_fu_max               =   1.6004334390163E-01
(PID.TID 0000.0001) %MON forcing_fu_min               =  -1.0329221189022E-01
(PID.TID 0000.0001) %MON forcing_fu_mean              =   4.1280488583042E-03
(PID.TID 0000.0001) %MON forcing_fu_sd                =   5.5800359441598E-02
(PID.TID 0000.0001) %MON forcing_fu_del2              =   3.2370368543278E-04
(PID.TID 0000.0001) %MON forcing_fv_max               =   8.4633164107800E-02
(PID.TID 0000.0001) %MON forcing_fv_min               =  -7.0490099489689E-02
(PID.TID 0000.0001) %MON forcing_fv_mean              =   2.8803575798275E-03
(PID.TID 0000.0001) %MON forcing_fv_sd                =   2.2193297771215E-02
(PID.TID 0000.0001) %MON forcing_fv_del2              =   2.1170835219132E-04
(PID.TID 0000.0001) %MON trAdv_CFL_u_max              =   4.1193022821570E-02
(PID.TID 0000.0001) %MON trAdv_CFL_v_max              =   6.9388945814427E-02
(PID.TID 0000.0001) %MON trAdv_CFL_w_max              =   2.3544426136028E-01
(PID.TID 0000.0001) %MON advcfl_uvel_max              =   5.2634402809362E-02
(PID.TID 0000.0001) %MON advcfl_vvel_max              =   7.2186047415322E-02
(PID.TID 0000.0001) %MON advcfl_wvel_max              =   2.6521527070417E-01
(PID.TID 0000.0001) %MON advcfl_W_hf_max              =   2.8471639355007E-01
(PID.TID 0000.0001) %MON pe_b_mean                    =   3.0655300351355E-04
(PID.TID 0000.0001) %MON ke_max                       =   1.5399170427712E-01
(PID.TID 0000.0001) %MON ke_mean                      =   2.1005644172027E-04
(PID.TID 0000.0001) %MON ke_vol                       =   1.4101703507225E+18
(PID.TID 0000.0001) %MON vort_r_min                   =  -1.6231782915493E-06
(PID.TID 0000.0001) %MON vort_r_max                   =   1.7321516249336E-06
(PID.TID 0000.0001) %MON vort_a_mean                  =  -1.9976608796704E-05
(PID.TID 0000.0001) %MON vort_a_sd                    =   7.3718783265867E-05
(PID.TID 0000.0001) %MON vort_p_mean                  =  -2.3730263022063E-05
(PID.TID 0000.0001) %MON vort_p_sd                    =   1.0369754436471E-04
(PID.TID 0000.0001) %MON surfExpan_theta_mean         =  -4.5555702430318E-07
(PID.TID 0000.0001) %MON surfExpan_salt_mean          =   9.3318190771954E-09
(PID.TID 0000.0001) // =======================================================
(PID.TID 0000.0001) // End MONITOR dynamic field statistics
(PID.TID 0000.0001) // =======================================================
 SH   5.2785616268199078        23.313787271046465     
 NH   10.369466173645833        25.566376243313130     
 SH   5.2785616268199078        23.313787271046465     
 NH   10.369466173645833        25.566376243313130     
 SH   5.2785616268199078        23.313787271046465     
 NH   10.369466173645833        25.566376243313130     
 SH   5.2785616268199078        23.313787271046465     
 NH   10.369466173645833        25.566376243313130     
 SH   5.2785616268199078        23.313787271046465     
 NH   10.369466173645833        25.566376243313130     
 SH   5.2785616268199078        23.313787271046465     
 NH   10.369466173645833        25.566376243313130     
 cg2d: Sum(rhs),rhsMax =   2.34577752559374E-01  4.82977395843344E+00
(PID.TID 0000.0001)      cg2d_init_res =   3.39852455261869E-01
(PID.TID 0000.0001)      cg2d_iters(min,last) =      -1      91
(PID.TID 0000.0001)      cg2d_last_res =   9.21027005492187E-14
(PID.TID 0000.0001) // =======================================================
(PID.TID 0000.0001) // Begin MONITOR dynamic field statistics
(PID.TID 0000.0001) // =======================================================
(PID.TID 0000.0001) %MON time_tsnumber                =                    15
(PID.TID 0000.0001) %MON time_secondsf                =   6.4800000000000E+05
(PID.TID 0000.0001) %MON dynstat_eta_max              =   1.9596348861019E+00
(PID.TID 0000.0001) %MON dynstat_eta_min              =  -1.3838234644104E+00
(PID.TID 0000.0001) %MON dynstat_eta_mean             =  -8.8956788070590E-04
(PID.TID 0000.0001) %MON dynstat_eta_sd               =   5.1127380946741E-01
(PID.TID 0000.0001) %MON dynstat_eta_del2             =   1.9970581542324E-03
(PID.TID 0000.0001) %MON dynstat_uvel_max             =   3.4445884891966E-01
(PID.TID 0000.0001) %MON dynstat_uvel_min             =  -5.5492914796319E-01
(PID.TID 0000.0001) %MON dynstat_uvel_mean            =   3.5819962146430E-04
(PID.TID 0000.0001) %MON dynstat_uvel_sd              =   1.5349773363856E-02
(PID.TID 0000.0001) %MON dynstat_uvel_del2            =   1.3897803168498E-04
(PID.TID 0000.0001) %MON dynstat_vvel_max             =   5.4295048511100E-01
(PID.TID 0000.0001) %MON dynstat_vvel_min             =  -7.7404140037240E-01
(PID.TID 0000.0001) %MON dynstat_vvel_mean            =  -4.9134777051987E-04
(PID.TID 0000.0001) %MON dynstat_vvel_sd              =   1.6169731892452E-02
(PID.TID 0000.0001) %MON dynstat_vvel_del2            =   1.2255731738167E-04
(PID.TID 0000.0001) %MON dynstat_wvel_max             =   2.4871166139236E-03
(PID.TID 0000.0001) %MON dynstat_wvel_min             =  -1.5260712510857E-03
(PID.TID 0000.0001) %MON dynstat_wvel_mean            =  -7.8982314108756E-22
(PID.TID 0000.0001) %MON dynstat_wvel_sd              =   6.9778497384284E-05
(PID.TID 0000.0001) %MON dynstat_wvel_del2            =   8.4936546538219E-07
(PID.TID 0000.0001) %MON dynstat_theta_max            =   2.9083188996286E+01
(PID.TID 0000.0001) %MON dynstat_theta_min            =  -1.8577522220159E+00
(PID.TID 0000.0001) %MON dynstat_theta_mean           =   3.4376389989172E+00
(PID.TID 0000.0001) %MON dynstat_theta_sd             =   4.1093640660791E+00
(PID.TID 0000.0001) %MON dynstat_theta_del2           =   4.9381174780427E-03
(PID.TID 0000.0001) %MON dynstat_salt_max             =   3.7446926230583E+01
(PID.TID 0000.0001) %MON dynstat_salt_min             =   3.1042738842336E+01
(PID.TID 0000.0001) %MON dynstat_salt_mean            =   3.4715017886607E+01
(PID.TID 0000.0001) %MON dynstat_salt_sd              =   2.7634231468766E-01
(PID.TID 0000.0001) %MON dynstat_salt_del2            =   8.4903453772716E-04
(PID.TID 0000.0001) %MON forcing_qnet_max             =   1.2100257403562E+02
(PID.TID 0000.0001) %MON forcing_qnet_min             =  -3.5275091403313E+01
(PID.TID 0000.0001) %MON forcing_qnet_mean            =  -7.6554516421898E-01
(PID.TID 0000.0001) %MON forcing_qnet_sd              =   2.1599986385642E+01
(PID.TID 0000.0001) %MON forcing_qnet_del2            =   1.0955694008590E-01
(PID.TID 0000.0001) %MON forcing_qsw_max              =   0.0000000000000E+00
(PID.TID 0000.0001) %MON forcing_qsw_min              =   0.0000000000000E+00
(PID.TID 0000.0001) %MON forcing_qsw_mean             =   0.0000000000000E+00
(PID.TID 0000.0001) %MON forcing_qsw_sd               =   0.0000000000000E+00
(PID.TID 0000.0001) %MON forcing_qsw_del2             =   0.0000000000000E+00
(PID.TID 0000.0001) %MON forcing_empmr_max            =   3.7600374110707E-05
(PID.TID 0000.0001) %MON forcing_empmr_min            =  -2.9685016686068E-05
(PID.TID 0000.0001) %MON forcing_empmr_mean           =   1.4208375872388E-06
(PID.TID 0000.0001) %MON forcing_empmr_sd             =   1.1923373923198E-05
(PID.TID 0000.0001) %MON forcing_empmr_del2           =   7.4400852469101E-08
(PID.TID 0000.0001) %MON forcing_fu_max               =   1.6004334390163E-01
(PID.TID 0000.0001) %MON forcing_fu_min               =  -1.0329221189022E-01
(PID.TID 0000.0001) %MON forcing_fu_mean              =   4.1280488583042E-03
(PID.TID 0000.0001) %MON forcing_fu_sd                =   5.5800359441598E-02
(PID.TID 0000.0001) %MON forcing_fu_del2              =   3.2370368543278E-04
(PID.TID 0000.0001) %MON forcing_fv_max               =   8.4633164107800E-02
(PID.TID 0000.0001) %MON forcing_fv_min               =  -7.0490099489689E-02
(PID.TID 0000.0001) %MON forcing_fv_mean              =   2.8803575798275E-03
(PID.TID 0000.0001) %MON forcing_fv_sd                =   2.2193297771215E-02
(PID.TID 0000.0001) %MON forcing_fv_del2              =   2.1170835219132E-04
(PID.TID 0000.0001) %MON trAdv_CFL_u_max              =   4.3645598683307E-02
(PID.TID 0000.0001) %MON trAdv_CFL_v_max              =   7.2784975020257E-02
(PID.TID 0000.0001) %MON trAdv_CFL_w_max              =   2.4821429181288E-01
(PID.TID 0000.0001) %MON advcfl_uvel_max              =   5.4738517810180E-02
(PID.TID 0000.0001) %MON advcfl_vvel_max              =   7.5191914980397E-02
(PID.TID 0000.0001) %MON advcfl_wvel_max              =   2.7762695656875E-01
(PID.TID 0000.0001) %MON advcfl_W_hf_max              =   2.9804070337527E-01
(PID.TID 0000.0001) %MON pe_b_mean                    =   3.0327428938679E-04
(PID.TID 0000.0001) %MON ke_max                       =   1.6837556760540E-01
(PID.TID 0000.0001) %MON ke_mean                      =   2.2789664561563E-04
(PID.TID 0000.0001) %MON ke_vol                       =   1.4101703507225E+18
(PID.TID 0000.0001) %MON vort_r_min                   =  -1.6796044314257E-06
(PID.TID 0000.0001) %MON vort_r_max                   =   1.8206494982348E-06
(PID.TID 0000.0001) %MON vort_a_mean                  =  -1.9976608796704E-05
(PID.TID 0000.0001) %MON vort_a_sd                    =   7.3718799514773E-05
(PID.TID 0000.0001) %MON vort_p_mean                  =  -2.3730263022063E-05
(PID.TID 0000.0001) %MON vort_p_sd                    =   1.0369751495958E-04
(PID.TID 0000.0001) %MON surfExpan_theta_mean         =  -1.4841626542833E-07
(PID.TID 0000.0001) %MON surfExpan_salt_mean          =   5.5011557047936E-09
(PID.TID 0000.0001) // =======================================================
(PID.TID 0000.0001) // End MONITOR dynamic field statistics
(PID.TID 0000.0001) // =======================================================
 SH   5.2823270322703024        23.315427132315847     
 NH   10.363260177805387        25.566761777513079     
 SH   5.2823270322703024        23.315427132315847     
 NH   10.363260177805387        25.566761777513079     
 SH   5.2823270322703024        23.315427132315847     
 NH   10.363260177805387        25.566761777513079     
 SH   5.2823270322703024        23.315427132315847     
 NH   10.363260177805387        25.566761777513079     
 SH   5.2823270322703024        23.315427132315847     
 NH   10.363260177805387        25.566761777513079     
 SH   5.2823270322703024        23.315427132315847     
 NH   10.363260177805387        25.566761777513079     
 cg2d: Sum(rhs),rhsMax =   2.81923093438968E-01  4.29697054536672E+00
(PID.TID 0000.0001)      cg2d_init_res =   3.72619394274701E-01
(PID.TID 0000.0001)      cg2d_iters(min,last) =      -1      90
(PID.TID 0000.0001)      cg2d_last_res =   8.47544627452106E-14
(PID.TID 0000.0001) // =======================================================
(PID.TID 0000.0001) // Begin MONITOR dynamic field statistics
(PID.TID 0000.0001) // =======================================================
(PID.TID 0000.0001) %MON time_tsnumber                =                    16
(PID.TID 0000.0001) %MON time_secondsf                =   6.9120000000000E+05
(PID.TID 0000.0001) %MON dynstat_eta_max              =   1.9918496807232E+00
(PID.TID 0000.0001) %MON dynstat_eta_min              =  -1.3731789966472E+00
(PID.TID 0000.0001) %MON dynstat_eta_mean             =  -9.4887240608645E-04
(PID.TID 0000.0001) %MON dynstat_eta_sd               =   5.1072199605162E-01
(PID.TID 0000.0001) %MON dynstat_eta_del2             =   1.9681017894755E-03
(PID.TID 0000.0001) %MON dynstat_uvel_max             =   3.5526948393568E-01
(PID.TID 0000.0001) %MON dynstat_uvel_min             =  -5.7354277759836E-01
(PID.TID 0000.0001) %MON dynstat_uvel_mean            =   4.2548747808591E-04
(PID.TID 0000.0001) %MON dynstat_uvel_sd              =   1.6217116241161E-02
(PID.TID 0000.0001) %MON dynstat_uvel_del2            =   1.4306308620686E-04
(PID.TID 0000.0001) %MON dynstat_vvel_max             =   5.6663870149744E-01
(PID.TID 0000.0001) %MON dynstat_vvel_min             =  -8.0108407745439E-01
(PID.TID 0000.0001) %MON dynstat_vvel_mean            =  -4.1805924954116E-04
(PID.TID 0000.0001) %MON dynstat_vvel_sd              =   1.6436858234969E-02
(PID.TID 0000.0001) %MON dynstat_vvel_del2            =   1.2108028755033E-04
(PID.TID 0000.0001) %MON dynstat_wvel_max             =   2.5851552227118E-03
(PID.TID 0000.0001) %MON dynstat_wvel_min             =  -1.5726640762721E-03
(PID.TID 0000.0001) %MON dynstat_wvel_mean            =   2.2728723484534E-22
(PID.TID 0000.0001) %MON dynstat_wvel_sd              =   7.1400087199108E-05
(PID.TID 0000.0001) %MON dynstat_wvel_del2            =   8.5861264420307E-07
(PID.TID 0000.0001) %MON dynstat_theta_max            =   2.9068809508096E+01
(PID.TID 0000.0001) %MON dynstat_theta_min            =  -1.8579657978891E+00
(PID.TID 0000.0001) %MON dynstat_theta_mean           =   3.4376405354143E+00
(PID.TID 0000.0001) %MON dynstat_theta_sd             =   4.1093284237744E+00
(PID.TID 0000.0001) %MON dynstat_theta_del2           =   4.9284522429413E-03
(PID.TID 0000.0001) %MON dynstat_salt_max             =   3.7447520345583E+01
(PID.TID 0000.0001) %MON dynstat_salt_min             =   3.1043123055189E+01
(PID.TID 0000.0001) %MON dynstat_salt_mean            =   3.4715018251482E+01
(PID.TID 0000.0001) %MON dynstat_salt_sd              =   2.7634593037908E-01
(PID.TID 0000.0001) %MON dynstat_salt_del2            =   8.4872053123868E-04
(PID.TID 0000.0001) %MON forcing_qnet_max             =   1.2034409113238E+02
(PID.TID 0000.0001) %MON forcing_qnet_min             =  -3.5283444707636E+01
(PID.TID 0000.0001) %MON forcing_qnet_mean            =  -7.6824670398469E-01
(PID.TID 0000.0001) %MON forcing_qnet_sd              =   2.1534929552415E+01
(PID.TID 0000.0001) %MON forcing_qnet_del2            =   1.0938737338215E-01
(PID.TID 0000.0001) %MON forcing_qsw_max              =   0.0000000000000E+00
(PID.TID 0000.0001) %MON forcing_qsw_min              =   0.0000000000000E+00
(PID.TID 0000.0001) %MON forcing_qsw_mean             =   0.0000000000000E+00
(PID.TID 0000.0001) %MON forcing_qsw_sd               =   0.0000000000000E+00
(PID.TID 0000.0001) %MON forcing_qsw_del2             =   0.0000000000000E+00
(PID.TID 0000.0001) %MON forcing_empmr_max            =   3.7600374110707E-05
(PID.TID 0000.0001) %MON forcing_empmr_min            =  -2.9685016686068E-05
(PID.TID 0000.0001) %MON forcing_empmr_mean           =   1.4208375872388E-06
(PID.TID 0000.0001) %MON forcing_empmr_sd             =   1.1923373923198E-05
(PID.TID 0000.0001) %MON forcing_empmr_del2           =   7.4400852469101E-08
(PID.TID 0000.0001) %MON forcing_fu_max               =   1.6004334390163E-01
(PID.TID 0000.0001) %MON forcing_fu_min               =  -1.0329221189022E-01
(PID.TID 0000.0001) %MON forcing_fu_mean              =   4.1280488583042E-03
(PID.TID 0000.0001) %MON forcing_fu_sd                =   5.5800359441598E-02
(PID.TID 0000.0001) %MON forcing_fu_del2              =   3.2370368543278E-04
(PID.TID 0000.0001) %MON forcing_fv_max               =   8.4633164107800E-02
(PID.TID 0000.0001) %MON forcing_fv_min               =  -7.0490099489689E-02
(PID.TID 0000.0001) %MON forcing_fv_mean              =   2.8803575798275E-03
(PID.TID 0000.0001) %MON forcing_fv_sd                =   2.2193297771215E-02
(PID.TID 0000.0001) %MON forcing_fv_del2              =   2.1170835219132E-04
(PID.TID 0000.0001) %MON trAdv_CFL_u_max              =   4.5953821676154E-02
(PID.TID 0000.0001) %MON trAdv_CFL_v_max              =   7.5815782267251E-02
(PID.TID 0000.0001) %MON trAdv_CFL_w_max              =   2.5983035678870E-01
(PID.TID 0000.0001) %MON advcfl_uvel_max              =   5.6574576523327E-02
(PID.TID 0000.0001) %MON advcfl_vvel_max              =   7.7818894202715E-02
(PID.TID 0000.0001) %MON advcfl_wvel_max              =   2.8870907141019E-01
(PID.TID 0000.0001) %MON advcfl_W_hf_max              =   3.0993767960212E-01
(PID.TID 0000.0001) %MON pe_b_mean                    =   3.0262012848190E-04
(PID.TID 0000.0001) %MON ke_max                       =   1.8192038140870E-01
(PID.TID 0000.0001) %MON ke_mean                      =   2.4449263145868E-04
(PID.TID 0000.0001) %MON ke_vol                       =   1.4101703507225E+18
(PID.TID 0000.0001) %MON vort_r_min                   =  -1.7269724642025E-06
(PID.TID 0000.0001) %MON vort_r_max                   =   1.9024528180723E-06
(PID.TID 0000.0001) %MON vort_a_mean                  =  -1.9976608796704E-05
(PID.TID 0000.0001) %MON vort_a_sd                    =   7.3718810209647E-05
(PID.TID 0000.0001) %MON vort_p_mean                  =  -2.3730263022063E-05
(PID.TID 0000.0001) %MON vort_p_sd                    =   1.0369747255806E-04
(PID.TID 0000.0001) %MON surfExpan_theta_mean         =  -5.0149740293363E-08
(PID.TID 0000.0001) %MON surfExpan_salt_mean          =  -2.2625412376549E-08
(PID.TID 0000.0001) // =======================================================
(PID.TID 0000.0001) // End MONITOR dynamic field statistics
(PID.TID 0000.0001) // =======================================================
 SH   5.2853772191803046        23.317075077461539     
 NH   10.356436895098852        25.566847170635128     
 SH   5.2853772191803046        23.317075077461539     
 NH   10.356436895098852        25.566847170635128     
 SH   5.2853772191803046        23.317075077461539     
 NH   10.356436895098852        25.566847170635128     
 SH   5.2853772191803046        23.317075077461539     
 NH   10.356436895098852        25.566847170635128     
 SH   5.2853772191803046        23.317075077461539     
 NH   10.356436895098852        25.566847170635128     
 SH   5.2853772191803046        23.317075077461539     
 NH   10.356436895098852        25.566847170635128     
 cg2d: Sum(rhs),rhsMax =   3.17780863347583E-01  4.05900129732332E+00
(PID.TID 0000.0001)      cg2d_init_res =   3.79537037847173E-01
(PID.TID 0000.0001)      cg2d_iters(min,last) =      -1      91
(PID.TID 0000.0001)      cg2d_last_res =   8.08061167282943E-14
(PID.TID 0000.0001) // =======================================================
(PID.TID 0000.0001) // Begin MONITOR dynamic field statistics
(PID.TID 0000.0001) // =======================================================
(PID.TID 0000.0001) %MON time_tsnumber                =                    17
(PID.TID 0000.0001) %MON time_secondsf                =   7.3440000000000E+05
(PID.TID 0000.0001) %MON dynstat_eta_max              =   1.9563523362590E+00
(PID.TID 0000.0001) %MON dynstat_eta_min              =  -1.3626324057452E+00
(PID.TID 0000.0001) %MON dynstat_eta_mean             =  -1.0081769314669E-03
(PID.TID 0000.0001) %MON dynstat_eta_sd               =   5.1202641604971E-01
(PID.TID 0000.0001) %MON dynstat_eta_del2             =   1.9502184681220E-03
(PID.TID 0000.0001) %MON dynstat_uvel_max             =   3.6435269805058E-01
(PID.TID 0000.0001) %MON dynstat_uvel_min             =  -5.8941760923024E-01
(PID.TID 0000.0001) %MON dynstat_uvel_mean            =   4.7150493700939E-04
(PID.TID 0000.0001) %MON dynstat_uvel_sd              =   1.7012963434155E-02
(PID.TID 0000.0001) %MON dynstat_uvel_del2            =   1.4659703568397E-04
(PID.TID 0000.0001) %MON dynstat_vvel_max             =   5.8822282667539E-01
(PID.TID 0000.0001) %MON dynstat_vvel_min             =  -8.2399460010754E-01
(PID.TID 0000.0001) %MON dynstat_vvel_mean            =  -3.2474422804428E-04
(PID.TID 0000.0001) %MON dynstat_vvel_sd              =   1.6632873910798E-02
(PID.TID 0000.0001) %MON dynstat_vvel_del2            =   1.1905344997985E-04
(PID.TID 0000.0001) %MON dynstat_wvel_max             =   2.6698803296352E-03
(PID.TID 0000.0001) %MON dynstat_wvel_min             =  -1.6079217217431E-03
(PID.TID 0000.0001) %MON dynstat_wvel_mean            =  -1.2500797916494E-22
(PID.TID 0000.0001) %MON dynstat_wvel_sd              =   7.2672772266253E-05
(PID.TID 0000.0001) %MON dynstat_wvel_del2            =   8.6282032089659E-07
(PID.TID 0000.0001) %MON dynstat_theta_max            =   2.9054833199985E+01
(PID.TID 0000.0001) %MON dynstat_theta_min            =  -1.8832700640060E+00
(PID.TID 0000.0001) %MON dynstat_theta_mean           =   3.4376423582835E+00
(PID.TID 0000.0001) %MON dynstat_theta_sd             =   4.1092972638937E+00
(PID.TID 0000.0001) %MON dynstat_theta_del2           =   4.9199711089418E-03
(PID.TID 0000.0001) %MON dynstat_salt_max             =   3.7448102507324E+01
(PID.TID 0000.0001) %MON dynstat_salt_min             =   3.1043676802431E+01
(PID.TID 0000.0001) %MON dynstat_salt_mean            =   3.4715019042443E+01
(PID.TID 0000.0001) %MON dynstat_salt_sd              =   2.7634799887546E-01
(PID.TID 0000.0001) %MON dynstat_salt_del2            =   8.4848462471671E-04
(PID.TID 0000.0001) %MON forcing_qnet_max             =   1.1965207542780E+02
(PID.TID 0000.0001) %MON forcing_qnet_min             =  -3.5286107998270E+01
(PID.TID 0000.0001) %MON forcing_qnet_mean            =  -7.7176026495773E-01
(PID.TID 0000.0001) %MON forcing_qnet_sd              =   2.1464794372496E+01
(PID.TID 0000.0001) %MON forcing_qnet_del2            =   1.0919224221296E-01
(PID.TID 0000.0001) %MON forcing_qsw_max              =   0.0000000000000E+00
(PID.TID 0000.0001) %MON forcing_qsw_min              =   0.0000000000000E+00
(PID.TID 0000.0001) %MON forcing_qsw_mean             =   0.0000000000000E+00
(PID.TID 0000.0001) %MON forcing_qsw_sd               =   0.0000000000000E+00
(PID.TID 0000.0001) %MON forcing_qsw_del2             =   0.0000000000000E+00
(PID.TID 0000.0001) %MON forcing_empmr_max            =   3.7600374110707E-05
(PID.TID 0000.0001) %MON forcing_empmr_min            =  -2.9685016686068E-05
(PID.TID 0000.0001) %MON forcing_empmr_mean           =   1.4208375872388E-06
(PID.TID 0000.0001) %MON forcing_empmr_sd             =   1.1923373923198E-05
(PID.TID 0000.0001) %MON forcing_empmr_del2           =   7.4400852469101E-08
(PID.TID 0000.0001) %MON forcing_fu_max               =   1.6004334390163E-01
(PID.TID 0000.0001) %MON forcing_fu_min               =  -1.0329221189022E-01
(PID.TID 0000.0001) %MON forcing_fu_mean              =   4.1280488583042E-03
(PID.TID 0000.0001) %MON forcing_fu_sd                =   5.5800359441598E-02
(PID.TID 0000.0001) %MON forcing_fu_del2              =   3.2370368543278E-04
(PID.TID 0000.0001) %MON forcing_fv_max               =   8.4633164107800E-02
(PID.TID 0000.0001) %MON forcing_fv_min               =  -7.0490099489689E-02
(PID.TID 0000.0001) %MON forcing_fv_mean              =   2.8803575798275E-03
(PID.TID 0000.0001) %MON forcing_fv_sd                =   2.2193297771215E-02
(PID.TID 0000.0001) %MON forcing_fv_del2              =   2.1170835219132E-04
(PID.TID 0000.0001) %MON trAdv_CFL_u_max              =   4.8101644241685E-02
(PID.TID 0000.0001) %MON trAdv_CFL_v_max              =   7.8464557535067E-02
(PID.TID 0000.0001) %MON trAdv_CFL_w_max              =   2.7020207965313E-01
(PID.TID 0000.0001) %MON advcfl_uvel_max              =   5.8140478687963E-02
(PID.TID 0000.0001) %MON advcfl_vvel_max              =   8.0044467758164E-02
(PID.TID 0000.0001) %MON advcfl_wvel_max              =   2.9827047886197E-01
(PID.TID 0000.0001) %MON advcfl_W_hf_max              =   3.2020213171947E-01
(PID.TID 0000.0001) %MON pe_b_mean                    =   3.0416805816979E-04
(PID.TID 0000.0001) %MON ke_max                       =   1.9441359778270E-01
(PID.TID 0000.0001) %MON ke_mean                      =   2.5963763721928E-04
(PID.TID 0000.0001) %MON ke_vol                       =   1.4101703507225E+18
(PID.TID 0000.0001) %MON vort_r_min                   =  -1.7650117998214E-06
(PID.TID 0000.0001) %MON vort_r_max                   =   1.9770985215490E-06
(PID.TID 0000.0001) %MON vort_a_mean                  =  -1.9976608796704E-05
(PID.TID 0000.0001) %MON vort_a_sd                    =   7.3718815510457E-05
(PID.TID 0000.0001) %MON vort_p_mean                  =  -2.3730263022063E-05
(PID.TID 0000.0001) %MON vort_p_sd                    =   1.0369741896059E-04
(PID.TID 0000.0001) %MON surfExpan_theta_mean         =  -3.9801045322096E-08
(PID.TID 0000.0001) %MON surfExpan_salt_mean          =  -5.9905281010068E-08
(PID.TID 0000.0001) // =======================================================
(PID.TID 0000.0001) // End MONITOR dynamic field statistics
(PID.TID 0000.0001) // =======================================================
 SH   5.2876186967906165        23.318773002482715     
 NH   10.348863155732658        25.566687449806011     
 SH   5.2876186967906165        23.318773002482715     
 NH   10.348863155732658        25.566687449806011     
 SH   5.2876186967906165        23.318773002482715     
 NH   10.348863155732658        25.566687449806011     
 SH   5.2876186967906165        23.318773002482715     
 NH   10.348863155732658        25.566687449806011     
 SH   5.2876186967906165        23.318773002482715     
 NH   10.348863155732658        25.566687449806011     
 SH   5.2876186967906165        23.318773002482715     
 NH   10.348863155732658        25.566687449806011     
 cg2d: Sum(rhs),rhsMax =   2.93009128489484E-01  4.66992496675130E+00
(PID.TID 0000.0001)      cg2d_init_res =   3.18033142834977E-01
(PID.TID 0000.0001)      cg2d_iters(min,last) =      -1      91
(PID.TID 0000.0001)      cg2d_last_res =   6.47872137191246E-14
(PID.TID 0000.0001) // =======================================================
(PID.TID 0000.0001) // Begin MONITOR dynamic field statistics
(PID.TID 0000.0001) // =======================================================
(PID.TID 0000.0001) %MON time_tsnumber                =                    18
(PID.TID 0000.0001) %MON time_secondsf                =   7.7760000000000E+05
(PID.TID 0000.0001) %MON dynstat_eta_max              =   1.8554569783981E+00
(PID.TID 0000.0001) %MON dynstat_eta_min              =  -1.3539731847806E+00
(PID.TID 0000.0001) %MON dynstat_eta_mean             =  -1.0674814568472E-03
(PID.TID 0000.0001) %MON dynstat_eta_sd               =   5.1495240659176E-01
(PID.TID 0000.0001) %MON dynstat_eta_del2             =   1.9403867641065E-03
(PID.TID 0000.0001) %MON dynstat_uvel_max             =   3.7209725596741E-01
(PID.TID 0000.0001) %MON dynstat_uvel_min             =  -6.0256752543645E-01
(PID.TID 0000.0001) %MON dynstat_uvel_mean            =   4.9752404711840E-04
(PID.TID 0000.0001) %MON dynstat_uvel_sd              =   1.7729599533322E-02
(PID.TID 0000.0001) %MON dynstat_uvel_del2            =   1.4959773698111E-04
(PID.TID 0000.0001) %MON dynstat_vvel_max             =   6.0765980916224E-01
(PID.TID 0000.0001) %MON dynstat_vvel_min             =  -8.4267932607608E-01
(PID.TID 0000.0001) %MON dynstat_vvel_mean            =  -2.2387745939312E-04
(PID.TID 0000.0001) %MON dynstat_vvel_sd              =   1.6770641570145E-02
(PID.TID 0000.0001) %MON dynstat_vvel_del2            =   1.1671897081152E-04
(PID.TID 0000.0001) %MON dynstat_wvel_max             =   2.7412332568759E-03
(PID.TID 0000.0001) %MON dynstat_wvel_min             =  -1.6313870124125E-03
(PID.TID 0000.0001) %MON dynstat_wvel_mean            =   3.0115558617008E-22
(PID.TID 0000.0001) %MON dynstat_wvel_sd              =   7.3616709597817E-05
(PID.TID 0000.0001) %MON dynstat_wvel_del2            =   8.6237459099730E-07
(PID.TID 0000.0001) %MON dynstat_theta_max            =   2.9041160299817E+01
(PID.TID 0000.0001) %MON dynstat_theta_min            =  -1.9240446161856E+00
(PID.TID 0000.0001) %MON dynstat_theta_mean           =   3.4376446262336E+00
(PID.TID 0000.0001) %MON dynstat_theta_sd             =   4.1092697602565E+00
(PID.TID 0000.0001) %MON dynstat_theta_del2           =   4.9126859816072E-03
(PID.TID 0000.0001) %MON dynstat_salt_max             =   3.7448673132397E+01
(PID.TID 0000.0001) %MON dynstat_salt_min             =   3.1044396135816E+01
(PID.TID 0000.0001) %MON dynstat_salt_mean            =   3.4715020260873E+01
(PID.TID 0000.0001) %MON dynstat_salt_sd              =   2.7634882218850E-01
(PID.TID 0000.0001) %MON dynstat_salt_del2            =   8.4830507827428E-04
(PID.TID 0000.0001) %MON forcing_qnet_max             =   1.1890783182430E+02
(PID.TID 0000.0001) %MON forcing_qnet_min             =  -3.5281815048124E+01
(PID.TID 0000.0001) %MON forcing_qnet_mean            =  -7.7606427599394E-01
(PID.TID 0000.0001) %MON forcing_qnet_sd              =   2.1387241753726E+01
(PID.TID 0000.0001) %MON forcing_qnet_del2            =   1.0896370335373E-01
(PID.TID 0000.0001) %MON forcing_qsw_max              =   0.0000000000000E+00
(PID.TID 0000.0001) %MON forcing_qsw_min              =   0.0000000000000E+00
(PID.TID 0000.0001) %MON forcing_qsw_mean             =   0.0000000000000E+00
(PID.TID 0000.0001) %MON forcing_qsw_sd               =   0.0000000000000E+00
(PID.TID 0000.0001) %MON forcing_qsw_del2             =   0.0000000000000E+00
(PID.TID 0000.0001) %MON forcing_empmr_max            =   3.7600374110707E-05
(PID.TID 0000.0001) %MON forcing_empmr_min            =  -2.9685016686068E-05
(PID.TID 0000.0001) %MON forcing_empmr_mean           =   1.4208375872388E-06
(PID.TID 0000.0001) %MON forcing_empmr_sd             =   1.1923373923198E-05
(PID.TID 0000.0001) %MON forcing_empmr_del2           =   7.4400852469101E-08
(PID.TID 0000.0001) %MON forcing_fu_max               =   1.6004334390163E-01
(PID.TID 0000.0001) %MON forcing_fu_min               =  -1.0329221189022E-01
(PID.TID 0000.0001) %MON forcing_fu_mean              =   4.1280488583042E-03
(PID.TID 0000.0001) %MON forcing_fu_sd                =   5.5800359441598E-02
(PID.TID 0000.0001) %MON forcing_fu_del2              =   3.2370368543278E-04
(PID.TID 0000.0001) %MON forcing_fv_max               =   8.4633164107800E-02
(PID.TID 0000.0001) %MON forcing_fv_min               =  -7.0490099489689E-02
(PID.TID 0000.0001) %MON forcing_fv_mean              =   2.8803575798275E-03
(PID.TID 0000.0001) %MON forcing_fv_sd                =   2.2193297771215E-02
(PID.TID 0000.0001) %MON forcing_fv_del2              =   2.1170835219132E-04
(PID.TID 0000.0001) %MON trAdv_CFL_u_max              =   5.0003228189349E-02
(PID.TID 0000.0001) %MON trAdv_CFL_v_max              =   8.0708596673367E-02
(PID.TID 0000.0001) %MON trAdv_CFL_w_max              =   2.7915057637082E-01
(PID.TID 0000.0001) %MON advcfl_uvel_max              =   5.9437593689216E-02
(PID.TID 0000.0001) %MON advcfl_vvel_max              =   8.1859539052519E-02
(PID.TID 0000.0001) %MON advcfl_wvel_max              =   3.0631024671038E-01
(PID.TID 0000.0001) %MON advcfl_W_hf_max              =   3.2883305896849E-01
(PID.TID 0000.0001) %MON pe_b_mean                    =   3.0765447559303E-04
(PID.TID 0000.0001) %MON ke_max                       =   2.0569555194891E-01
(PID.TID 0000.0001) %MON ke_mean                      =   2.7321135850858E-04
(PID.TID 0000.0001) %MON ke_vol                       =   1.4101703507225E+18
(PID.TID 0000.0001) %MON vort_r_min                   =  -1.7937610695130E-06
(PID.TID 0000.0001) %MON vort_r_max                   =   2.0445088700018E-06
(PID.TID 0000.0001) %MON vort_a_mean                  =  -1.9976608796704E-05
(PID.TID 0000.0001) %MON vort_a_sd                    =   7.3718815864869E-05
(PID.TID 0000.0001) %MON vort_p_mean                  =  -2.3730263022063E-05
(PID.TID 0000.0001) %MON vort_p_sd                    =   1.0369735689053E-04
(PID.TID 0000.0001) %MON surfExpan_theta_mean         =  -1.6795920954334E-08
(PID.TID 0000.0001) %MON surfExpan_salt_mean          =  -9.3731756766041E-08
(PID.TID 0000.0001) // =======================================================
(PID.TID 0000.0001) // End MONITOR dynamic field statistics
(PID.TID 0000.0001) // =======================================================
 SH   5.2889762725107516        23.320538866608103     
 NH   10.340499656145028        25.566317529201342     
 SH   5.2889762725107516        23.320538866608103     
 NH   10.340499656145028        25.566317529201342     
 SH   5.2889762725107516        23.320538866608103     
 NH   10.340499656145028        25.566317529201342     
 SH   5.2889762725107516        23.320538866608103     
 NH   10.340499656145028        25.566317529201342     
 SH   5.2889762725107516        23.320538866608103     
 NH   10.340499656145028        25.566317529201342     
 SH   5.2889762725107516        23.320538866608103     
 NH   10.340499656145028        25.566317529201342     
 cg2d: Sum(rhs),rhsMax =   2.77516200930093E-01  5.21334735700751E+00
(PID.TID 0000.0001)      cg2d_init_res =   2.70781545964242E-01
(PID.TID 0000.0001)      cg2d_iters(min,last) =      -1      90
(PID.TID 0000.0001)      cg2d_last_res =   8.87829379132040E-14
(PID.TID 0000.0001) // =======================================================
(PID.TID 0000.0001) // Begin MONITOR dynamic field statistics
(PID.TID 0000.0001) // =======================================================
(PID.TID 0000.0001) %MON time_tsnumber                =                    19
(PID.TID 0000.0001) %MON time_secondsf                =   8.2080000000000E+05
(PID.TID 0000.0001) %MON dynstat_eta_max              =   1.6964388507657E+00
(PID.TID 0000.0001) %MON dynstat_eta_min              =  -1.3513034836845E+00
(PID.TID 0000.0001) %MON dynstat_eta_mean             =  -1.1267859822277E-03
(PID.TID 0000.0001) %MON dynstat_eta_sd               =   5.1927561376909E-01
(PID.TID 0000.0001) %MON dynstat_eta_del2             =   1.9362176091407E-03
(PID.TID 0000.0001) %MON dynstat_uvel_max             =   3.8031246674512E-01
(PID.TID 0000.0001) %MON dynstat_uvel_min             =  -6.1301874561945E-01
(PID.TID 0000.0001) %MON dynstat_uvel_mean            =   5.0615203512280E-04
(PID.TID 0000.0001) %MON dynstat_uvel_sd              =   1.8360127568450E-02
(PID.TID 0000.0001) %MON dynstat_uvel_del2            =   1.5206340843963E-04
(PID.TID 0000.0001) %MON dynstat_vvel_max             =   6.2491519598763E-01
(PID.TID 0000.0001) %MON dynstat_vvel_min             =  -8.5704117650794E-01
(PID.TID 0000.0001) %MON dynstat_vvel_mean            =  -1.2543371610505E-04
(PID.TID 0000.0001) %MON dynstat_vvel_sd              =   1.6862403131999E-02
(PID.TID 0000.0001) %MON dynstat_vvel_del2            =   1.1432067313239E-04
(PID.TID 0000.0001) %MON dynstat_wvel_max             =   2.7989514452643E-03
(PID.TID 0000.0001) %MON dynstat_wvel_min             =  -1.6425892298965E-03
(PID.TID 0000.0001) %MON dynstat_wvel_mean            =   5.1565791405536E-22
(PID.TID 0000.0001) %MON dynstat_wvel_sd              =   7.4248757002363E-05
(PID.TID 0000.0001) %MON dynstat_wvel_del2            =   8.5762392515602E-07
(PID.TID 0000.0001) %MON dynstat_theta_max            =   2.9027687556883E+01
(PID.TID 0000.0001) %MON dynstat_theta_min            =  -1.9580826619638E+00
(PID.TID 0000.0001) %MON dynstat_theta_mean           =   3.4376465951184E+00
(PID.TID 0000.0001) %MON dynstat_theta_sd             =   4.1092424018139E+00
(PID.TID 0000.0001) %MON dynstat_theta_del2           =   4.9060832097112E-03
(PID.TID 0000.0001) %MON dynstat_salt_max             =   3.7449232912823E+01
(PID.TID 0000.0001) %MON dynstat_salt_min             =   3.1045241879213E+01
(PID.TID 0000.0001) %MON dynstat_salt_mean            =   3.4715021794944E+01
(PID.TID 0000.0001) %MON dynstat_salt_sd              =   2.7634884444832E-01
(PID.TID 0000.0001) %MON dynstat_salt_del2            =   8.4815879510414E-04
(PID.TID 0000.0001) %MON forcing_qnet_max             =   1.1810396023744E+02
(PID.TID 0000.0001) %MON forcing_qnet_min             =  -3.5269748497027E+01
(PID.TID 0000.0001) %MON forcing_qnet_mean            =  -7.8111686640385E-01
(PID.TID 0000.0001) %MON forcing_qnet_sd              =   2.1301253878964E+01
(PID.TID 0000.0001) %MON forcing_qnet_del2            =   1.0869816574440E-01
(PID.TID 0000.0001) %MON forcing_qsw_max              =   0.0000000000000E+00
(PID.TID 0000.0001) %MON forcing_qsw_min              =   0.0000000000000E+00
(PID.TID 0000.0001) %MON forcing_qsw_mean             =   0.0000000000000E+00
(PID.TID 0000.0001) %MON forcing_qsw_sd               =   0.0000000000000E+00
(PID.TID 0000.0001) %MON forcing_qsw_del2             =   0.0000000000000E+00
(PID.TID 0000.0001) %MON forcing_empmr_max            =   3.7600374110707E-05
(PID.TID 0000.0001) %MON forcing_empmr_min            =  -2.9685016686068E-05
(PID.TID 0000.0001) %MON forcing_empmr_mean           =   1.4208375872388E-06
(PID.TID 0000.0001) %MON forcing_empmr_sd             =   1.1923373923198E-05
(PID.TID 0000.0001) %MON forcing_empmr_del2           =   7.4400852469101E-08
(PID.TID 0000.0001) %MON forcing_fu_max               =   1.6004334390163E-01
(PID.TID 0000.0001) %MON forcing_fu_min               =  -1.0329221189022E-01
(PID.TID 0000.0001) %MON forcing_fu_mean              =   4.1280488583042E-03
(PID.TID 0000.0001) %MON forcing_fu_sd                =   5.5800359441598E-02
(PID.TID 0000.0001) %MON forcing_fu_del2              =   3.2370368543278E-04
(PID.TID 0000.0001) %MON forcing_fv_max               =   8.4633164107800E-02
(PID.TID 0000.0001) %MON forcing_fv_min               =  -7.0490099489689E-02
(PID.TID 0000.0001) %MON forcing_fv_mean              =   2.8803575798275E-03
(PID.TID 0000.0001) %MON forcing_fv_sd                =   2.2193297771215E-02
(PID.TID 0000.0001) %MON forcing_fv_del2              =   2.1170835219132E-04
(PID.TID 0000.0001) %MON trAdv_CFL_u_max              =   5.1685341077721E-02
(PID.TID 0000.0001) %MON trAdv_CFL_v_max              =   8.2538727613485E-02
(PID.TID 0000.0001) %MON trAdv_CFL_w_max              =   2.8667497448535E-01
(PID.TID 0000.0001) %MON advcfl_uvel_max              =   6.0468507823435E-02
(PID.TID 0000.0001) %MON advcfl_vvel_max              =   8.3254677653780E-02
(PID.TID 0000.0001) %MON advcfl_wvel_max              =   3.1279428632144E-01
(PID.TID 0000.0001) %MON advcfl_W_hf_max              =   3.3579386619802E-01
(PID.TID 0000.0001) %MON pe_b_mean                    =   3.1284202414846E-04
(PID.TID 0000.0001) %MON ke_max                       =   2.1563143485963E-01
(PID.TID 0000.0001) %MON ke_mean                      =   2.8510845338675E-04
(PID.TID 0000.0001) %MON ke_vol                       =   1.4101703507225E+18
(PID.TID 0000.0001) %MON vort_r_min                   =  -1.8132441294521E-06
(PID.TID 0000.0001) %MON vort_r_max                   =   2.1046225038006E-06
(PID.TID 0000.0001) %MON vort_a_mean                  =  -1.9976608796704E-05
(PID.TID 0000.0001) %MON vort_a_sd                    =   7.3718812030479E-05
(PID.TID 0000.0001) %MON vort_p_mean                  =  -2.3730263022063E-05
(PID.TID 0000.0001) %MON vort_p_sd                    =   1.0369728995089E-04
(PID.TID 0000.0001) %MON surfExpan_theta_mean         =   7.2126334790578E-08
(PID.TID 0000.0001) %MON surfExpan_salt_mean          =  -1.1615578426543E-07
(PID.TID 0000.0001) // =======================================================
(PID.TID 0000.0001) // End MONITOR dynamic field statistics
(PID.TID 0000.0001) // =======================================================
 SH   5.2893935035784239        23.322369657527645     
 NH   10.331371737757877        25.565758269115804     
 SH   5.2893935035784239        23.322369657527645     
 NH   10.331371737757877        25.565758269115804     
 SH   5.2893935035784239        23.322369657527645     
 NH   10.331371737757877        25.565758269115804     
 SH   5.2893935035784239        23.322369657527645     
 NH   10.331371737757877        25.565758269115804     
 SH   5.2893935035784239        23.322369657527645     
 NH   10.331371737757877        25.565758269115804     
 SH   5.2893935035784239        23.322369657527645     
 NH   10.331371737757877        25.565758269115804     
 cg2d: Sum(rhs),rhsMax =   2.68515357752286E-01  5.68029357218194E+00
(PID.TID 0000.0001)      cg2d_init_res =   2.34385403317467E-01
(PID.TID 0000.0001)      cg2d_iters(min,last) =      -1      90
(PID.TID 0000.0001)      cg2d_last_res =   7.22887606184217E-14
(PID.TID 0000.0001) // =======================================================
(PID.TID 0000.0001) // Begin MONITOR dynamic field statistics
(PID.TID 0000.0001) // =======================================================
(PID.TID 0000.0001) %MON time_tsnumber                =                    20
(PID.TID 0000.0001) %MON time_secondsf                =   8.6400000000000E+05
(PID.TID 0000.0001) %MON dynstat_eta_max              =   1.4907796620080E+00
(PID.TID 0000.0001) %MON dynstat_eta_min              =  -1.3540639387934E+00
(PID.TID 0000.0001) %MON dynstat_eta_mean             =  -1.1860905076080E-03
(PID.TID 0000.0001) %MON dynstat_eta_sd               =   5.2467916621323E-01
(PID.TID 0000.0001) %MON dynstat_eta_del2             =   1.9363378401245E-03
(PID.TID 0000.0001) %MON dynstat_uvel_max             =   3.8678568990265E-01
(PID.TID 0000.0001) %MON dynstat_uvel_min             =  -6.2081078845706E-01
(PID.TID 0000.0001) %MON dynstat_uvel_mean            =   5.0140045419715E-04
(PID.TID 0000.0001) %MON dynstat_uvel_sd              =   1.8899163734864E-02
(PID.TID 0000.0001) %MON dynstat_uvel_del2            =   1.5399307349601E-04
(PID.TID 0000.0001) %MON dynstat_vvel_max             =   6.3996872718136E-01
(PID.TID 0000.0001) %MON dynstat_vvel_min             =  -8.6701104254714E-01
(PID.TID 0000.0001) %MON dynstat_vvel_mean            =  -3.6657055552576E-05
(PID.TID 0000.0001) %MON dynstat_vvel_sd              =   1.6920068991042E-02
(PID.TID 0000.0001) %MON dynstat_vvel_del2            =   1.1209435363289E-04
(PID.TID 0000.0001) %MON dynstat_wvel_max             =   2.8428506052749E-03
(PID.TID 0000.0001) %MON dynstat_wvel_min             =  -1.6412141012803E-03
(PID.TID 0000.0001) %MON dynstat_wvel_mean            =  -6.1403067038686E-22
(PID.TID 0000.0001) %MON dynstat_wvel_sd              =   7.4585341135688E-05
(PID.TID 0000.0001) %MON dynstat_wvel_del2            =   8.4891417240247E-07
(PID.TID 0000.0001) %MON dynstat_theta_max            =   2.9014334487428E+01
(PID.TID 0000.0001) %MON dynstat_theta_min            =  -1.9852067742442E+00
(PID.TID 0000.0001) %MON dynstat_theta_mean           =   3.4376472665234E+00
(PID.TID 0000.0001) %MON dynstat_theta_sd             =   4.1092111813947E+00
(PID.TID 0000.0001) %MON dynstat_theta_del2           =   4.8995664028919E-03
(PID.TID 0000.0001) %MON dynstat_salt_max             =   3.7449782349605E+01
(PID.TID 0000.0001) %MON dynstat_salt_min             =   3.1046160614007E+01
(PID.TID 0000.0001) %MON dynstat_salt_mean            =   3.4715023480206E+01
(PID.TID 0000.0001) %MON dynstat_salt_sd              =   2.7634848891356E-01
(PID.TID 0000.0001) %MON dynstat_salt_del2            =   8.4802704858469E-04
(PID.TID 0000.0001) %MON forcing_qnet_max             =   1.1724087547933E+02
(PID.TID 0000.0001) %MON forcing_qnet_min             =  -3.5249504722301E+01
(PID.TID 0000.0001) %MON forcing_qnet_mean            =  -7.8687274266015E-01
(PID.TID 0000.0001) %MON forcing_qnet_sd              =   2.1206751442746E+01
(PID.TID 0000.0001) %MON forcing_qnet_del2            =   1.0839516308052E-01
(PID.TID 0000.0001) %MON forcing_qsw_max              =   0.0000000000000E+00
(PID.TID 0000.0001) %MON forcing_qsw_min              =   0.0000000000000E+00
(PID.TID 0000.0001) %MON forcing_qsw_mean             =   0.0000000000000E+00
(PID.TID 0000.0001) %MON forcing_qsw_sd               =   0.0000000000000E+00
(PID.TID 0000.0001) %MON forcing_qsw_del2             =   0.0000000000000E+00
(PID.TID 0000.0001) %MON forcing_empmr_max            =   3.7600374110707E-05
(PID.TID 0000.0001) %MON forcing_empmr_min            =  -2.9685016686068E-05
(PID.TID 0000.0001) %MON forcing_empmr_mean           =   1.4208375872388E-06
(PID.TID 0000.0001) %MON forcing_empmr_sd             =   1.1923373923198E-05
(PID.TID 0000.0001) %MON forcing_empmr_del2           =   7.4400852469101E-08
(PID.TID 0000.0001) %MON forcing_fu_max               =   1.6004334390163E-01
(PID.TID 0000.0001) %MON forcing_fu_min               =  -1.0329221189022E-01
(PID.TID 0000.0001) %MON forcing_fu_mean              =   4.1280488583042E-03
(PID.TID 0000.0001) %MON forcing_fu_sd                =   5.5800359441598E-02
(PID.TID 0000.0001) %MON forcing_fu_del2              =   3.2370368543278E-04
(PID.TID 0000.0001) %MON forcing_fv_max               =   8.4633164107800E-02
(PID.TID 0000.0001) %MON forcing_fv_min               =  -7.0490099489689E-02
(PID.TID 0000.0001) %MON forcing_fv_mean              =   2.8803575798275E-03
(PID.TID 0000.0001) %MON forcing_fv_sd                =   2.2193297771215E-02
(PID.TID 0000.0001) %MON forcing_fv_del2              =   2.1170835219132E-04
(PID.TID 0000.0001) %MON trAdv_CFL_u_max              =   5.3132566456542E-02
(PID.TID 0000.0001) %MON trAdv_CFL_v_max              =   8.3945441679131E-02
(PID.TID 0000.0001) %MON trAdv_CFL_w_max              =   2.9274337053161E-01
(PID.TID 0000.0001) %MON advcfl_uvel_max              =   6.1237119234838E-02
(PID.TID 0000.0001) %MON advcfl_vvel_max              =   8.4223170190775E-02
(PID.TID 0000.0001) %MON advcfl_wvel_max              =   3.1769344180816E-01
(PID.TID 0000.0001) %MON advcfl_W_hf_max              =   3.4105325370582E-01
(PID.TID 0000.0001) %MON pe_b_mean                    =   3.1938686069419E-04
(PID.TID 0000.0001) %MON ke_max                       =   2.2411254078476E-01
(PID.TID 0000.0001) %MON ke_mean                      =   2.9525738322565E-04
(PID.TID 0000.0001) %MON ke_vol                       =   1.4101703507225E+18
(PID.TID 0000.0001) %MON vort_r_min                   =  -1.8235369497250E-06
(PID.TID 0000.0001) %MON vort_r_max                   =   2.1573841155726E-06
(PID.TID 0000.0001) %MON vort_a_mean                  =  -1.9976608796704E-05
(PID.TID 0000.0001) %MON vort_a_sd                    =   7.3718805087502E-05
(PID.TID 0000.0001) %MON vort_p_mean                  =  -2.3730263022063E-05
(PID.TID 0000.0001) %MON vort_p_sd                    =   1.0369722252730E-04
(PID.TID 0000.0001) %MON surfExpan_theta_mean         =   2.3097466611371E-07
(PID.TID 0000.0001) %MON surfExpan_salt_mean          =  -1.2434936306264E-07
(PID.TID 0000.0001) // =======================================================
(PID.TID 0000.0001) // End MONITOR dynamic field statistics
(PID.TID 0000.0001) // =======================================================
(PID.TID 0000.0001) // Time-average data written, t-step        20
(PID.TID 0000.0001) 
(PID.TID 0000.0001) %CHECKPOINT        20 ckptA
(PID.TID 0000.0001)   Seconds in section "ALL                    [THE_MODEL_MAIN]":
(PID.TID 0000.0001)           User time:   12.319286828394979
(PID.TID 0000.0001)         System time:  0.14349300181493163
(PID.TID 0000.0001)     Wall clock time:   12.536051988601685
(PID.TID 0000.0001)          No. starts:           1
(PID.TID 0000.0001)           No. stops:           1
(PID.TID 0000.0001)   Seconds in section "INITIALISE_FIXED       [THE_MODEL_MAIN]":
(PID.TID 0000.0001)           User time:   5.1086001563817263E-002
(PID.TID 0000.0001)         System time:   5.1086001563817263E-002
(PID.TID 0000.0001)     Wall clock time:  0.13030195236206055
(PID.TID 0000.0001)          No. starts:           1
(PID.TID 0000.0001)           No. stops:           1
(PID.TID 0000.0001)   Seconds in section "THE_MAIN_LOOP          [THE_MODEL_MAIN]":
(PID.TID 0000.0001)           User time:   12.268159199506044
(PID.TID 0000.0001)         System time:   9.2373002320528030E-002
(PID.TID 0000.0001)     Wall clock time:   12.405701160430908
(PID.TID 0000.0001)          No. starts:           1
(PID.TID 0000.0001)           No. stops:           1
(PID.TID 0000.0001)   Seconds in section "INITIALISE_VARIA    [THE_MAIN_LOOP]":
(PID.TID 0000.0001)           User time:  0.17425100132822990
(PID.TID 0000.0001)         System time:   5.1394004374742508E-002
(PID.TID 0000.0001)     Wall clock time:  0.24306297302246094
(PID.TID 0000.0001)          No. starts:           1
(PID.TID 0000.0001)           No. stops:           1
(PID.TID 0000.0001)   Seconds in section "MAIN LOOP           [THE_MAIN_LOOP]":
(PID.TID 0000.0001)           User time:   12.093882665038109
(PID.TID 0000.0001)         System time:   4.0968999266624451E-002
(PID.TID 0000.0001)     Wall clock time:   12.162611007690430
(PID.TID 0000.0001)          No. starts:           1
(PID.TID 0000.0001)           No. stops:           1
(PID.TID 0000.0001)   Seconds in section "MAIN_DO_LOOP        [THE_MAIN_LOOP]":
(PID.TID 0000.0001)           User time:   12.093723356723785
(PID.TID 0000.0001)         System time:   4.0966004133224487E-002
(PID.TID 0000.0001)     Wall clock time:   12.162441015243530
(PID.TID 0000.0001)          No. starts:          20
(PID.TID 0000.0001)           No. stops:          20
(PID.TID 0000.0001)   Seconds in section "FORWARD_STEP        [MAIN_DO_LOOP]":
(PID.TID 0000.0001)           User time:   12.093380123376846
(PID.TID 0000.0001)         System time:   4.0962003171443939E-002
(PID.TID 0000.0001)     Wall clock time:   12.162102937698364
(PID.TID 0000.0001)          No. starts:          20
(PID.TID 0000.0001)           No. stops:          20
(PID.TID 0000.0001)   Seconds in section "LOAD_FIELDS_DRIVER  [FORWARD_STEP]":
(PID.TID 0000.0001)           User time:   5.0233304500579834E-004
(PID.TID 0000.0001)         System time:   1.3001263141632080E-005
(PID.TID 0000.0001)     Wall clock time:   5.1689147949218750E-004
(PID.TID 0000.0001)          No. starts:          20
(PID.TID 0000.0001)           No. stops:          20
(PID.TID 0000.0001)   Seconds in section "EXTERNAL_FLDS_LOAD [LOAD_FLDS_DRIVER]":
(PID.TID 0000.0001)           User time:   1.7364323139190674E-004
(PID.TID 0000.0001)         System time:   7.9944729804992676E-006
(PID.TID 0000.0001)     Wall clock time:   1.8596649169921875E-004
(PID.TID 0000.0001)          No. starts:          20
(PID.TID 0000.0001)           No. stops:          20
(PID.TID 0000.0001)   Seconds in section "EBM                [FORWARD_STEP]":
(PID.TID 0000.0001)           User time:   4.1823193430900574E-002
(PID.TID 0000.0001)         System time:   7.2200596332550049E-004
(PID.TID 0000.0001)     Wall clock time:   4.2576551437377930E-002
(PID.TID 0000.0001)          No. starts:          20
(PID.TID 0000.0001)           No. stops:          20
(PID.TID 0000.0001)   Seconds in section "DO_ATMOSPHERIC_PHYS [FORWARD_STEP]":
(PID.TID 0000.0001)           User time:   1.8140673637390137E-004
(PID.TID 0000.0001)         System time:   3.0025839805603027E-006
(PID.TID 0000.0001)     Wall clock time:   1.8119812011718750E-004
(PID.TID 0000.0001)          No. starts:          20
(PID.TID 0000.0001)           No. stops:          20
(PID.TID 0000.0001)   Seconds in section "DO_OCEANIC_PHYS     [FORWARD_STEP]":
(PID.TID 0000.0001)           User time:   1.1453627496957779
(PID.TID 0000.0001)         System time:   3.6140009760856628E-003
(PID.TID 0000.0001)     Wall clock time:   1.1492176055908203
(PID.TID 0000.0001)          No. starts:          20
(PID.TID 0000.0001)           No. stops:          20
(PID.TID 0000.0001)   Seconds in section "THERMODYNAMICS      [FORWARD_STEP]":
(PID.TID 0000.0001)           User time:   3.0059150755405426
(PID.TID 0000.0001)         System time:   4.3959990143775940E-003
(PID.TID 0000.0001)     Wall clock time:   3.0107223987579346
(PID.TID 0000.0001)          No. starts:          20
(PID.TID 0000.0001)           No. stops:          20
(PID.TID 0000.0001)   Seconds in section "DYNAMICS            [FORWARD_STEP]":
(PID.TID 0000.0001)           User time:   3.5469660162925720
(PID.TID 0000.0001)         System time:   1.6400218009948730E-004
(PID.TID 0000.0001)     Wall clock time:   3.5476410388946533
(PID.TID 0000.0001)          No. starts:          20
(PID.TID 0000.0001)           No. stops:          20
(PID.TID 0000.0001)   Seconds in section "SOLVE_FOR_PRESSURE  [FORWARD_STEP]":
(PID.TID 0000.0001)           User time:   1.9182081818580627
(PID.TID 0000.0001)         System time:   0.0000000000000000
(PID.TID 0000.0001)     Wall clock time:   1.9192676544189453
(PID.TID 0000.0001)          No. starts:          20
(PID.TID 0000.0001)           No. stops:          20
(PID.TID 0000.0001)   Seconds in section "MOM_CORRECTION_STEP [FORWARD_STEP]":
(PID.TID 0000.0001)           User time:  0.11223536729812622
(PID.TID 0000.0001)         System time:   0.0000000000000000
(PID.TID 0000.0001)     Wall clock time:  0.11231923103332520
(PID.TID 0000.0001)          No. starts:          20
(PID.TID 0000.0001)           No. stops:          20
(PID.TID 0000.0001)   Seconds in section "INTEGR_CONTINUITY   [FORWARD_STEP]":
(PID.TID 0000.0001)           User time:  0.24325811862945557
(PID.TID 0000.0001)         System time:   1.3001263141632080E-005
(PID.TID 0000.0001)     Wall clock time:  0.24333596229553223
(PID.TID 0000.0001)          No. starts:          20
(PID.TID 0000.0001)           No. stops:          20
(PID.TID 0000.0001)   Seconds in section "TRC_CORRECTION_STEP [FORWARD_STEP]":
(PID.TID 0000.0001)           User time:   1.9896030426025391E-004
(PID.TID 0000.0001)         System time:   0.0000000000000000
(PID.TID 0000.0001)     Wall clock time:   1.9669532775878906E-004
(PID.TID 0000.0001)          No. starts:          20
(PID.TID 0000.0001)           No. stops:          20
(PID.TID 0000.0001)   Seconds in section "BLOCKING_EXCHANGES  [FORWARD_STEP]":
(PID.TID 0000.0001)           User time:  0.10217750072479248
(PID.TID 0000.0001)         System time:   2.3998320102691650E-005
(PID.TID 0000.0001)     Wall clock time:  0.10225057601928711
(PID.TID 0000.0001)          No. starts:          20
(PID.TID 0000.0001)           No. stops:          20
(PID.TID 0000.0001)   Seconds in section "DO_STATEVARS_TAVE   [FORWARD_STEP]":
(PID.TID 0000.0001)           User time:  0.56871813535690308
(PID.TID 0000.0001)         System time:   2.1003186702728271E-005
(PID.TID 0000.0001)     Wall clock time:  0.56888413429260254
(PID.TID 0000.0001)          No. starts:          20
(PID.TID 0000.0001)           No. stops:          20
(PID.TID 0000.0001)   Seconds in section "MONITOR             [FORWARD_STEP]":
(PID.TID 0000.0001)           User time:   1.2159879803657532
(PID.TID 0000.0001)         System time:   3.9860010147094727E-003
(PID.TID 0000.0001)     Wall clock time:   1.2266128063201904
(PID.TID 0000.0001)          No. starts:          20
(PID.TID 0000.0001)           No. stops:          20
(PID.TID 0000.0001)   Seconds in section "DO_THE_MODEL_IO     [FORWARD_STEP]":
(PID.TID 0000.0001)           User time:  0.14451771974563599
(PID.TID 0000.0001)         System time:   2.7972005307674408E-002
(PID.TID 0000.0001)     Wall clock time:  0.19153833389282227
(PID.TID 0000.0001)          No. starts:          20
(PID.TID 0000.0001)           No. stops:          20
(PID.TID 0000.0001)   Seconds in section "DO_WRITE_PICKUP     [FORWARD_STEP]":
(PID.TID 0000.0001)           User time:   4.3926417827606201E-002
(PID.TID 0000.0001)         System time:   0.0000000000000000
(PID.TID 0000.0001)     Wall clock time:   4.3927669525146484E-002
(PID.TID 0000.0001)          No. starts:          20
(PID.TID 0000.0001)           No. stops:          20
(PID.TID 0000.0001) // ======================================================
(PID.TID 0000.0001) // Tile <-> Tile communication statistics
(PID.TID 0000.0001) // ======================================================
(PID.TID 0000.0001) // o Tile number: 000001
(PID.TID 0000.0001) //         No. X exchanges =              0
(PID.TID 0000.0001) //            Max. X spins =              0
(PID.TID 0000.0001) //            Min. X spins =     1000000000
(PID.TID 0000.0001) //          Total. X spins =              0
(PID.TID 0000.0001) //            Avg. X spins =       0.00E+00
(PID.TID 0000.0001) //         No. Y exchanges =              0
(PID.TID 0000.0001) //            Max. Y spins =              0
(PID.TID 0000.0001) //            Min. Y spins =     1000000000
(PID.TID 0000.0001) //          Total. Y spins =              0
(PID.TID 0000.0001) //            Avg. Y spins =       0.00E+00
(PID.TID 0000.0001) // o Tile number: 000002
(PID.TID 0000.0001) //         No. X exchanges =              0
(PID.TID 0000.0001) //            Max. X spins =              0
(PID.TID 0000.0001) //            Min. X spins =     1000000000
(PID.TID 0000.0001) //          Total. X spins =              0
(PID.TID 0000.0001) //            Avg. X spins =       0.00E+00
(PID.TID 0000.0001) //         No. Y exchanges =              0
(PID.TID 0000.0001) //            Max. Y spins =              0
(PID.TID 0000.0001) //            Min. Y spins =     1000000000
(PID.TID 0000.0001) //          Total. Y spins =              0
(PID.TID 0000.0001) //            Avg. Y spins =       0.00E+00
(PID.TID 0000.0001) // o Tile number: 000003
(PID.TID 0000.0001) //         No. X exchanges =              0
(PID.TID 0000.0001) //            Max. X spins =              0
(PID.TID 0000.0001) //            Min. X spins =     1000000000
(PID.TID 0000.0001) //          Total. X spins =              0
(PID.TID 0000.0001) //            Avg. X spins =       0.00E+00
(PID.TID 0000.0001) //         No. Y exchanges =              0
(PID.TID 0000.0001) //            Max. Y spins =              0
(PID.TID 0000.0001) //            Min. Y spins =     1000000000
(PID.TID 0000.0001) //          Total. Y spins =              0
(PID.TID 0000.0001) //            Avg. Y spins =       0.00E+00
(PID.TID 0000.0001) // o Tile number: 000004
(PID.TID 0000.0001) //         No. X exchanges =              0
(PID.TID 0000.0001) //            Max. X spins =              0
(PID.TID 0000.0001) //            Min. X spins =     1000000000
(PID.TID 0000.0001) //          Total. X spins =              0
(PID.TID 0000.0001) //            Avg. X spins =       0.00E+00
(PID.TID 0000.0001) //         No. Y exchanges =              0
(PID.TID 0000.0001) //            Max. Y spins =              0
(PID.TID 0000.0001) //            Min. Y spins =     1000000000
(PID.TID 0000.0001) //          Total. Y spins =              0
(PID.TID 0000.0001) //            Avg. Y spins =       0.00E+00
(PID.TID 0000.0001) // o Tile number: 000005
(PID.TID 0000.0001) //         No. X exchanges =              0
(PID.TID 0000.0001) //            Max. X spins =              0
(PID.TID 0000.0001) //            Min. X spins =     1000000000
(PID.TID 0000.0001) //          Total. X spins =              0
(PID.TID 0000.0001) //            Avg. X spins =       0.00E+00
(PID.TID 0000.0001) //         No. Y exchanges =              0
(PID.TID 0000.0001) //            Max. Y spins =              0
(PID.TID 0000.0001) //            Min. Y spins =     1000000000
(PID.TID 0000.0001) //          Total. Y spins =              0
(PID.TID 0000.0001) //            Avg. Y spins =       0.00E+00
(PID.TID 0000.0001) // o Tile number: 000006
(PID.TID 0000.0001) //         No. X exchanges =              0
(PID.TID 0000.0001) //            Max. X spins =              0
(PID.TID 0000.0001) //            Min. X spins =     1000000000
(PID.TID 0000.0001) //          Total. X spins =              0
(PID.TID 0000.0001) //            Avg. X spins =       0.00E+00
(PID.TID 0000.0001) //         No. Y exchanges =              0
(PID.TID 0000.0001) //            Max. Y spins =              0
(PID.TID 0000.0001) //            Min. Y spins =     1000000000
(PID.TID 0000.0001) //          Total. Y spins =              0
(PID.TID 0000.0001) //            Avg. Y spins =       0.00E+00
(PID.TID 0000.0001) // o Thread number: 000001
(PID.TID 0000.0001) //            No. barriers =          19638
(PID.TID 0000.0001) //      Max. barrier spins =              1
(PID.TID 0000.0001) //      Min. barrier spins =              1
(PID.TID 0000.0001) //     Total barrier spins =          19638
(PID.TID 0000.0001) //      Avg. barrier spins =       1.00E+00
PROGRAM MAIN: Execution ended Normally
