(PID.TID 0000.0001) 
(PID.TID 0000.0001) // ======================================================
(PID.TID 0000.0001) //                      MITgcm UV
(PID.TID 0000.0001) //                      =========
(PID.TID 0000.0001) // ======================================================
(PID.TID 0000.0001) // execution environment starting up...
(PID.TID 0000.0001) 
(PID.TID 0000.0001) // MITgcmUV version:  checkpoint68w
(PID.TID 0000.0001) // Build user:        jm_c
(PID.TID 0000.0001) // Build host:        villon
(PID.TID 0000.0001) // Build date:        Sun Apr 28 23:22:27 EDT 2024
(PID.TID 0000.0001) 
(PID.TID 0000.0001) // =======================================================
(PID.TID 0000.0001) // Execution Environment parameter file "eedata"
(PID.TID 0000.0001) // =======================================================
(PID.TID 0000.0001) ># Example "eedata" file
(PID.TID 0000.0001) ># Lines beginning "#" are comments
(PID.TID 0000.0001) ># nTx - No. threads per process in X
(PID.TID 0000.0001) ># nTy - No. threads per process in Y
(PID.TID 0000.0001) > &EEPARMS
(PID.TID 0000.0001) > nTx=1,
(PID.TID 0000.0001) > nTy=1,
(PID.TID 0000.0001) > /
(PID.TID 0000.0001) ># Note: Some systems use & as the
(PID.TID 0000.0001) ># namelist terminator. Other systems
(PID.TID 0000.0001) ># use a / character (as shown here).
(PID.TID 0000.0001) 
(PID.TID 0000.0001) // =======================================================
(PID.TID 0000.0001) // Computational Grid Specification ( see files "SIZE.h" )
(PID.TID 0000.0001) //                                  ( and "eedata"       )
(PID.TID 0000.0001) // =======================================================
(PID.TID 0000.0001)      nPx =    1 ; /* No. processes in X */
(PID.TID 0000.0001)      nPy =    1 ; /* No. processes in Y */
(PID.TID 0000.0001)      nSx =    3 ; /* No. tiles in X per process */
(PID.TID 0000.0001)      nSy =    2 ; /* No. tiles in Y per process */
(PID.TID 0000.0001)      sNx =   30 ; /* Tile size in X */
(PID.TID 0000.0001)      sNy =   20 ; /* Tile size in Y */
(PID.TID 0000.0001)      OLx =    2 ; /* Tile overlap distance in X */
(PID.TID 0000.0001)      OLy =    2 ; /* Tile overlap distance in Y */
(PID.TID 0000.0001)      nTx =    1 ; /* No. threads in X per process */
(PID.TID 0000.0001)      nTy =    1 ; /* No. threads in Y per process */
(PID.TID 0000.0001)       Nr =   15 ; /* No. levels in the vertical   */
(PID.TID 0000.0001)       Nx =   90 ; /* Total domain size in X ( = nPx*nSx*sNx ) */
(PID.TID 0000.0001)       Ny =   40 ; /* Total domain size in Y ( = nPy*nSy*sNy ) */
(PID.TID 0000.0001)   nTiles =    6 ; /* Total no. tiles per process ( = nSx*nSy ) */
(PID.TID 0000.0001)   nProcs =    1 ; /* Total no. processes ( = nPx*nPy ) */
(PID.TID 0000.0001) nThreads =    1 ; /* Total no. threads per process ( = nTx*nTy ) */
(PID.TID 0000.0001) usingMPI =    F ; /* Flag used to control whether MPI is in use */
(PID.TID 0000.0001)                   /*  note: To execute a program with MPI calls */
(PID.TID 0000.0001)                   /*  it must be launched appropriately e.g     */
(PID.TID 0000.0001)                   /*  "mpirun -np 64 ......"                    */
(PID.TID 0000.0001) useCoupler=   F ; /* Flag used to control communications with   */
(PID.TID 0000.0001)                   /*  other model components, through a coupler */
(PID.TID 0000.0001) useNest2W_parent =    F ;/* Control 2-W Nesting comm */
(PID.TID 0000.0001) useNest2W_child  =    F ;/* Control 2-W Nesting comm */
(PID.TID 0000.0001) debugMode =    F ; /* print debug msg. (sequence of S/R calls)  */
(PID.TID 0000.0001) printMapIncludesZeros=    F ; /* print zeros in Std.Output maps */
(PID.TID 0000.0001) maxLengthPrt1D=   65 /* maxLength of 1D array printed to StdOut */
(PID.TID 0000.0001) 
(PID.TID 0000.0001) // ======================================================
(PID.TID 0000.0001) // Mapping of tiles to threads
(PID.TID 0000.0001) // ======================================================
(PID.TID 0000.0001) // -o- Thread   1, tiles (   1:   3,   1:   2)
(PID.TID 0000.0001) 
(PID.TID 0000.0001) // ======================================================
(PID.TID 0000.0001) // Tile <-> Tile connectvity table
(PID.TID 0000.0001) // ======================================================
(PID.TID 0000.0001) // Tile number: 000001 (process no. = 000000)
(PID.TID 0000.0001) //        WEST: Tile = 000003, Process = 000000, Comm = put
(PID.TID 0000.0001) //                bi = 000003, bj = 000001
(PID.TID 0000.0001) //        EAST: Tile = 000002, Process = 000000, Comm = put
(PID.TID 0000.0001) //                bi = 000002, bj = 000001
(PID.TID 0000.0001) //       SOUTH: Tile = 000004, Process = 000000, Comm = put
(PID.TID 0000.0001) //                bi = 000001, bj = 000002
(PID.TID 0000.0001) //       NORTH: Tile = 000004, Process = 000000, Comm = put
(PID.TID 0000.0001) //                bi = 000001, bj = 000002
(PID.TID 0000.0001) // Tile number: 000002 (process no. = 000000)
(PID.TID 0000.0001) //        WEST: Tile = 000001, Process = 000000, Comm = put
(PID.TID 0000.0001) //                bi = 000001, bj = 000001
(PID.TID 0000.0001) //        EAST: Tile = 000003, Process = 000000, Comm = put
(PID.TID 0000.0001) //                bi = 000003, bj = 000001
(PID.TID 0000.0001) //       SOUTH: Tile = 000005, Process = 000000, Comm = put
(PID.TID 0000.0001) //                bi = 000002, bj = 000002
(PID.TID 0000.0001) //       NORTH: Tile = 000005, Process = 000000, Comm = put
(PID.TID 0000.0001) //                bi = 000002, bj = 000002
(PID.TID 0000.0001) // Tile number: 000003 (process no. = 000000)
(PID.TID 0000.0001) //        WEST: Tile = 000002, Process = 000000, Comm = put
(PID.TID 0000.0001) //                bi = 000002, bj = 000001
(PID.TID 0000.0001) //        EAST: Tile = 000001, Process = 000000, Comm = put
(PID.TID 0000.0001) //                bi = 000001, bj = 000001
(PID.TID 0000.0001) //       SOUTH: Tile = 000006, Process = 000000, Comm = put
(PID.TID 0000.0001) //                bi = 000003, bj = 000002
(PID.TID 0000.0001) //       NORTH: Tile = 000006, Process = 000000, Comm = put
(PID.TID 0000.0001) //                bi = 000003, bj = 000002
(PID.TID 0000.0001) // Tile number: 000004 (process no. = 000000)
(PID.TID 0000.0001) //        WEST: Tile = 000006, Process = 000000, Comm = put
(PID.TID 0000.0001) //                bi = 000003, bj = 000002
(PID.TID 0000.0001) //        EAST: Tile = 000005, Process = 000000, Comm = put
(PID.TID 0000.0001) //                bi = 000002, bj = 000002
(PID.TID 0000.0001) //       SOUTH: Tile = 000001, Process = 000000, Comm = put
(PID.TID 0000.0001) //                bi = 000001, bj = 000001
(PID.TID 0000.0001) //       NORTH: Tile = 000001, Process = 000000, Comm = put
(PID.TID 0000.0001) //                bi = 000001, bj = 000001
(PID.TID 0000.0001) // Tile number: 000005 (process no. = 000000)
(PID.TID 0000.0001) //        WEST: Tile = 000004, Process = 000000, Comm = put
(PID.TID 0000.0001) //                bi = 000001, bj = 000002
(PID.TID 0000.0001) //        EAST: Tile = 000006, Process = 000000, Comm = put
(PID.TID 0000.0001) //                bi = 000003, bj = 000002
(PID.TID 0000.0001) //       SOUTH: Tile = 000002, Process = 000000, Comm = put
(PID.TID 0000.0001) //                bi = 000002, bj = 000001
(PID.TID 0000.0001) //       NORTH: Tile = 000002, Process = 000000, Comm = put
(PID.TID 0000.0001) //                bi = 000002, bj = 000001
(PID.TID 0000.0001) // Tile number: 000006 (process no. = 000000)
(PID.TID 0000.0001) //        WEST: Tile = 000005, Process = 000000, Comm = put
(PID.TID 0000.0001) //                bi = 000002, bj = 000002
(PID.TID 0000.0001) //        EAST: Tile = 000004, Process = 000000, Comm = put
(PID.TID 0000.0001) //                bi = 000001, bj = 000002
(PID.TID 0000.0001) //       SOUTH: Tile = 000003, Process = 000000, Comm = put
(PID.TID 0000.0001) //                bi = 000003, bj = 000001
(PID.TID 0000.0001) //       NORTH: Tile = 000003, Process = 000000, Comm = put
(PID.TID 0000.0001) //                bi = 000003, bj = 000001
(PID.TID 0000.0001) 
(PID.TID 0000.0001)  INI_PARMS: opening model parameter file "data"
(PID.TID 0000.0001)  OPEN_COPY_DATA_FILE: opening file data
(PID.TID 0000.0001) // =======================================================
(PID.TID 0000.0001) // Parameter file "data"
(PID.TID 0000.0001) // =======================================================
(PID.TID 0000.0001) ># ====================
(PID.TID 0000.0001) ># | Model parameters |
(PID.TID 0000.0001) ># ====================
(PID.TID 0000.0001) >#
(PID.TID 0000.0001) ># Continuous equation parameters
(PID.TID 0000.0001) > &PARM01
(PID.TID 0000.0001) > tRef = 15*20.,
(PID.TID 0000.0001) > sRef = 15*35.,
(PID.TID 0000.0001) > viscAr=1.E-3,
(PID.TID 0000.0001) > viscAh=5.E5,
(PID.TID 0000.0001) > diffKhT=0.0,
(PID.TID 0000.0001) > diffKrT=3.E-5,
(PID.TID 0000.0001) > diffKhS=0.0,
(PID.TID 0000.0001) > diffKrS=3.E-5,
(PID.TID 0000.0001) > rhoConst=1035.,
(PID.TID 0000.0001) > rotationPeriod=86400.,
(PID.TID 0000.0001) > gravity=9.81,
(PID.TID 0000.0001) > eosType = 'POLY3',
(PID.TID 0000.0001) > ivdc_kappa=100.,
(PID.TID 0000.0001) > implicitDiffusion=.TRUE.,
(PID.TID 0000.0001) > allowFreezing=.TRUE.,
(PID.TID 0000.0001) > useRealFreshWaterFlux=.TRUE.,
(PID.TID 0000.0001) > useCDscheme=.TRUE.,
(PID.TID 0000.0001) > useNHMTerms=.TRUE.,
(PID.TID 0000.0001) ># turn on looped cells
(PID.TID 0000.0001) > hFacMin=.05,
(PID.TID 0000.0001) > hFacMindr=50.,
(PID.TID 0000.0001) ># set precision of data files
(PID.TID 0000.0001) > readBinaryPrec=32,
(PID.TID 0000.0001) >#- not safe to use globalFiles in multi-processors runs
(PID.TID 0000.0001) >#globalfiles=.TRUE.
(PID.TID 0000.0001) > usesinglecpuio=.TRUE.
(PID.TID 0000.0001) > /
(PID.TID 0000.0001) >
(PID.TID 0000.0001) ># Elliptic solver parameters
(PID.TID 0000.0001) > &PARM02
(PID.TID 0000.0001) > cg2dMaxIters=500,
(PID.TID 0000.0001) > cg2dTargetResidual=1.E-13,
(PID.TID 0000.0001) > useSRCGSolver = .TRUE.,
(PID.TID 0000.0001) > /
(PID.TID 0000.0001) >
(PID.TID 0000.0001) ># Time stepping parameters
(PID.TID 0000.0001) > &PARM03
(PID.TID 0000.0001) > nIter0 =      0,
(PID.TID 0000.0001) > nTimeSteps = 20,
(PID.TID 0000.0001) ># 100 years of integration will yield a reasonable flow field
(PID.TID 0000.0001) ># startTime  =          0.,
(PID.TID 0000.0001) ># endTime    = 3110400000.,
(PID.TID 0000.0001) > deltaTmom = 1200.0,
(PID.TID 0000.0001) > tauCD =     321428.,
(PID.TID 0000.0001) > deltaTtracer= 43200.0,
(PID.TID 0000.0001) > deltaTClock = 43200.0,
(PID.TID 0000.0001) ># if you are using a version later than checkpoint45d on the main branch
(PID.TID 0000.0001) ># you can uncomment the following line and increase the time step
(PID.TID 0000.0001) ># deltaTtracer and deltaTClock to 172800.0 as well to speed up the
(PID.TID 0000.0001) ># asynchronous time stepping
(PID.TID 0000.0001) ># deltaTfreesurf = 172800.0,
(PID.TID 0000.0001) > abEps = 0.1,
(PID.TID 0000.0001) > pChkptFreq= 311040000.,
(PID.TID 0000.0001) > dumpFreq=   311040000.,
(PID.TID 0000.0001) > dumpFreq=   864000.,
(PID.TID 0000.0001) > taveFreq=   311040000.,
(PID.TID 0000.0001) > taveFreq=   864000.,
(PID.TID 0000.0001) > monitorFreq=1.,
(PID.TID 0000.0001) > /
(PID.TID 0000.0001) >
(PID.TID 0000.0001) ># Gridding parameters
(PID.TID 0000.0001) > &PARM04
(PID.TID 0000.0001) > usingSphericalPolarGrid=.TRUE.,
(PID.TID 0000.0001) > delR= 50., 70., 100., 140., 190.,
(PID.TID 0000.0001) >       240., 290., 340., 390., 440.,
(PID.TID 0000.0001) >       490., 540., 590., 640., 690.,
(PID.TID 0000.0001) > ygOrigin=-80.,
(PID.TID 0000.0001) > dySpacing=4.,
(PID.TID 0000.0001) > dxSpacing=4.,
(PID.TID 0000.0001) > /
(PID.TID 0000.0001) >
(PID.TID 0000.0001) ># Input datasets
(PID.TID 0000.0001) > &PARM05
(PID.TID 0000.0001) > bathyFile=      'bathymetry.bin',
(PID.TID 0000.0001) > hydrogThetaFile='lev_t.bin',
(PID.TID 0000.0001) > hydrogSaltFile= 'lev_s.bin',
(PID.TID 0000.0001) > /
(PID.TID 0000.0001) 
(PID.TID 0000.0001)  INI_PARMS ; starts to read PARM01
(PID.TID 0000.0001)  INI_PARMS ; read PARM01 : OK
(PID.TID 0000.0001) S/R INI_PARMS: No request for barotropic solver
(PID.TID 0000.0001) S/R INI_PARMS: => Use implicitFreeSurface as default
(PID.TID 0000.0001)  INI_PARMS ; starts to read PARM02
(PID.TID 0000.0001)  INI_PARMS ; read PARM02 : OK
(PID.TID 0000.0001)  INI_PARMS ; starts to read PARM03
(PID.TID 0000.0001)  INI_PARMS ; read PARM03 : OK
(PID.TID 0000.0001)  INI_PARMS ; starts to read PARM04
(PID.TID 0000.0001)  INI_PARMS ; read PARM04 : OK
(PID.TID 0000.0001)  INI_PARMS ; starts to read PARM05
(PID.TID 0000.0001)  INI_PARMS ; read PARM05 : OK
(PID.TID 0000.0001)  INI_PARMS: finished reading file "data"
(PID.TID 0000.0001)  PACKAGES_BOOT: opening data.pkg
(PID.TID 0000.0001)  OPEN_COPY_DATA_FILE: opening file data.pkg
(PID.TID 0000.0001) // =======================================================
(PID.TID 0000.0001) // Parameter file "data.pkg"
(PID.TID 0000.0001) // =======================================================
(PID.TID 0000.0001) ># Packages
(PID.TID 0000.0001) > &PACKAGES
(PID.TID 0000.0001) >  useEXF         = .TRUE.,
(PID.TID 0000.0001) >  useCAL         = .TRUE.,
(PID.TID 0000.0001) >  useGMRedi      = .TRUE.,
(PID.TID 0000.0001) >  useFRAZIL      = .TRUE.,
(PID.TID 0000.0001) >  useBBL         = .TRUE.,
(PID.TID 0000.0001) >  useDiagnostics = .TRUE.,
(PID.TID 0000.0001) > /
(PID.TID 0000.0001) 
(PID.TID 0000.0001)  PACKAGES_BOOT: finished reading data.pkg
(PID.TID 0000.0001)  PACKAGES_BOOT: On/Off package Summary
 --------  pkgs with a standard "usePKG" On/Off switch in "data.pkg":  --------
 pkg/kpp                  compiled but not used ( useKPP                   = F )
 pkg/gmredi               compiled   and   used ( useGMRedi                = T )
 pkg/bbl                  compiled   and   used ( useBBL                   = T )
 pkg/cal                  compiled   and   used ( useCAL                   = T )
 pkg/exf                  compiled   and   used ( useEXF                   = T )
 pkg/profiles             compiled but not used ( usePROFILES              = F )
 pkg/frazil               compiled   and   used ( useFRAZIL                = T )
 pkg/diagnostics          compiled   and   used ( useDiagnostics           = T )
 -------- pkgs without standard "usePKG" On/Off switch in "data.pkg":  --------
 pkg/generic_advdiff      compiled   and   used ( useGAD                   = T )
 pkg/mom_common           compiled   and   used ( momStepping              = T )
 pkg/mom_vecinv           compiled but not used ( +vectorInvariantMomentum = F )
 pkg/mom_fluxform         compiled   and   used ( & not vectorInvariantMom = T )
 pkg/cd_code              compiled   and   used ( useCDscheme              = T )
 pkg/monitor              compiled   and   used ( monitorFreq > 0.         = T )
 pkg/timeave              compiled   and   used ( taveFreq > 0.            = T )
 pkg/debug                compiled but not used ( debugMode                = F )
 pkg/rw                   compiled   and   used
 pkg/mdsio                compiled   and   used
(PID.TID 0000.0001)  PACKAGES_BOOT: End of package Summary
(PID.TID 0000.0001) 
(PID.TID 0000.0001) CAL_READPARMS: opening data.cal
(PID.TID 0000.0001)  OPEN_COPY_DATA_FILE: opening file data.cal
(PID.TID 0000.0001) // =======================================================
(PID.TID 0000.0001) // Parameter file "data.cal"
(PID.TID 0000.0001) // =======================================================
(PID.TID 0000.0001) >#
(PID.TID 0000.0001) ># *******************
(PID.TID 0000.0001) ># Calendar Parameters
(PID.TID 0000.0001) ># *******************
(PID.TID 0000.0001) > &CAL_NML
(PID.TID 0000.0001) > TheCalendar='model',
(PID.TID 0000.0001) > startDate_1=19920101,
(PID.TID 0000.0001) > startDate_2=000000,
(PID.TID 0000.0001) > /
(PID.TID 0000.0001) 
(PID.TID 0000.0001) CAL_READPARMS: finished reading data.cal
(PID.TID 0000.0001) EXF_READPARMS: opening data.exf
(PID.TID 0000.0001)  OPEN_COPY_DATA_FILE: opening file data.exf
(PID.TID 0000.0001) // =======================================================
(PID.TID 0000.0001) // Parameter file "data.exf"
(PID.TID 0000.0001) // =======================================================
(PID.TID 0000.0001) ># *********************
(PID.TID 0000.0001) ># External Forcing Data
(PID.TID 0000.0001) ># *********************
(PID.TID 0000.0001) > &EXF_NML_01
(PID.TID 0000.0001) >#repeatPeriod= 31104000.,
(PID.TID 0000.0001) > exf_iprec         = 32,
(PID.TID 0000.0001) > useEXFYearlyFields= .TRUE.,
(PID.TID 0000.0001) > exf_debugLev      = 4,
(PID.TID 0000.0001) > /
(PID.TID 0000.0001) >
(PID.TID 0000.0001) ># *********************
(PID.TID 0000.0001) > &EXF_NML_02
(PID.TID 0000.0001) > hfluxstartdate1   = 19910116,
(PID.TID 0000.0001) > hfluxstartdate2   = 000000,
(PID.TID 0000.0001) > hfluxperiod       = 2592000.0,
(PID.TID 0000.0001) >#
(PID.TID 0000.0001) > sfluxstartdate1   = 19910116,
(PID.TID 0000.0001) > sfluxstartdate2   = 000000,
(PID.TID 0000.0001) > sfluxperiod       = 2592000.0,
(PID.TID 0000.0001) >#
(PID.TID 0000.0001) > ustressstartdate1 = 19910116,
(PID.TID 0000.0001) > ustressstartdate2 = 000000,
(PID.TID 0000.0001) > ustressperiod     = 2592000.0,
(PID.TID 0000.0001) >#
(PID.TID 0000.0001) > vstressstartdate1 = 19910116,
(PID.TID 0000.0001) > vstressstartdate2 = 000000,
(PID.TID 0000.0001) > vstressperiod     = 2592000.0,
(PID.TID 0000.0001) >#
(PID.TID 0000.0001) >#climsststartdate1 = 19910116,
(PID.TID 0000.0001) >#climsststartdate2 = 000000,
(PID.TID 0000.0001) > climsstperiod     = -1.0,
(PID.TID 0000.0001) ># 2 months restoring timescale for temperature
(PID.TID 0000.0001) > climsstTauRelax   = 5184000.,
(PID.TID 0000.0001) >#
(PID.TID 0000.0001) > climsssstartdate1 = 19910116,
(PID.TID 0000.0001) > climsssstartdate2 = 000000,
(PID.TID 0000.0001) > climsssperiod     = 2592000.0,
(PID.TID 0000.0001) ># 6 months restoring timescale for salinity
(PID.TID 0000.0001) > climsssTauRelax   = 15552000.,
(PID.TID 0000.0001) >#
(PID.TID 0000.0001) > hfluxfile    = 'ncep_qnet.bin',
(PID.TID 0000.0001) >#sfluxfile    = 'ncep_emp.bin',
(PID.TID 0000.0001) > ustressfile  = 'trenberth_taux.bin',
(PID.TID 0000.0001) > vstressfile  = 'trenberth_tauy.bin',
(PID.TID 0000.0001) > climsstfile  = 'lev_sst.bin',
(PID.TID 0000.0001) > climsssfile  = 'lev_sss.bin',
(PID.TID 0000.0001) >#
(PID.TID 0000.0001) > /
(PID.TID 0000.0001) >
(PID.TID 0000.0001) ># *********************
(PID.TID 0000.0001) > &EXF_NML_03
(PID.TID 0000.0001) > /
(PID.TID 0000.0001) >
(PID.TID 0000.0001) ># *********************
(PID.TID 0000.0001) > &EXF_NML_04
(PID.TID 0000.0001) > hflux_lon0    = 2.,
(PID.TID 0000.0001) > hflux_lon_inc = 4.,
(PID.TID 0000.0001) > hflux_lat0    = -78.,
(PID.TID 0000.0001) > hflux_lat_inc = 39*4.,
(PID.TID 0000.0001) > hflux_nlon    = 90,
(PID.TID 0000.0001) > hflux_nlat    = 40,
(PID.TID 0000.0001) >#
(PID.TID 0000.0001) > sflux_lon0    = 2.,
(PID.TID 0000.0001) > sflux_lon_inc = 4.,
(PID.TID 0000.0001) > sflux_lat0    = -78.,
(PID.TID 0000.0001) > sflux_lat_inc = 39*4.,
(PID.TID 0000.0001) > sflux_nlon    = 90,
(PID.TID 0000.0001) > sflux_nlat    = 40,
(PID.TID 0000.0001) >#
(PID.TID 0000.0001) > ustress_lon0    = 0.,
(PID.TID 0000.0001) > ustress_lon_inc = 4.,
(PID.TID 0000.0001) > ustress_lat0    = -78.,
(PID.TID 0000.0001) > ustress_lat_inc = 39*4.,
(PID.TID 0000.0001) > ustress_nlon    = 90,
(PID.TID 0000.0001) > ustress_nlat    = 40,
(PID.TID 0000.0001) >#
(PID.TID 0000.0001) > vstress_lon0    = 2.,
(PID.TID 0000.0001) > vstress_lon_inc = 4.,
(PID.TID 0000.0001) > vstress_lat0    = -80.,
(PID.TID 0000.0001) > vstress_lat_inc = 39*4.,
(PID.TID 0000.0001) > vstress_nlon    = 90,
(PID.TID 0000.0001) > vstress_nlat    = 40,
(PID.TID 0000.0001) >#
(PID.TID 0000.0001) > climsst_lon0    = 2.,
(PID.TID 0000.0001) > climsst_lon_inc = 4.,
(PID.TID 0000.0001) > climsst_lat0    = -78.,
(PID.TID 0000.0001) > climsst_lat_inc = 39*4.,
(PID.TID 0000.0001) > climsst_nlon    = 90,
(PID.TID 0000.0001) > climsst_nlat    = 40,
(PID.TID 0000.0001) >#
(PID.TID 0000.0001) > climsss_lon0    = 2.,
(PID.TID 0000.0001) > climsss_lon_inc = 4.,
(PID.TID 0000.0001) > climsss_lat0    = -78.,
(PID.TID 0000.0001) > climsss_lat_inc = 39*4.,
(PID.TID 0000.0001) > climsss_nlon    = 90,
(PID.TID 0000.0001) > climsss_nlat    = 40,
(PID.TID 0000.0001) >#
(PID.TID 0000.0001) > /
(PID.TID 0000.0001) 
(PID.TID 0000.0001) EXF_READPARMS: reading EXF_NML_01
(PID.TID 0000.0001) EXF_READPARMS: reading EXF_NML_02
(PID.TID 0000.0001) EXF_READPARMS: reading EXF_NML_03
(PID.TID 0000.0001) EXF_READPARMS: reading EXF_NML_04
(PID.TID 0000.0001) EXF_READPARMS: finished reading data.exf
(PID.TID 0000.0001)  GM_READPARMS: opening data.gmredi
(PID.TID 0000.0001)  OPEN_COPY_DATA_FILE: opening file data.gmredi
(PID.TID 0000.0001) // =======================================================
(PID.TID 0000.0001) // Parameter file "data.gmredi"
(PID.TID 0000.0001) // =======================================================
(PID.TID 0000.0001) ># GM+Redi package parameters:
(PID.TID 0000.0001) >
(PID.TID 0000.0001) >#-from MOM :
(PID.TID 0000.0001) ># GM_background_K: 	G & Mc.W  diffusion coefficient
(PID.TID 0000.0001) ># GM_maxSlope    :	max slope of isopycnals
(PID.TID 0000.0001) ># GM_Scrit       :	transition for scaling diffusion coefficient
(PID.TID 0000.0001) ># GM_Sd          :	half width scaling for diffusion coefficient
(PID.TID 0000.0001) ># GM_taper_scheme:	slope clipping or one of the tapering schemes
(PID.TID 0000.0001) ># GM_Kmin_horiz  :	horizontal diffusion minimum value
(PID.TID 0000.0001) >
(PID.TID 0000.0001) >#-Option parameters (needs to "define" options in GMREDI_OPTIONS.h")
(PID.TID 0000.0001) ># GM_isopycK     :	isopycnal diffusion coefficient (default=GM_background_K)
(PID.TID 0000.0001) ># GM_AdvForm     :	turn on GM Advective form       (default=Skew flux form)
(PID.TID 0000.0001) >
(PID.TID 0000.0001) > &GM_PARM01
(PID.TID 0000.0001) >  GM_background_K    = 1.e+3,
(PID.TID 0000.0001) >  GM_taper_scheme    = 'gkw91',
(PID.TID 0000.0001) >  GM_maxSlope        = 1.e-2,
(PID.TID 0000.0001) >  GM_Kmin_horiz      = 50.,
(PID.TID 0000.0001) >  GM_Scrit           = 4.e-3,
(PID.TID 0000.0001) >  GM_Sd              = 1.e-3,
(PID.TID 0000.0001) ># GM_Visbeck_alpha   = 0.,
(PID.TID 0000.0001) ># GM_Visbeck_length  = 2.e+5,
(PID.TID 0000.0001) ># GM_Visbeck_depth   = 1.e+3,
(PID.TID 0000.0001) ># GM_Visbeck_maxval_K= 2.5e+3,
(PID.TID 0000.0001) > /
(PID.TID 0000.0001) >
(PID.TID 0000.0001) >
(PID.TID 0000.0001) 
(PID.TID 0000.0001)  GM_READPARMS: finished reading data.gmredi
(PID.TID 0000.0001) BBL_READPARMS: opening data.bbl
(PID.TID 0000.0001)  OPEN_COPY_DATA_FILE: opening file data.bbl
(PID.TID 0000.0001) // =======================================================
(PID.TID 0000.0001) // Parameter file "data.bbl"
(PID.TID 0000.0001) // =======================================================
(PID.TID 0000.0001) ># BBL runtime parameters
(PID.TID 0000.0001) > &BBL_PARM01
(PID.TID 0000.0001) > bbl_wvel      = 1.D-5
(PID.TID 0000.0001) > bbl_hvel      = 1.D0
(PID.TID 0000.0001) > bbl_initEta   = 20.D0
(PID.TID 0000.0001) > bbl_thetaFile = ' '
(PID.TID 0000.0001) > bbl_saltFile  = ' '
(PID.TID 0000.0001) > bbl_etaFile   = ' '
(PID.TID 0000.0001) > /
(PID.TID 0000.0001) 
(PID.TID 0000.0001) BBL_READPARMS: finished reading data.bbl
(PID.TID 0000.0001)  DIAGNOSTICS_READPARMS: opening data.diagnostics
(PID.TID 0000.0001)  OPEN_COPY_DATA_FILE: opening file data.diagnostics
(PID.TID 0000.0001) // =======================================================
(PID.TID 0000.0001) // Parameter file "data.diagnostics"
(PID.TID 0000.0001) // =======================================================
(PID.TID 0000.0001) ># Diagnostic Package Choices
(PID.TID 0000.0001) >#--------------------
(PID.TID 0000.0001) >#  dumpAtLast (logical): always write output at the end of simulation (default=F)
(PID.TID 0000.0001) >#  diag_mnc   (logical): write to NetCDF files (default=useMNC)
(PID.TID 0000.0001) >#--for each output-stream:
(PID.TID 0000.0001) >#  fileName(n) : prefix of the output file name (max 80c long) for outp.stream n
(PID.TID 0000.0001) >#  frequency(n):< 0 : write snap-shot output every |frequency| seconds
(PID.TID 0000.0001) >#               > 0 : write time-average output every frequency seconds
(PID.TID 0000.0001) >#  timePhase(n)     : write at time = timePhase + multiple of |frequency|
(PID.TID 0000.0001) >#    averagingFreq  : frequency (in s) for periodic averaging interval
(PID.TID 0000.0001) >#    averagingPhase : phase     (in s) for periodic averaging interval
(PID.TID 0000.0001) >#    repeatCycle    : number of averaging intervals in 1 cycle
(PID.TID 0000.0001) >#  levels(:,n) : list of levels to write to file (Notes: declared as REAL)
(PID.TID 0000.0001) >#                when this entry is missing, select all common levels of this list
(PID.TID 0000.0001) >#  fields(:,n) : list of selected diagnostics fields (8.c) in outp.stream n
(PID.TID 0000.0001) >#                (see "available_diagnostics.log" file for the full list of diags)
(PID.TID 0000.0001) >#  missing_value(n) : missing value for real-type fields in output file "n"
(PID.TID 0000.0001) >#  fileFlags(n)     : specific code (8c string) for output file "n"
(PID.TID 0000.0001) >#--------------------
(PID.TID 0000.0001) ># This example dumps EXF diagnostics as snapshot after 30 days
(PID.TID 0000.0001) > &DIAGNOSTICS_LIST
(PID.TID 0000.0001) >  fields(1:4,1) = 'EXFtaux ','EXFtauy ','EXFqnet ','EXFempmr',
(PID.TID 0000.0001) >   fileName(1) = 'diagsEXF',
(PID.TID 0000.0001) >  frequency(1) = -864000.,
(PID.TID 0000.0001) >  fields(1:2,2)  = 'THETA   ','SALT    ',
(PID.TID 0000.0001) >   levels(1,2) = 1.,
(PID.TID 0000.0001) >   fileName(2) = 'diagSurf',
(PID.TID 0000.0001) >  frequency(2) = -864000.,
(PID.TID 0000.0001) >  fields(1:2,3)  = 'UVEL    ', 'VVEL    ',
(PID.TID 0000.0001) >   levels(1,3) = 2.,
(PID.TID 0000.0001) >   fileName(3) = 'diag_vel_k2',
(PID.TID 0000.0001) >  frequency(3) = -864000.,
(PID.TID 0000.0001) >  fields(1,4)  = 'FrzForcT',
(PID.TID 0000.0001) >   fileName(4) = 'FrzForcT',
(PID.TID 0000.0001) >  frequency(4) = 864000.,
(PID.TID 0000.0001) > /
(PID.TID 0000.0001) >
(PID.TID 0000.0001) >#--------------------
(PID.TID 0000.0001) ># Parameter for Diagnostics of per level statistics:
(PID.TID 0000.0001) >#--------------------
(PID.TID 0000.0001) >#  diagSt_mnc (logical): write stat-diags to NetCDF files (default=diag_mnc)
(PID.TID 0000.0001) >#  diagSt_regMaskFile : file containing the region-mask to read-in
(PID.TID 0000.0001) >#  nSetRegMskFile   : number of region-mask sets within the region-mask file
(PID.TID 0000.0001) >#  set_regMask(i)   : region-mask set-index that identifies the region "i"
(PID.TID 0000.0001) >#  val_regMask(i)   : region "i" identifier value in the region mask
(PID.TID 0000.0001) >#--for each output-stream:
(PID.TID 0000.0001) >#  stat_fName(n) : prefix of the output file name (max 80c long) for outp.stream n
(PID.TID 0000.0001) >#  stat_freq(n):< 0 : write snap-shot output every |stat_freq| seconds
(PID.TID 0000.0001) >#               > 0 : write time-average output every stat_freq seconds
(PID.TID 0000.0001) >#  stat_phase(n)    : write at time = stat_phase + multiple of |stat_freq|
(PID.TID 0000.0001) >#  stat_region(:,n) : list of "regions" (default: 1 region only=global)
(PID.TID 0000.0001) >#  stat_fields(:,n) : list of selected diagnostics fields (8.c) in outp.stream n
(PID.TID 0000.0001) >#                (see "available_diagnostics.log" file for the full list of diags)
(PID.TID 0000.0001) >#--------------------
(PID.TID 0000.0001) > &DIAG_STATIS_PARMS
(PID.TID 0000.0001) >#stat_fields(1:5,1)  = 'ETAN    ','UVEL    ','VVEL    ','WVEL    ', 'THETA   ',
(PID.TID 0000.0001) ># stat_fName(1) = 'dynStDiag',
(PID.TID 0000.0001) >#  stat_freq(1) = -864000.,
(PID.TID 0000.0001) ># stat_phase(1) = 0.,
(PID.TID 0000.0001) > /
(PID.TID 0000.0001) 
(PID.TID 0000.0001) S/R DIAGNOSTICS_READPARMS, read namelist "diagnostics_list": start
(PID.TID 0000.0001) S/R DIAGNOSTICS_READPARMS, read namelist "diagnostics_list": OK
(PID.TID 0000.0001) S/R DIAGNOSTICS_READPARMS, read namelist "DIAG_STATIS_PARMS": start
(PID.TID 0000.0001) S/R DIAGNOSTICS_READPARMS, read namelist "DIAG_STATIS_PARMS": OK
(PID.TID 0000.0001)  DIAGNOSTICS_READPARMS: global parameter summary:
(PID.TID 0000.0001)  dumpAtLast = /* always write time-ave diags at the end */
(PID.TID 0000.0001)                   F
(PID.TID 0000.0001)     ;
(PID.TID 0000.0001)  diag_mnc =   /* write NetCDF output files */
(PID.TID 0000.0001)                   F
(PID.TID 0000.0001)     ;
(PID.TID 0000.0001)  useMissingValue = /* put MissingValue where mask = 0 */
(PID.TID 0000.0001)                   F
(PID.TID 0000.0001)     ;
(PID.TID 0000.0001)  diagCG_maxIters = /* max number of iters in diag_cg2d */
(PID.TID 0000.0001)                     500
(PID.TID 0000.0001)     ;
(PID.TID 0000.0001)  diagCG_resTarget = /* residual target for diag_cg2d */
(PID.TID 0000.0001)                 1.000000000000000E-13
(PID.TID 0000.0001)     ;
(PID.TID 0000.0001)  diagCG_pcOffDFac = /* preconditioner off-diagonal factor */
(PID.TID 0000.0001)                 9.611687812379854E-01
(PID.TID 0000.0001)     ;
(PID.TID 0000.0001) -----------------------------------------------------
(PID.TID 0000.0001)  DIAGNOSTICS_READPARMS: active diagnostics summary:
(PID.TID 0000.0001) -----------------------------------------------------
(PID.TID 0000.0001) Creating Output Stream: diagsEXF
(PID.TID 0000.0001) Output Frequency:    -864000.000000 ; Phase:      432000.000000
(PID.TID 0000.0001)  Averaging Freq.:          0.000000 , Phase:           0.000000 , Cycle:   1
(PID.TID 0000.0001)  missing value: -9.990000000000E+02
(PID.TID 0000.0001)  Levels:    will be set later
(PID.TID 0000.0001)  Fields:    EXFtaux  EXFtauy  EXFqnet  EXFempmr
(PID.TID 0000.0001) Creating Output Stream: diagSurf
(PID.TID 0000.0001) Output Frequency:    -864000.000000 ; Phase:      432000.000000
(PID.TID 0000.0001)  Averaging Freq.:          0.000000 , Phase:           0.000000 , Cycle:   1
(PID.TID 0000.0001)  missing value: -9.990000000000E+02
(PID.TID 0000.0001)  Levels:       1.
(PID.TID 0000.0001)  Fields:    THETA    SALT
(PID.TID 0000.0001) Creating Output Stream: diag_vel_k2
(PID.TID 0000.0001) Output Frequency:    -864000.000000 ; Phase:      432000.000000
(PID.TID 0000.0001)  Averaging Freq.:          0.000000 , Phase:           0.000000 , Cycle:   1
(PID.TID 0000.0001)  missing value: -9.990000000000E+02
(PID.TID 0000.0001)  Levels:       2.
(PID.TID 0000.0001)  Fields:    UVEL     VVEL
(PID.TID 0000.0001) Creating Output Stream: FrzForcT
(PID.TID 0000.0001) Output Frequency:     864000.000000 ; Phase:           0.000000
(PID.TID 0000.0001)  Averaging Freq.:     864000.000000 , Phase:           0.000000 , Cycle:   1
(PID.TID 0000.0001)  missing value: -9.990000000000E+02
(PID.TID 0000.0001)  Levels:    will be set later
(PID.TID 0000.0001)  Fields:    FrzForcT
(PID.TID 0000.0001) -----------------------------------------------------
(PID.TID 0000.0001)  DIAGNOSTICS_READPARMS: statistics diags. summary:
(PID.TID 0000.0001) -----------------------------------------------------
(PID.TID 0000.0001) 
(PID.TID 0000.0001) SET_PARMS: done
(PID.TID 0000.0001) Enter INI_VERTICAL_GRID: setInterFDr=    T ; setCenterDr=    F
(PID.TID 0000.0001) %MON XC_max                       =   3.5800000000000E+02
(PID.TID 0000.0001) %MON XC_min                       =   2.0000000000000E+00
(PID.TID 0000.0001) %MON XC_mean                      =   1.8000000000000E+02
(PID.TID 0000.0001) %MON XC_sd                        =   1.0391663325314E+02
(PID.TID 0000.0001) %MON XG_max                       =   3.5600000000000E+02
(PID.TID 0000.0001) %MON XG_min                       =   0.0000000000000E+00
(PID.TID 0000.0001) %MON XG_mean                      =   1.7800000000000E+02
(PID.TID 0000.0001) %MON XG_sd                        =   1.0391663325314E+02
(PID.TID 0000.0001) %MON DXC_max                      =   4.4443898815675E+05
(PID.TID 0000.0001) %MON DXC_min                      =   9.2460385861875E+04
(PID.TID 0000.0001) %MON DXC_mean                     =   3.1372497618153E+05
(PID.TID 0000.0001) %MON DXC_sd                       =   1.1216447457560E+05
(PID.TID 0000.0001) %MON DXF_max                      =   4.4443898815675E+05
(PID.TID 0000.0001) %MON DXF_min                      =   9.2460385861875E+04
(PID.TID 0000.0001) %MON DXF_mean                     =   3.1372497618153E+05
(PID.TID 0000.0001) %MON DXF_sd                       =   1.1216447457560E+05
(PID.TID 0000.0001) %MON DXG_max                      =   4.4470989340816E+05
(PID.TID 0000.0001) %MON DXG_min                      =   7.7223062580781E+04
(PID.TID 0000.0001) %MON DXG_mean                     =   3.1353386340261E+05
(PID.TID 0000.0001) %MON DXG_sd                       =   1.1256651772502E+05
(PID.TID 0000.0001) %MON DXV_max                      =   4.4470989340816E+05
(PID.TID 0000.0001) %MON DXV_min                      =   7.7223062580781E+04
(PID.TID 0000.0001) %MON DXV_mean                     =   3.1353386340261E+05
(PID.TID 0000.0001) %MON DXV_sd                       =   1.1256651772502E+05
(PID.TID 0000.0001) %MON YC_max                       =   7.8000000000000E+01
(PID.TID 0000.0001) %MON YC_min                       =  -7.8000000000000E+01
(PID.TID 0000.0001) %MON YC_mean                      =   0.0000000000000E+00
(PID.TID 0000.0001) %MON YC_sd                        =   4.6173585522461E+01
(PID.TID 0000.0001) %MON YG_max                       =   7.6000000000000E+01
(PID.TID 0000.0001) %MON YG_min                       =  -8.0000000000000E+01
(PID.TID 0000.0001) %MON YG_mean                      =  -2.0000000000000E+00
(PID.TID 0000.0001) %MON YG_sd                        =   4.6173585522461E+01
(PID.TID 0000.0001) %MON DYC_max                      =   4.4470989340816E+05
(PID.TID 0000.0001) %MON DYC_min                      =   4.4470989340816E+05
(PID.TID 0000.0001) %MON DYC_mean                     =   4.4470989340815E+05
(PID.TID 0000.0001) %MON DYC_sd                       =   3.8417056202888E-09
(PID.TID 0000.0001) %MON DYF_max                      =   4.4470989340816E+05
(PID.TID 0000.0001) %MON DYF_min                      =   4.4470989340816E+05
(PID.TID 0000.0001) %MON DYF_mean                     =   4.4470989340815E+05
(PID.TID 0000.0001) %MON DYF_sd                       =   3.8417056202888E-09
(PID.TID 0000.0001) %MON DYG_max                      =   4.4470989340816E+05
(PID.TID 0000.0001) %MON DYG_min                      =   4.4470989340816E+05
(PID.TID 0000.0001) %MON DYG_mean                     =   4.4470989340815E+05
(PID.TID 0000.0001) %MON DYG_sd                       =   3.8417056202888E-09
(PID.TID 0000.0001) %MON DYU_max                      =   4.4470989340816E+05
(PID.TID 0000.0001) %MON DYU_min                      =   4.4470989340816E+05
(PID.TID 0000.0001) %MON DYU_mean                     =   4.4470989340815E+05
(PID.TID 0000.0001) %MON DYU_sd                       =   3.8417056202888E-09
(PID.TID 0000.0001) %MON RA_max                       =   1.9760627980089E+11
(PID.TID 0000.0001) %MON RA_min                       =   4.1109698667290E+10
(PID.TID 0000.0001) %MON RA_mean                      =   1.3948826965196E+11
(PID.TID 0000.0001) %MON RA_sd                        =   4.9870522472902E+10
(PID.TID 0000.0001) %MON RAW_max                      =   1.9760627980089E+11
(PID.TID 0000.0001) %MON RAW_min                      =   4.1109698667290E+10
(PID.TID 0000.0001) %MON RAW_mean                     =   1.3948826965196E+11
(PID.TID 0000.0001) %MON RAW_sd                       =   4.9870522472902E+10
(PID.TID 0000.0001) %MON RAS_max                      =   1.9772672958215E+11
(PID.TID 0000.0001) %MON RAS_min                      =   3.4334886267983E+10
(PID.TID 0000.0001) %MON RAS_mean                     =   1.3940329716694E+11
(PID.TID 0000.0001) %MON RAS_sd                       =   5.0049278732353E+10
(PID.TID 0000.0001) %MON RAZ_max                      =   1.9772672958215E+11
(PID.TID 0000.0001) %MON RAZ_min                      =   3.4334886267983E+10
(PID.TID 0000.0001) %MON RAZ_mean                     =   1.3940329716694E+11
(PID.TID 0000.0001) %MON RAZ_sd                       =   5.0049278732353E+10
(PID.TID 0000.0001) %MON AngleCS_max                  =   1.0000000000000E+00
(PID.TID 0000.0001) %MON AngleCS_min                  =   1.0000000000000E+00
(PID.TID 0000.0001) %MON AngleCS_mean                 =   1.0000000000000E+00
(PID.TID 0000.0001) %MON AngleCS_sd                   =   0.0000000000000E+00
(PID.TID 0000.0001) %MON AngleSN_max                  =   0.0000000000000E+00
(PID.TID 0000.0001) %MON AngleSN_min                  =   0.0000000000000E+00
(PID.TID 0000.0001) %MON AngleSN_mean                 =   0.0000000000000E+00
(PID.TID 0000.0001) %MON AngleSN_sd                   =   0.0000000000000E+00
(PID.TID 0000.0001)  MDS_READ_FIELD: opening global file: bathymetry.bin
(PID.TID 0000.0001) // =======================================================
(PID.TID 0000.0001) // Field Model R_low (ini_masks_etc)
(PID.TID 0000.0001) // CMIN =         -5.200000000000000E+03
(PID.TID 0000.0001) // CMAX =         -1.200000000000000E+02
(PID.TID 0000.0001) // CINT =          1.881481481481482E+02
(PID.TID 0000.0001) // SYMBOLS (CMIN->CMAX): -abcdefghijklmnopqrstuvwxyz+
(PID.TID 0000.0001) //                  0.0: .
(PID.TID 0000.0001) // RANGE I (Lo:Hi:Step):(    -1:    92:     1)
(PID.TID 0000.0001) // RANGE J (Lo:Hi:Step):(    42:    -1:    -1)
(PID.TID 0000.0001) // RANGE K (Lo:Hi:Step):(   1:   1:   1)
(PID.TID 0000.0001) // =======================================================
(PID.TID 0000.0001) K =   1
(PID.TID 0000.0001) //                I=8       I=18      I=28      I=34      I=44      I=54      I=60      I=70      I=80      I=90
(PID.TID 0000.0001) // |--J--|101234567|901234567|901234567|901290123|567890123|567890123|567890129|123456789|123456789|123456789|12
(PID.TID 0000.0001) //     42 ................................................zyxxmgfeeefefgimnpwwnpwwwy..+zyy.....yyyyoiiihhz+.....
(PID.TID 0000.0001) //     41 ......................................................................................................
(PID.TID 0000.0001) //     40 qlloqz+.++++zzz++++++..........................................................................+++qllo
(PID.TID 0000.0001) //     39 slloorzzzzzzzzz+...++.............................................................yxxz........+zvusllo
(PID.TID 0000.0001) //     38 mqpporzzzzzz+++...................................................................zxxy+......zyyvsmqpp
(PID.TID 0000.0001) //     37 mmmuz..........................................................................++...zy+...yttyy.+smmmu
(PID.TID 0000.0001) //     36 utt+.............................................mm++........................+++++++znmm.yoowssvuyutt+
(PID.TID 0000.0001) //     35 ++++.....................................+zzz..rrmmkk+...+gghn...............+++....+nmiijlsoopuww++++
(PID.TID 0000.0001) //     34 .........................................+vvy.ggqyxv+y.ccdffhim......................+nihhikkihhm+....
(PID.TID 0000.0001) //     33 +.........................................uuz---h------aaabdefin+...+.................zqvddflifffw+...
(PID.TID 0000.0001) //     32 +.........................................+t----h---------acdfgnn...n................+++gdffkofffm+...
(PID.TID 0000.0001) //     31 ..........................................-----ad--------abddegil...l..............qbaafccdhqqgddm....
(PID.TID 0000.0001) //     30 .........................................f----b--b------------abd...d............zfbb--fbcdosjfddi....
(PID.TID 0000.0001) //     29 .......................................tu----e---fjg----------abdf..df...........eaac--abfmijaadgi....
(PID.TID 0000.0001) //     28 .................................+...+xfl-------------------bdedefi.efi.........qbaa---aemfbbaaejz....
(PID.TID 0000.0001) //     27 ................xx..............+w..+wfgfpf--------eallc---bbbccefgiefgi...+++x.qb-----akfa---ah......
(PID.TID 0000.0001) //     26 ................xnn...........+vd-+vd---dna------a--aicfna---aabdfghdfghku.++xssuy-----bgca---ci......
(PID.TID 0000.0001) //     25 ................iiik...oo+...+ivd-ivd---doaa-bc--ilglf--aa---aabcghhcghhkll...ssum+xaaacjbaabdjk......
(PID.TID 0000.0001) //     24 ..............xnheeft.kkk+...uii.aii.aagdm----aa-----a-------bbbcdefcdefjljjju.zummwwbbchba--abi......
(PID.TID 0000.0001) //     23 ..............xgheefp.iikw...uuw..uw..fihi----fed-----eaaa--bbbbcdffcdfflkjiiiq....zykccefa--abd......
(PID.TID 0000.0001) //     22 uss...........bbelffslffkk...zz.wqz.wqkeeqoheccdfa-----egabaabcdddegddegghliiiqq......xeeehheehccquss.
(PID.TID 0000.0001) //     21 bbeir........nbbcdjhqdddiiz.....wq..wqfeelgghmedea-----bibbcddddddefddefghklnqoo........ieeflhgcccbbei
(PID.TID 0000.0001) //     20 bbder.......ldcccdgkccccidd......z...z.vkkktqqhegg----aaacddddddddefddefghkiiijl.........nhfa--gfcbbde
(PID.TID 0000.0001) //     19 cdaaf.......kddosggpaaaibbccx...+z..+z+.....r+nlec---agaaabcddccddefddefikfgffff...........d---cjhcdaa
(PID.TID 0000.0001) //     22 uss...........bbelffslffkk...zz.wqz.wqkeeqoheccdfa-----egabaabcdddegddegghliiiqq......xeeehheehccquss.
(PID.TID 0000.0001) //     21 bbeir........nbbcdjhqdddiiz.....wq..wqfeelgghmedea-----bibbcddddddefddefghklnqoo........ieeflhgcccbbei
(PID.TID 0000.0001) //     20 bbder.......ldcccdgkccccidd......z...z.vkkktqqhegg----aaacddddddddefddefghkiiijl.........nhfa--gfcbbde
(PID.TID 0000.0001) //     19 cdaaf.......kddosggpaaaibbccx...+z..+z+.....r+nlec---agaaabcddccddefddefikfgffff...........d---cjhcdaa
(PID.TID 0000.0001) //     18 d---d.......kglggvliaaaibbcaaeaiv+aiv++...qqzolhecccfdgkaabcdfccdeeideeikgfgffdd+..........d---djhd---
(PID.TID 0000.0001) //     17 c---c.......l.feewlfaaaoaa----aiv.aiv.....qqnllslmlofcdbaacceffffhhlfhhligfigeddj.........hd---ckhc---
(PID.TID 0000.0001) //     16 ba--c......tn.ddgnlfdaaqa-----lv..lv.......vnllvllnwv--accivomfffhilfhilhgfffeddjf........re--aeigba--
(PID.TID 0000.0001) //     15 b--dpz....+ll.ccdfhmdddlc----av...v.........otsxoomv---abccddfihgijkgijkhgfffeejfff......+fd---ckfb--d
(PID.TID 0000.0001) //     14 c--mcl....weeqbaafilkfend--eagy...y.........hhstofft----aacdheefijkmijkmjhhjijiffff.....zlfdaaadlfc--m
(PID.TID 0000.0001) //     13 cclbbg....nccobaaiddgkffqrqeaal...l.........eeutqfft------aaceeffhijfhijlkjhhigfffq....+jgfodccflhcclb
(PID.TID 0000.0001) //     12 hgaaacw+iiicclemhdddfliigfdcaabfaabfaaaz....ccsurqpc--------abcifffifffikiiihhggff.....kbbbdfffglhhgaa
(PID.TID 0000.0001) //     11 gcaaacbbifccennhbbdefnihgfdccaaaa-aaa----..dcccnt.ncab-------aabcdficdfilhggjiggff....l---abcefjlkgcaa
(PID.TID 0000.0001) //     10 fcaaccbdaacfrllfbbdegkmmljhfdddba-dba----d.dcccfx.nyrebaba----abcdgicdgilhfeegijgi..+w--aa-abcfilkfcaa
(PID.TID 0000.0001) //      9 ffcdcccaaaoqsolfdeehikihhlllgfedccedcccccdmdcccf.vyfaaaaaaaa--abdehmdehmjhfeeefglv.++w-----abcdfklffcd
(PID.TID 0000.0001) //      8 iffjklcaafddffeeccvznkfffhhhlkjifgjifgjkkfeeddfsyvcaaaaaaccdcccdfgjlfgjligedbbceg+.++xffn--cfddefliffj
(PID.TID 0000.0001) //      7 mqnnbbkkf--bmbaabbgtykfddeffeeddccddccdfhlffeelfbaaaaaacddeghgjgjllijlligeddaaabedfiiiiiisvkfkecchmqnn
(PID.TID 0000.0001) //      6 ca-------------aabcelttdddedddddccddccccdfkkiiffbaaaabcdgimmkmefecaaecaaabbbaaabbdfiiiiispmmregifcca--
(PID.TID 0000.0001) //      5 -------a-------aaccehhhiddeddddddcdddcccdfiikomodddefffmlmigedccaaaaaaaaaaaababbbdfiijsqgeccccbaa-----
(PID.TID 0000.0001) //      4 -ahebaabbbbbeihffgijiiiijpywnnpokkpokkomkiiijmmmolkommmgffeeedccaaaaaaaaaabbcccefhmz..yjgeccccbaa--ahe
(PID.TID 0000.0001) //      3 ffhhrpjiiwyy................................yxotmjjjjgfeeeeeeddeffffffffheddeghjkyy..yqjgeddccdbbgffhh
(PID.TID 0000.0001) //      2 ................................................zyxxmgfeeefefgimnpwwnpwwwy..+zyy.....yyyyoiiihhz+.....
(PID.TID 0000.0001) //      1 ......................................................................................................
(PID.TID 0000.0001) //      0 qlloqz+.++++zzz++++++..........................................................................+++qllo
(PID.TID 0000.0001) //     -1 slloorzzzzzzzzz+...++.............................................................yxxz........+zvusllo
(PID.TID 0000.0001) // =======================================================
(PID.TID 0000.0001) // END OF FIELD                                          =
(PID.TID 0000.0001) // =======================================================
(PID.TID 0000.0001) 
(PID.TID 0000.0001) // =======================================================
(PID.TID 0000.0001) // Field Model Ro_surf (ini_masks_etc)
(PID.TID 0000.0001) // CMIN =          1.000000000000000E+32
(PID.TID 0000.0001) // CMAX =         -1.000000000000000E+32
(PID.TID 0000.0001) // CINT =          0.000000000000000E+00
(PID.TID 0000.0001) // SYMBOLS (CMIN->CMAX): -abcdefghijklmnopqrstuvwxyz+
(PID.TID 0000.0001) //                  0.0: .
(PID.TID 0000.0001) // RANGE I (Lo:Hi:Step):(    -1:    92:     1)
(PID.TID 0000.0001) // RANGE J (Lo:Hi:Step):(    42:    -1:    -1)
(PID.TID 0000.0001) // RANGE K (Lo:Hi:Step):(   1:   1:   1)
(PID.TID 0000.0001) // =======================================================
(PID.TID 0000.0001) // =======================================================
(PID.TID 0000.0001) // END OF FIELD                                          =
(PID.TID 0000.0001) // =======================================================
(PID.TID 0000.0001) 
(PID.TID 0000.0001) // =======================================================
(PID.TID 0000.0001) // Field hFacC at iteration          0
(PID.TID 0000.0001) // CMIN =          1.000000000000000E+00
(PID.TID 0000.0001) // CMAX =          1.000000000000000E+00
(PID.TID 0000.0001) // CINT =          0.000000000000000E+00
(PID.TID 0000.0001) // SYMBOLS (CMIN->CMAX): -abcdefghijklmnopqrstuvwxyz+
(PID.TID 0000.0001) //                  0.0: .
(PID.TID 0000.0001) // RANGE I (Lo:Hi:Step):(    -1:    92:     1)
(PID.TID 0000.0001) // RANGE J (Lo:Hi:Step):(    42:    -1:    -1)
(PID.TID 0000.0001) // RANGE K (Lo:Hi:Step):(   1:   1:   1)
(PID.TID 0000.0001) // =======================================================
(PID.TID 0000.0001) // =======================================================
(PID.TID 0000.0001) // END OF FIELD                                          =
(PID.TID 0000.0001) // =======================================================
(PID.TID 0000.0001) 
(PID.TID 0000.0001) // =======================================================
(PID.TID 0000.0001) // Field hFacW at iteration          0
(PID.TID 0000.0001) // CMIN =          1.000000000000000E+00
(PID.TID 0000.0001) // CMAX =          1.000000000000000E+00
(PID.TID 0000.0001) // CINT =          0.000000000000000E+00
(PID.TID 0000.0001) // SYMBOLS (CMIN->CMAX): -abcdefghijklmnopqrstuvwxyz+
(PID.TID 0000.0001) //                  0.0: .
(PID.TID 0000.0001) // RANGE I (Lo:Hi:Step):(    -1:    92:     1)
(PID.TID 0000.0001) // RANGE J (Lo:Hi:Step):(    42:    -1:    -1)
(PID.TID 0000.0001) // RANGE K (Lo:Hi:Step):(   1:   1:   1)
(PID.TID 0000.0001) // =======================================================
(PID.TID 0000.0001) // =======================================================
(PID.TID 0000.0001) // END OF FIELD                                          =
(PID.TID 0000.0001) // =======================================================
(PID.TID 0000.0001) 
(PID.TID 0000.0001) // =======================================================
(PID.TID 0000.0001) // Field hFacS at iteration          0
(PID.TID 0000.0001) // CMIN =          1.000000000000000E+00
(PID.TID 0000.0001) // CMAX =          1.000000000000000E+00
(PID.TID 0000.0001) // CINT =          0.000000000000000E+00
(PID.TID 0000.0001) // SYMBOLS (CMIN->CMAX): -abcdefghijklmnopqrstuvwxyz+
(PID.TID 0000.0001) //                  0.0: .
(PID.TID 0000.0001) // RANGE I (Lo:Hi:Step):(    -1:    92:     1)
(PID.TID 0000.0001) // RANGE J (Lo:Hi:Step):(    42:    -1:    -1)
(PID.TID 0000.0001) // RANGE K (Lo:Hi:Step):(   1:   1:   1)
(PID.TID 0000.0001) // =======================================================
(PID.TID 0000.0001) // =======================================================
(PID.TID 0000.0001) // END OF FIELD                                          =
(PID.TID 0000.0001) // =======================================================
(PID.TID 0000.0001) 
(PID.TID 0000.0001) 
(PID.TID 0000.0001) // =======================================================
(PID.TID 0000.0001) // Calendar configuration >>> START <<<
(PID.TID 0000.0001) // =======================================================
(PID.TID 0000.0001) 
(PID.TID 0000.0001) modelstart = /* Start time of the model integration [s] */
(PID.TID 0000.0001)                 0.000000000000000E+00
(PID.TID 0000.0001)     ;
(PID.TID 0000.0001) modelend  = /* End time of the model integration [s] */
(PID.TID 0000.0001)                 8.640000000000000E+05
(PID.TID 0000.0001)     ;
(PID.TID 0000.0001) modelStep = /* Time interval for a model forward step [s] */
(PID.TID 0000.0001)                 4.320000000000000E+04
(PID.TID 0000.0001)     ;
(PID.TID 0000.0001) usingGregorianCalendar= /* Calendar Type: Gregorian Calendar */
(PID.TID 0000.0001)                   F
(PID.TID 0000.0001)     ;
(PID.TID 0000.0001) usingJulianCalendar = /* Calendar Type: Julian Calendar */
(PID.TID 0000.0001)                   F
(PID.TID 0000.0001)     ;
(PID.TID 0000.0001) usingNoLeapYearCal  = /* Calendar Type: without Leap Year */
(PID.TID 0000.0001)                   F
(PID.TID 0000.0001)     ;
(PID.TID 0000.0001) usingModelCalendar  = /* Calendar Type: Model Calendar */
(PID.TID 0000.0001)                   T
(PID.TID 0000.0001)     ;
(PID.TID 0000.0001) modelStartDate YYYYMMDD = /* Model start date YYYY-MM-DD */
(PID.TID 0000.0001)                19920101
(PID.TID 0000.0001)     ;
(PID.TID 0000.0001)   modelStartDate HHMMSS = /* Model start date HH-MM-SS  */
(PID.TID 0000.0001)                       0
(PID.TID 0000.0001)     ;
(PID.TID 0000.0001) modelEndDate   YYYYMMDD = /* Model end date YYYY-MM-DD */
(PID.TID 0000.0001)                19920111
(PID.TID 0000.0001)     ;
(PID.TID 0000.0001)   modelEndDate   HHMMSS = /* Model end date HH-MM-SS  */
(PID.TID 0000.0001)                       0
(PID.TID 0000.0001)     ;
(PID.TID 0000.0001) intyears = /* Number of calendar years affected by the integration */
(PID.TID 0000.0001)                       1
(PID.TID 0000.0001)     ;
(PID.TID 0000.0001) intmonths= /* Number of calendar months affected by the integration */
(PID.TID 0000.0001)                       1
(PID.TID 0000.0001)     ;
(PID.TID 0000.0001) intdays = /* Number of calendar days affected by the integration */
(PID.TID 0000.0001)                      10
(PID.TID 0000.0001)     ;
(PID.TID 0000.0001) modelIter0 = /* Base timestep number  */
(PID.TID 0000.0001)                       0
(PID.TID 0000.0001)     ;
(PID.TID 0000.0001) modelIterEnd = /* Final timestep number  */
(PID.TID 0000.0001)                      20
(PID.TID 0000.0001)     ;
(PID.TID 0000.0001) modelIntSteps= /* Number of model timesteps  */
(PID.TID 0000.0001)                      20
(PID.TID 0000.0001)     ;
(PID.TID 0000.0001) 
(PID.TID 0000.0001) // =======================================================
(PID.TID 0000.0001) // Calendar configuration  >>> END <<<
(PID.TID 0000.0001) // =======================================================
(PID.TID 0000.0001) 
(PID.TID 0000.0001) GAD_INIT_FIXED: GAD_OlMinSize=  1  0  1
(PID.TID 0000.0001) 
(PID.TID 0000.0001) // ===================================
(PID.TID 0000.0001) // GAD parameters :
(PID.TID 0000.0001) // ===================================
(PID.TID 0000.0001) tempAdvScheme =   /* Temp. Horiz.Advection scheme selector */
(PID.TID 0000.0001)                       2
(PID.TID 0000.0001)     ;
(PID.TID 0000.0001) tempVertAdvScheme =   /* Temp. Vert. Advection scheme selector */
(PID.TID 0000.0001)                       2
(PID.TID 0000.0001)     ;
(PID.TID 0000.0001) tempMultiDimAdvec =   /* use Muti-Dim Advec method for Temp */
(PID.TID 0000.0001)                   F
(PID.TID 0000.0001)     ;
(PID.TID 0000.0001) tempSOM_Advection = /* use 2nd Order Moment Advection for Temp */
(PID.TID 0000.0001)                   F
(PID.TID 0000.0001)     ;
(PID.TID 0000.0001) AdamsBashforthGt = /* apply Adams-Bashforth extrapolation on Gt */
(PID.TID 0000.0001)                   T
(PID.TID 0000.0001)     ;
(PID.TID 0000.0001) AdamsBashforth_T = /* apply Adams-Bashforth extrapolation on Temp */
(PID.TID 0000.0001)                   F
(PID.TID 0000.0001)     ;
(PID.TID 0000.0001) saltAdvScheme =   /* Salt. Horiz.advection scheme selector */
(PID.TID 0000.0001)                       2
(PID.TID 0000.0001)     ;
(PID.TID 0000.0001) saltVertAdvScheme =   /* Salt. Vert. Advection scheme selector */
(PID.TID 0000.0001)                       2
(PID.TID 0000.0001)     ;
(PID.TID 0000.0001) saltMultiDimAdvec =   /* use Muti-Dim Advec method for Salt */
(PID.TID 0000.0001)                   F
(PID.TID 0000.0001)     ;
(PID.TID 0000.0001) saltSOM_Advection = /* use 2nd Order Moment Advection for Salt */
(PID.TID 0000.0001)                   F
(PID.TID 0000.0001)     ;
(PID.TID 0000.0001) AdamsBashforthGs = /* apply Adams-Bashforth extrapolation on Gs */
(PID.TID 0000.0001)                   T
(PID.TID 0000.0001)     ;
(PID.TID 0000.0001) AdamsBashforth_S = /* apply Adams-Bashforth extrapolation on Salt */
(PID.TID 0000.0001)                   F
(PID.TID 0000.0001)     ;
(PID.TID 0000.0001) // ===================================
(PID.TID 0000.0001) 
(PID.TID 0000.0001) // =======================================================
(PID.TID 0000.0001) // External forcing (EXF) configuration >>> START <<<
(PID.TID 0000.0001) // =======================================================
(PID.TID 0000.0001) 
(PID.TID 0000.0001)  EXF general parameters:
(PID.TID 0000.0001) 
(PID.TID 0000.0001) exf_iprec = /* exf file precision */
(PID.TID 0000.0001)                      32
(PID.TID 0000.0001)     ;
(PID.TID 0000.0001) useExfYearlyFields = /* add extension _YEAR to input file names */
(PID.TID 0000.0001)                   T
(PID.TID 0000.0001)     ;
(PID.TID 0000.0001) twoDigitYear = /* use 2-digit year extension */
(PID.TID 0000.0001)                   F
(PID.TID 0000.0001)     ;
(PID.TID 0000.0001) useExfCheckRange = /* check for fields range */
(PID.TID 0000.0001)                   T
(PID.TID 0000.0001)     ;
(PID.TID 0000.0001) exf_output_interp = /* output directly interpolation result */
(PID.TID 0000.0001)                   F
(PID.TID 0000.0001)     ;
(PID.TID 0000.0001) diags_opOceWeighted = /* weight flux diags by open-ocean fraction */
(PID.TID 0000.0001)                   F
(PID.TID 0000.0001)     ;
(PID.TID 0000.0001) exf_debugLev = /* select EXF-debug printing level */
(PID.TID 0000.0001)                       4
(PID.TID 0000.0001)     ;
(PID.TID 0000.0001) exf_monFreq  = /* EXF monitor frequency [ s ] */
(PID.TID 0000.0001)                 1.000000000000000E+00
(PID.TID 0000.0001)     ;
(PID.TID 0000.0001) exf_adjMonSelect = /* select group of exf AD-variables to monitor */
(PID.TID 0000.0001)                       1
(PID.TID 0000.0001)     ;
(PID.TID 0000.0001) repeatPeriod = /* period for cycling forcing dataset [ s ] */
(PID.TID 0000.0001)                 0.000000000000000E+00
(PID.TID 0000.0001)     ;
(PID.TID 0000.0001) climTempFreeze= /* Minimum climatological temperature [deg.C] */
(PID.TID 0000.0001)                -1.900000000000000E+00
(PID.TID 0000.0001)     ;
(PID.TID 0000.0001) windStressMax = /* Maximum absolute windstress [ Pa ] */
(PID.TID 0000.0001)                 2.000000000000000E+00
(PID.TID 0000.0001)     ;
(PID.TID 0000.0001) stressIsOnCgrid = /* set u,v_stress on Arakawa C-grid */
(PID.TID 0000.0001)                   F
(PID.TID 0000.0001)     ;
(PID.TID 0000.0001) rotateStressOnAgrid = /* rotate u,v_stress on Arakawa A-grid */
(PID.TID 0000.0001)                   F
(PID.TID 0000.0001)     ;
(PID.TID 0000.0001) cen2kel = /* conversion of deg. Centigrade to Kelvin [K] */
(PID.TID 0000.0001)                 2.731500000000000E+02
(PID.TID 0000.0001)     ;
(PID.TID 0000.0001) gravity_mks= /* gravitational acceleration [m/s^2] */
(PID.TID 0000.0001)                 9.810000000000000E+00
(PID.TID 0000.0001)     ;
(PID.TID 0000.0001) atmrho =  /* mean atmospheric density [kg/m^3] */
(PID.TID 0000.0001)                 1.200000000000000E+00
(PID.TID 0000.0001)     ;
(PID.TID 0000.0001) atmcp =  /* mean atmospheric specific heat [J/kg/K] */
(PID.TID 0000.0001)                 1.005000000000000E+03
(PID.TID 0000.0001)     ;
(PID.TID 0000.0001) flamb =  /* latent heat of evaporation [J/kg] */
(PID.TID 0000.0001)                 2.500000000000000E+06
(PID.TID 0000.0001)     ;
(PID.TID 0000.0001) flami =  /* latent heat of pure-ice melting [J/kg] */
(PID.TID 0000.0001)                 3.340000000000000E+05
(PID.TID 0000.0001)     ;
(PID.TID 0000.0001) cvapor_fac = /* const. for Saturation calculation [?] */
(PID.TID 0000.0001)                 6.403800000000000E+05
(PID.TID 0000.0001)     ;
(PID.TID 0000.0001) cvapor_exp = /* const. for Saturation calculation [?] */
(PID.TID 0000.0001)                 5.107400000000000E+03
(PID.TID 0000.0001)     ;
(PID.TID 0000.0001) cvapor_fac_ice= /* const. for Saturation calculation [?] */
(PID.TID 0000.0001)                 1.163780000000000E+07
(PID.TID 0000.0001)     ;
(PID.TID 0000.0001) cvapor_exp_ice= /* const. for Saturation calculation [?] */
(PID.TID 0000.0001)                 5.897800000000000E+03
(PID.TID 0000.0001)     ;
(PID.TID 0000.0001) humid_fac = /* humidity coef. in virtual temp. [(kg/kg)^-1] */
(PID.TID 0000.0001)                 6.060000000000000E-01
(PID.TID 0000.0001)     ;
(PID.TID 0000.0001) gamma_blk = /* adiabatic lapse rate [?] */
(PID.TID 0000.0001)                 1.000000000000000E-02
(PID.TID 0000.0001)     ;
(PID.TID 0000.0001) saltsat = /* reduction of Qsat over salty water [-] */
(PID.TID 0000.0001)                 9.800000000000000E-01
(PID.TID 0000.0001)     ;
(PID.TID 0000.0001) noNegativeEvap = /* prevent negative Evaporation */
(PID.TID 0000.0001)                   F
(PID.TID 0000.0001)     ;
(PID.TID 0000.0001) sstExtrapol = /* extrapolation coeff from lev. 1 & 2 to surf [-] */
(PID.TID 0000.0001)                 0.000000000000000E+00
(PID.TID 0000.0001)     ;
(PID.TID 0000.0001) cDrag_1 = /* coef used in drag calculation [m/s] */
(PID.TID 0000.0001)                 2.700000000000000E-03
(PID.TID 0000.0001)     ;
(PID.TID 0000.0001) cDrag_2 = /* coef used in drag calculation [-] */
(PID.TID 0000.0001)                 1.420000000000000E-04
(PID.TID 0000.0001)     ;
(PID.TID 0000.0001) cDrag_3 = /* coef used in drag calculation [s/m] */
(PID.TID 0000.0001)                 7.640000000000000E-05
(PID.TID 0000.0001)     ;
(PID.TID 0000.0001) cDrag_8 = /* coef used in drag calculation [(s/m)^6] */
(PID.TID 0000.0001)                 1.234567000000000E+05
(PID.TID 0000.0001)     ;
(PID.TID 0000.0001) cDragMax = /* maximum drag (Large and Yeager, 2009) [-] */
(PID.TID 0000.0001)                 1.234567000000000E+05
(PID.TID 0000.0001)     ;
(PID.TID 0000.0001) umax = /* at maximum wind (Large and Yeager, 2009) [m/s] */
(PID.TID 0000.0001)                 1.234567000000000E+05
(PID.TID 0000.0001)     ;
(PID.TID 0000.0001) cStanton_1 = /* coef used in Stanton number calculation [-] */
(PID.TID 0000.0001)                 3.270000000000000E-02
(PID.TID 0000.0001)     ;
(PID.TID 0000.0001) cStanton_2 = /* coef used in Stanton number calculation [-] */
(PID.TID 0000.0001)                 1.800000000000000E-02
(PID.TID 0000.0001)     ;
(PID.TID 0000.0001) cDalton = /* Dalton number [-] */
(PID.TID 0000.0001)                 3.460000000000000E-02
(PID.TID 0000.0001)     ;
(PID.TID 0000.0001) exf_scal_BulkCdn= /* Drag coefficient scaling factor [-] */
(PID.TID 0000.0001)                 1.000000000000000E+00
(PID.TID 0000.0001)     ;
(PID.TID 0000.0001) zolmin = /* minimum stability parameter [?] */
(PID.TID 0000.0001)                -1.000000000000000E+02
(PID.TID 0000.0001)     ;
(PID.TID 0000.0001) psim_fac = /* coef used in turbulent fluxes calculation [-] */
(PID.TID 0000.0001)                 5.000000000000000E+00
(PID.TID 0000.0001)     ;
(PID.TID 0000.0001) zref =  /* reference height [ m ] */
(PID.TID 0000.0001)                 1.000000000000000E+01
(PID.TID 0000.0001)     ;
(PID.TID 0000.0001) hu =  /* height of mean wind [ m ] */
(PID.TID 0000.0001)                 1.000000000000000E+01
(PID.TID 0000.0001)     ;
(PID.TID 0000.0001) ht =  /* height of mean temperature [ m ] */
(PID.TID 0000.0001)                 2.000000000000000E+00
(PID.TID 0000.0001)     ;
(PID.TID 0000.0001) hq =  /* height of mean spec.humidity [ m ] */
(PID.TID 0000.0001)                 2.000000000000000E+00
(PID.TID 0000.0001)     ;
(PID.TID 0000.0001) uMin = /* minimum wind speed [m/s] */
(PID.TID 0000.0001)                 5.000000000000000E-01
(PID.TID 0000.0001)     ;
(PID.TID 0000.0001) useStabilityFct_overIce= /* transfert Coeffs over sea-ice depend on stability */
(PID.TID 0000.0001)                   F
(PID.TID 0000.0001)     ;
(PID.TID 0000.0001) exf_iceCd = /* drag coefficient over sea-ice (fixed) [-] */
(PID.TID 0000.0001)                 1.630000000000000E-03
(PID.TID 0000.0001)     ;
(PID.TID 0000.0001) exf_iceCe = /* transfert coeff. over sea-ice, for Evap (fixed) [-] */
(PID.TID 0000.0001)                 1.630000000000000E-03
(PID.TID 0000.0001)     ;
(PID.TID 0000.0001) exf_iceCh = /* transfert coeff. over sea-ice, Sens.Heat.(fixed)[-] */
(PID.TID 0000.0001)                 1.630000000000000E-03
(PID.TID 0000.0001)     ;
(PID.TID 0000.0001) exf_albedo =  /* Sea-water albedo [-] */
(PID.TID 0000.0001)                 1.000000000000000E-01
(PID.TID 0000.0001)     ;
(PID.TID 0000.0001) useExfZenAlbedo = /* Sea-water albedo varies with zenith angle */
(PID.TID 0000.0001)                   F
(PID.TID 0000.0001)     ;
(PID.TID 0000.0001) select_ZenAlbedo = /* Sea-water albedo computation method */
(PID.TID 0000.0001)                       0
(PID.TID 0000.0001)     ;
(PID.TID 0000.0001) useExfZenIncoming = /* compute incoming solar radiation */
(PID.TID 0000.0001)                   F
(PID.TID 0000.0001)     ;
(PID.TID 0000.0001) ocean_emissivity = /* longwave ocean-surface emissivity [-] */
(PID.TID 0000.0001)                 9.700176366843034E-01
(PID.TID 0000.0001)     ;
(PID.TID 0000.0001) ice_emissivity = /* longwave seaice emissivity [-] */
(PID.TID 0000.0001)                 9.500000000000000E-01
(PID.TID 0000.0001)     ;
(PID.TID 0000.0001) snow_emissivity = /* longwave snow  emissivity [-] */
(PID.TID 0000.0001)                 9.500000000000000E-01
(PID.TID 0000.0001)     ;
(PID.TID 0000.0001) 
(PID.TID 0000.0001)  EXF main CPP flags:
(PID.TID 0000.0001) 
(PID.TID 0000.0001) // USE_EXF_INTERPOLATION:              defined
(PID.TID 0000.0001) // ALLOW_ATM_TEMP:                 NOT defined
(PID.TID 0000.0001) // ALLOW_ATM_WIND (useAtmWind):    NOT defined
(PID.TID 0000.0001) // ALLOW_DOWNWARD_RADIATION:       NOT defined
(PID.TID 0000.0001) // ALLOW_BULKFORMULAE:             NOT defined
(PID.TID 0000.0001) 
(PID.TID 0000.0001)    Zonal wind stress forcing starts at             1296000.
(PID.TID 0000.0001)    Zonal wind stress forcing period is             2592000.
(PID.TID 0000.0001)    Zonal wind stress forcing repeat-cycle is             0.
(PID.TID 0000.0001)    Zonal wind stress forcing is read from file:
(PID.TID 0000.0001)    >> trenberth_taux.bin <<
(PID.TID 0000.0001)    interpolate "ustress" (method= 12 ):
(PID.TID 0000.0001)    lon0=   0.00000, nlon=    90, lon_inc= 4.0000000
(PID.TID 0000.0001)    lat0= -78.00000, nlat=    40, lat_inc= 4.0000000
(PID.TID 0000.0001) 
(PID.TID 0000.0001)    Meridional wind stress forcing starts at        1296000.
(PID.TID 0000.0001)    Meridional wind stress forcing period is        2592000.
(PID.TID 0000.0001)    Meridional wind stress forcing rep-cycle is           0.
(PID.TID 0000.0001)    Meridional wind stress forcing is read from file:
(PID.TID 0000.0001)    >> trenberth_tauy.bin <<
(PID.TID 0000.0001)    interpolate "vstress" (method= 22 ):
(PID.TID 0000.0001)    lon0=   2.00000, nlon=    90, lon_inc= 4.0000000
(PID.TID 0000.0001)    lat0= -80.00000, nlat=    40, lat_inc= 4.0000000
(PID.TID 0000.0001)     Interp. U & V comp. together: uvInterp_stress =    F
(PID.TID 0000.0001) 
(PID.TID 0000.0001)    Heat flux forcing starts at                     1296000.
(PID.TID 0000.0001)    Heat flux forcing period is                     2592000.
(PID.TID 0000.0001)    Heat flux forcing repeat-cycle is                     0.
(PID.TID 0000.0001)    Heat flux forcing is read from file:
(PID.TID 0000.0001)    >> ncep_qnet.bin <<
(PID.TID 0000.0001)    interpolate "hflux" (method=  1 ):
(PID.TID 0000.0001)    lon0=   2.00000, nlon=    90, lon_inc= 4.0000000
(PID.TID 0000.0001)    lat0= -78.00000, nlat=    40, lat_inc= 4.0000000
(PID.TID 0000.0001) 
(PID.TID 0000.0001) // EXF_READ_EVAP:                  NOT defined
(PID.TID 0000.0001) // ALLOW_RUNOFF:                   NOT defined
(PID.TID 0000.0001) // ALLOW_SALTFLX:                  NOT defined
(PID.TID 0000.0001) 
(PID.TID 0000.0001) // =======================================================
(PID.TID 0000.0001) // External forcing (EXF) climatology configuration :
(PID.TID 0000.0001) // =======================================================
(PID.TID 0000.0001) 
(PID.TID 0000.0001) // ALLOW_CLIMSST_RELAXATION:           defined
(PID.TID 0000.0001)    Climatological SST period is                         -1.
(PID.TID 0000.0001)    Climatological SST is read from file:
(PID.TID 0000.0001)    >> lev_sst.bin <<
(PID.TID 0000.0001)    interpolate "climsst" (method=  2 ):
(PID.TID 0000.0001)    lon0=   2.00000, nlon=    90, lon_inc= 4.0000000
(PID.TID 0000.0001)    lat0= -78.00000, nlat=    40, lat_inc= 4.0000000
(PID.TID 0000.0001) 
(PID.TID 0000.0001) // ALLOW_CLIMSSS_RELAXATION:           defined
(PID.TID 0000.0001)    Climatological SSS starts at                    1296000.
(PID.TID 0000.0001)    Climatological SSS period is                    2592000.
(PID.TID 0000.0001)    Climatological SSS repeat-cycle is                    0.
(PID.TID 0000.0001)    Climatological SSS is read from file:
(PID.TID 0000.0001)    >> lev_sss.bin <<
(PID.TID 0000.0001)    interpolate "climsss" (method=  2 ):
(PID.TID 0000.0001)    lon0=   2.00000, nlon=    90, lon_inc= 4.0000000
(PID.TID 0000.0001)    lat0= -78.00000, nlat=    40, lat_inc= 4.0000000
(PID.TID 0000.0001) 
(PID.TID 0000.0001) // =======================================================
(PID.TID 0000.0001) // External forcing (EXF) configuration  >>> END <<<
(PID.TID 0000.0001) // =======================================================
(PID.TID 0000.0001) 
(PID.TID 0000.0001) ------------------------------------------------------------
(PID.TID 0000.0001) DIAGNOSTICS_SET_LEVELS: done
(PID.TID 0000.0001)  Total Nb of available Diagnostics: ndiagt=   241
(PID.TID 0000.0001)  write list of available Diagnostics to file: available_diagnostics.log
(PID.TID 0000.0001) SETDIAG: Allocate  1 x  1 Levels for Diagnostic #   197 EXFtaux
(PID.TID 0000.0001) SETDIAG: Allocate  1 x  1 Levels for Diagnostic #   198 EXFtauy
(PID.TID 0000.0001) SETDIAG: Allocate  1 x  1 Levels for Diagnostic #   196 EXFqnet
(PID.TID 0000.0001) SETDIAG: Allocate  1 x  1 Levels for Diagnostic #   209 EXFempmr
(PID.TID 0000.0001) SETDIAG: Allocate 15 x  1 Levels for Diagnostic #    26 THETA
(PID.TID 0000.0001) SETDIAG: Allocate 15 x  1 Levels for Diagnostic #    27 SALT
(PID.TID 0000.0001) SETDIAG: Allocate 15 x  1 Levels for Diagnostic #    30 UVEL
(PID.TID 0000.0001) SETDIAG: Allocate 15 x  1 Levels for Diagnostic #    31 VVEL
(PID.TID 0000.0001) SETDIAG: Allocate 15 x  1 Levels for Diagnostic #   241 FrzForcT
(PID.TID 0000.0001)   space allocated for all diagnostics:      79 levels
(PID.TID 0000.0001)   set mate pointer for diag #    30  UVEL     , Parms: UUR     MR , mate:    31
(PID.TID 0000.0001)   set mate pointer for diag #    31  VVEL     , Parms: VVR     MR , mate:    30
(PID.TID 0000.0001) DIAGNOSTICS_SET_POINTERS: Set levels for Outp.Stream: diagsEXF
(PID.TID 0000.0001)  Levels:       1.
(PID.TID 0000.0001) DIAGNOSTICS_SET_POINTERS: Set levels for Outp.Stream: FrzForcT
(PID.TID 0000.0001)  Levels:       1.   2.   3.   4.   5.   6.   7.   8.   9.  10.  11.  12.  13.  14.  15.
(PID.TID 0000.0001) DIAGNOSTICS_SET_POINTERS: done
(PID.TID 0000.0001) ------------------------------------------------------------
(PID.TID 0000.0001) DIAGSTATS_SET_REGIONS: define no region
(PID.TID 0000.0001) ------------------------------------------------------------
(PID.TID 0000.0001)   space allocated for all stats-diags:       0 levels
(PID.TID 0000.0001) DIAGSTATS_SET_POINTERS: done
(PID.TID 0000.0001) ------------------------------------------------------------
(PID.TID 0000.0001) %MON fCori_max                    =   1.4226580169407E-04
(PID.TID 0000.0001) %MON fCori_min                    =  -1.4226580169407E-04
(PID.TID 0000.0001) %MON fCori_mean                   =  -1.1950317278951E-19
(PID.TID 0000.0001) %MON fCori_sd                     =   9.6335367303778E-05
(PID.TID 0000.0001) %MON fCoriG_max                   =   1.4112379284621E-04
(PID.TID 0000.0001) %MON fCoriG_min                   =  -1.4323448157692E-04
(PID.TID 0000.0001) %MON fCoriG_mean                  =  -3.5808620394228E-06
(PID.TID 0000.0001) %MON fCoriG_sd                    =   9.6285194120965E-05
(PID.TID 0000.0001) %MON fCoriCos_max                 =   1.4535550371427E-04
(PID.TID 0000.0001) %MON fCoriCos_min                 =   3.0239529651320E-05
(PID.TID 0000.0001) %MON fCoriCos_mean                =   1.0260497651149E-04
(PID.TID 0000.0001) %MON fCoriCos_sd                  =   3.6683828681187E-05
(PID.TID 0000.0001) INI_CG2D: CG2D normalisation factor =  6.5682677425711703E-05
(PID.TID 0000.0001) 
(PID.TID 0000.0001) // =======================================================
(PID.TID 0000.0001) // Model configuration
(PID.TID 0000.0001) // =======================================================
(PID.TID 0000.0001) //
(PID.TID 0000.0001) // "Physical" paramters ( PARM01 in namelist )
(PID.TID 0000.0001) //
(PID.TID 0000.0001) buoyancyRelation = /* Type of relation to get Buoyancy */
(PID.TID 0000.0001)               'OCEANIC'
(PID.TID 0000.0001)     ;
(PID.TID 0000.0001) fluidIsAir   =  /* fluid major constituent is Air */
(PID.TID 0000.0001)                   F
(PID.TID 0000.0001)     ;
(PID.TID 0000.0001) fluidIsWater =  /* fluid major constituent is Water */
(PID.TID 0000.0001)                   T
(PID.TID 0000.0001)     ;
(PID.TID 0000.0001) usingPCoords =  /* use p (or p*) vertical coordinate */
(PID.TID 0000.0001)                   F
(PID.TID 0000.0001)     ;
(PID.TID 0000.0001) usingZCoords =  /* use z (or z*) vertical coordinate */
(PID.TID 0000.0001)                   T
(PID.TID 0000.0001)     ;
(PID.TID 0000.0001) tRef =   /* Reference temperature profile ( oC or K ) */
(PID.TID 0000.0001)    15 @  2.000000000000000E+01              /* K =  1: 15 */
(PID.TID 0000.0001)     ;
(PID.TID 0000.0001) sRef =   /* Reference salinity profile ( g/kg ) */
(PID.TID 0000.0001)    15 @  3.500000000000000E+01              /* K =  1: 15 */
(PID.TID 0000.0001)     ;
(PID.TID 0000.0001) rhoRef =   /* Density vertical profile from (Ref,sRef)( kg/m^3 ) */
(PID.TID 0000.0001)    15 @  1.035000000000000E+03              /* K =  1: 15 */
(PID.TID 0000.0001)     ;
(PID.TID 0000.0001) dBdrRef = /* Vertical grad. of reference buoyancy [(m/s/r)^2] */
(PID.TID 0000.0001)    15 @  0.000000000000000E+00              /* K =  1: 15 */
(PID.TID 0000.0001)     ;
(PID.TID 0000.0001) useStrainTensionVisc= /* Use StrainTension Form of Viscous Operator */
(PID.TID 0000.0001)                   F
(PID.TID 0000.0001)     ;
(PID.TID 0000.0001) useVariableVisc = /* Use variable horizontal viscosity */
(PID.TID 0000.0001)                   F
(PID.TID 0000.0001)     ;
(PID.TID 0000.0001) useHarmonicVisc = /* Use harmonic horizontal viscosity */
(PID.TID 0000.0001)                   T
(PID.TID 0000.0001)     ;
(PID.TID 0000.0001) useBiharmonicVisc= /* Use biharmonic horiz.  viscosity */
(PID.TID 0000.0001)                   F
(PID.TID 0000.0001)     ;
(PID.TID 0000.0001) useSmag3D = /* Use isotropic 3-D Smagorinsky viscosity */
(PID.TID 0000.0001)                   F
(PID.TID 0000.0001)     ;
(PID.TID 0000.0001) viscAh  =   /* Lateral harmonic viscosity ( m^2/s ) */
(PID.TID 0000.0001)                 5.000000000000000E+05
(PID.TID 0000.0001)     ;
(PID.TID 0000.0001) viscA4  =   /* Lateral biharmonic viscosity ( m^4/s ) */
(PID.TID 0000.0001)                 0.000000000000000E+00
(PID.TID 0000.0001)     ;
(PID.TID 0000.0001) no_slip_sides =  /* Viscous BCs: No-slip sides */
(PID.TID 0000.0001)                   T
(PID.TID 0000.0001)     ;
(PID.TID 0000.0001) sideDragFactor = /* side-drag scaling factor (non-dim) */
(PID.TID 0000.0001)                 2.000000000000000E+00
(PID.TID 0000.0001)     ;
(PID.TID 0000.0001) viscArNr = /* vertical profile of vertical viscosity ( m^2/s )*/
(PID.TID 0000.0001)    15 @  1.000000000000000E-03              /* K =  1: 15 */
(PID.TID 0000.0001)     ;
(PID.TID 0000.0001) no_slip_bottom =  /* Viscous BCs: No-slip bottom */
(PID.TID 0000.0001)                   T
(PID.TID 0000.0001)     ;
(PID.TID 0000.0001) bottomVisc_pCell = /* Partial-cell in bottom Visc. BC */
(PID.TID 0000.0001)                   F
(PID.TID 0000.0001)     ;
(PID.TID 0000.0001) bottomDragLinear = /* linear bottom-drag coefficient ( m/s ) */
(PID.TID 0000.0001)                 0.000000000000000E+00
(PID.TID 0000.0001)     ;
(PID.TID 0000.0001) bottomDragQuadratic = /* quadratic bottom-drag coefficient (-) */
(PID.TID 0000.0001)                 0.000000000000000E+00
(PID.TID 0000.0001)     ;
(PID.TID 0000.0001) selectBotDragQuadr = /* select quadratic bottom drag options */
(PID.TID 0000.0001)                      -1
(PID.TID 0000.0001)     ;
(PID.TID 0000.0001) diffKhT =   /* Laplacian diffusion of heat laterally ( m^2/s ) */
(PID.TID 0000.0001)                 0.000000000000000E+00
(PID.TID 0000.0001)     ;
(PID.TID 0000.0001) diffK4T =   /* Biharmonic diffusion of heat laterally ( m^4/s ) */
(PID.TID 0000.0001)                 0.000000000000000E+00
(PID.TID 0000.0001)     ;
(PID.TID 0000.0001) diffKhS =   /* Laplacian diffusion of salt laterally ( m^2/s ) */
(PID.TID 0000.0001)                 0.000000000000000E+00
(PID.TID 0000.0001)     ;
(PID.TID 0000.0001) diffK4S =   /* Biharmonic diffusion of salt laterally ( m^4/s ) */
(PID.TID 0000.0001)                 0.000000000000000E+00
(PID.TID 0000.0001)     ;
(PID.TID 0000.0001) diffKrNrT = /* vertical profile of vertical diffusion of Temp ( m^2/s )*/
(PID.TID 0000.0001)    15 @  3.000000000000000E-05              /* K =  1: 15 */
(PID.TID 0000.0001)     ;
(PID.TID 0000.0001) diffKrNrS = /* vertical profile of vertical diffusion of Salt ( m^2/s )*/
(PID.TID 0000.0001)    15 @  3.000000000000000E-05              /* K =  1: 15 */
(PID.TID 0000.0001)     ;
(PID.TID 0000.0001) diffKrBL79surf = /* Surface diffusion for Bryan and Lewis 79 ( m^2/s ) */
(PID.TID 0000.0001)                 0.000000000000000E+00
(PID.TID 0000.0001)     ;
(PID.TID 0000.0001) diffKrBL79deep = /* Deep diffusion for Bryan and Lewis 1979 ( m^2/s ) */
(PID.TID 0000.0001)                 0.000000000000000E+00
(PID.TID 0000.0001)     ;
(PID.TID 0000.0001) diffKrBL79scl = /* Depth scale for Bryan and Lewis 1979 ( m ) */
(PID.TID 0000.0001)                 2.000000000000000E+02
(PID.TID 0000.0001)     ;
(PID.TID 0000.0001) diffKrBL79Ho = /* Turning depth for Bryan and Lewis 1979 ( m ) */
(PID.TID 0000.0001)                -2.000000000000000E+03
(PID.TID 0000.0001)     ;
(PID.TID 0000.0001) ivdc_kappa = /* Implicit Vertical Diffusivity for Convection ( m^2/s) */
(PID.TID 0000.0001)                 1.000000000000000E+02
(PID.TID 0000.0001)     ;
(PID.TID 0000.0001) hMixCriteria=  /* Criteria for mixed-layer diagnostic */
(PID.TID 0000.0001)                -8.000000000000000E-01
(PID.TID 0000.0001)     ;
(PID.TID 0000.0001) dRhoSmall =  /* Parameter for mixed-layer diagnostic */
(PID.TID 0000.0001)                 1.000000000000000E-06
(PID.TID 0000.0001)     ;
(PID.TID 0000.0001) hMixSmooth=  /* Smoothing parameter for mixed-layer diagnostic */
(PID.TID 0000.0001)                 0.000000000000000E+00
(PID.TID 0000.0001)     ;
(PID.TID 0000.0001) eosType =  /* Type of Equation of State */
(PID.TID 0000.0001)               'POLY3 '
(PID.TID 0000.0001)     ;
(PID.TID 0000.0001) Polynomial EQS parameters ( from POLY3.COEFFS ):
(PID.TID 0000.0001)   1  13.497  32.600  24.548  -0.202   0.773  -0.005  -0.002   0.000   0.000   0.000   0.000   0.000
(PID.TID 0000.0001)   2  13.488  32.600  24.819  -0.204   0.773  -0.005  -0.002   0.000   0.000   0.000   0.000   0.000
(PID.TID 0000.0001)   3  13.476  32.600  25.201  -0.205   0.772  -0.005  -0.002   0.000   0.000   0.000   0.000   0.000
(PID.TID 0000.0001)   4   8.469  35.150  28.642  -0.163   0.784  -0.005  -0.002  -0.000   0.000   0.000   0.000   0.000
(PID.TID 0000.0001)   5   8.451  35.150  29.393  -0.167   0.782  -0.005  -0.002  -0.000   0.000   0.000   0.000   0.000
(PID.TID 0000.0001)   6   5.940  34.900  30.563  -0.144   0.786  -0.005  -0.002  -0.001   0.000   0.000   0.000   0.000
(PID.TID 0000.0001)   7   4.425  34.900  31.985  -0.134   0.788  -0.005  -0.003  -0.000   0.000   0.000   0.000   0.000
(PID.TID 0000.0001)   8   2.911  34.750  33.505  -0.125   0.789  -0.006  -0.003  -0.000   0.000   0.000   0.000   0.000
(PID.TID 0000.0001)   9   1.893  34.800  35.341  -0.123   0.789  -0.006  -0.003   0.000   0.000   0.000   0.000   0.000
(PID.TID 0000.0001)  10   1.367  34.800  37.299  -0.129   0.787  -0.006  -0.003   0.000   0.000   0.000   0.000   0.000
(PID.TID 0000.0001)  11   1.327  34.800  39.405  -0.141   0.783  -0.005  -0.003   0.000   0.000   0.000   0.000   0.000
(PID.TID 0000.0001)  12   0.791  34.800  41.788  -0.149   0.780  -0.005  -0.003   0.000   0.000   0.000   0.000   0.000
(PID.TID 0000.0001)  13   0.736  34.750  44.259  -0.164   0.776  -0.005  -0.002   0.000   0.000   0.000   0.000   0.000
(PID.TID 0000.0001)  14   0.186  34.750  47.044  -0.175   0.773  -0.005  -0.002   0.000   0.000   0.000   0.000   0.000
(PID.TID 0000.0001)  15   0.595  34.750  49.835  -0.196   0.767  -0.004  -0.002   0.000   0.000   0.000   0.000   0.000
(PID.TID 0000.0001)     ;
(PID.TID 0000.0001) selectP_inEOS_Zc = /* select pressure to use in EOS (0,1,2,3) */
(PID.TID 0000.0001)                       0
(PID.TID 0000.0001)     0= -g*rhoConst*z ; 1= pRef (from tRef,sRef); 2= Hyd P ; 3= Hyd+NH P
(PID.TID 0000.0001)     ;
(PID.TID 0000.0001) surf_pRef = /* Surface reference pressure ( Pa ) */
(PID.TID 0000.0001)                 1.013250000000000E+05
(PID.TID 0000.0001)     ;
(PID.TID 0000.0001) HeatCapacity_Cp =  /* Specific heat capacity ( J/kg/K ) */
(PID.TID 0000.0001)                 3.994000000000000E+03
(PID.TID 0000.0001)     ;
(PID.TID 0000.0001) celsius2K = /* 0 degree Celsius converted to Kelvin ( K ) */
(PID.TID 0000.0001)                 2.731500000000000E+02
(PID.TID 0000.0001)     ;
(PID.TID 0000.0001) rhoConst  = /* Reference density (Boussinesq)  ( kg/m^3 ) */
(PID.TID 0000.0001)                 1.035000000000000E+03
(PID.TID 0000.0001)     ;
(PID.TID 0000.0001) rhoFacC = /* normalized Reference density @ cell-Center (-) */
(PID.TID 0000.0001)    15 @  1.000000000000000E+00              /* K =  1: 15 */
(PID.TID 0000.0001)     ;
(PID.TID 0000.0001) rhoFacF = /* normalized Reference density @ W-Interface (-) */
(PID.TID 0000.0001)    16 @  1.000000000000000E+00              /* K =  1: 16 */
(PID.TID 0000.0001)     ;
(PID.TID 0000.0001) rhoConstFresh = /* Fresh-water reference density ( kg/m^3 ) */
(PID.TID 0000.0001)                 1.035000000000000E+03
(PID.TID 0000.0001)     ;
(PID.TID 0000.0001) gravity =   /* Gravitational acceleration ( m/s^2 ) */
(PID.TID 0000.0001)                 9.810000000000000E+00
(PID.TID 0000.0001)     ;
(PID.TID 0000.0001) gBaro =   /* Barotropic gravity ( m/s^2 ) */
(PID.TID 0000.0001)                 9.810000000000000E+00
(PID.TID 0000.0001)     ;
(PID.TID 0000.0001) gravFacC = /* gravity factor (vs surf.) @ cell-Center (-) */
(PID.TID 0000.0001)    15 @  1.000000000000000E+00              /* K =  1: 15 */
(PID.TID 0000.0001)     ;
(PID.TID 0000.0001) gravFacF = /* gravity factor (vs surf.) @ W-Interface (-) */
(PID.TID 0000.0001)    16 @  1.000000000000000E+00              /* K =  1: 16 */
(PID.TID 0000.0001)     ;
(PID.TID 0000.0001) rotationPeriod =   /* Rotation Period ( s ) */
(PID.TID 0000.0001)                 8.640000000000000E+04
(PID.TID 0000.0001)     ;
(PID.TID 0000.0001) omega =   /* Angular velocity ( rad/s ) */
(PID.TID 0000.0001)                 7.272205216643040E-05
(PID.TID 0000.0001)     ;
(PID.TID 0000.0001) f0 =   /* Reference coriolis parameter ( 1/s ) */
(PID.TID 0000.0001)                 1.000000000000000E-04
(PID.TID 0000.0001)     ;
(PID.TID 0000.0001) beta =   /* Beta ( 1/(m.s) ) */
(PID.TID 0000.0001)                 9.999999999999999E-12
(PID.TID 0000.0001)     ;
(PID.TID 0000.0001) fPrime =   /* Second coriolis parameter ( 1/s ) */
(PID.TID 0000.0001)                 0.000000000000000E+00
(PID.TID 0000.0001)     ;
(PID.TID 0000.0001) rigidLid =   /* Rigid lid on/off flag */
(PID.TID 0000.0001)                   F
(PID.TID 0000.0001)     ;
(PID.TID 0000.0001) implicitFreeSurface =   /* Implicit free surface on/off flag */
(PID.TID 0000.0001)                   T
(PID.TID 0000.0001)     ;
(PID.TID 0000.0001) freeSurfFac =   /* Implicit free surface factor */
(PID.TID 0000.0001)                 1.000000000000000E+00
(PID.TID 0000.0001)     ;
(PID.TID 0000.0001) implicSurfPress =  /* Surface Pressure implicit factor (0-1) */
(PID.TID 0000.0001)                 1.000000000000000E+00
(PID.TID 0000.0001)     ;
(PID.TID 0000.0001) implicDiv2DFlow =  /* Barot. Flow Div. implicit factor (0-1) */
(PID.TID 0000.0001)                 1.000000000000000E+00
(PID.TID 0000.0001)     ;
(PID.TID 0000.0001) uniformLin_PhiSurf = /* use uniform Bo_surf on/off flag */
(PID.TID 0000.0001)                   T
(PID.TID 0000.0001)     ;
(PID.TID 0000.0001) uniformFreeSurfLev = /* free-surface level-index is uniform */
(PID.TID 0000.0001)                   T
(PID.TID 0000.0001)     ;
(PID.TID 0000.0001) sIceLoadFac =  /* scale factor for sIceLoad (0-1) */
(PID.TID 0000.0001)                 1.000000000000000E+00
(PID.TID 0000.0001)     ;
(PID.TID 0000.0001) hFacMin =   /* minimum partial cell factor (hFac) */
(PID.TID 0000.0001)                 5.000000000000000E-02
(PID.TID 0000.0001)     ;
(PID.TID 0000.0001) hFacMinDr = /* minimum partial cell thickness ( m) */
(PID.TID 0000.0001)                 5.000000000000000E+01
(PID.TID 0000.0001)     ;
(PID.TID 0000.0001) exactConserv =  /* Exact Volume Conservation on/off flag */
(PID.TID 0000.0001)                   F
(PID.TID 0000.0001)     ;
(PID.TID 0000.0001) linFSConserveTr = /* Tracer correction for Lin Free Surface on/off flag */
(PID.TID 0000.0001)                   F
(PID.TID 0000.0001)     ;
(PID.TID 0000.0001) nonlinFreeSurf = /* Non-linear Free Surf. options (-1,0,1,2,3)*/
(PID.TID 0000.0001)                       0
(PID.TID 0000.0001)      -1,0= Off ; 1,2,3= On, 2=+rescale gU,gV, 3=+update cg2d solv.
(PID.TID 0000.0001)     ;
(PID.TID 0000.0001) hFacInf =   /* lower threshold for hFac (nonlinFreeSurf only)*/
(PID.TID 0000.0001)                 2.000000000000000E-01
(PID.TID 0000.0001)     ;
(PID.TID 0000.0001) hFacSup =   /* upper threshold for hFac (nonlinFreeSurf only)*/
(PID.TID 0000.0001)                 2.000000000000000E+00
(PID.TID 0000.0001)     ;
(PID.TID 0000.0001) select_rStar = /* r* Vertical coord. options (=0 r coord.; >0 uses r*)*/
(PID.TID 0000.0001)                       0
(PID.TID 0000.0001)     ;
(PID.TID 0000.0001) useRealFreshWaterFlux = /* Real Fresh Water Flux on/off flag*/
(PID.TID 0000.0001)                   T
(PID.TID 0000.0001)     ;
(PID.TID 0000.0001) temp_EvPrRn = /* Temp. of Evap/Prec/R (UNSET=use local T)(oC)*/
(PID.TID 0000.0001)                 1.234567000000000E+05
(PID.TID 0000.0001)     ;
(PID.TID 0000.0001) salt_EvPrRn = /* Salin. of Evap/Prec/R (UNSET=use local S)(g/kg)*/
(PID.TID 0000.0001)                 0.000000000000000E+00
(PID.TID 0000.0001)     ;
(PID.TID 0000.0001) selectAddFluid = /* option for mass source/sink of fluid (=0: off) */
(PID.TID 0000.0001)                       0
(PID.TID 0000.0001)     ;
(PID.TID 0000.0001) temp_addMass = /* Temp. of addMass array (UNSET=use local T)(oC)*/
(PID.TID 0000.0001)                 1.234567000000000E+05
(PID.TID 0000.0001)     ;
(PID.TID 0000.0001) salt_addMass = /* Salin. of addMass array (UNSET=use local S)(g/kg)*/
(PID.TID 0000.0001)                 0.000000000000000E+00
(PID.TID 0000.0001)     ;
(PID.TID 0000.0001) convertFW2Salt = /* convert F.W. Flux to Salt Flux (-1=use local S)(g/kg)*/
(PID.TID 0000.0001)                -1.000000000000000E+00
(PID.TID 0000.0001)     ;
(PID.TID 0000.0001) use3Dsolver = /* use 3-D pressure solver on/off flag */
(PID.TID 0000.0001)                   F
(PID.TID 0000.0001)     ;
(PID.TID 0000.0001) nonHydrostatic =  /* Non-Hydrostatic on/off flag */
(PID.TID 0000.0001)                   F
(PID.TID 0000.0001)     ;
(PID.TID 0000.0001) nh_Am2 = /* Non-Hydrostatic terms scaling factor */
(PID.TID 0000.0001)                 1.000000000000000E+00
(PID.TID 0000.0001)     ;
(PID.TID 0000.0001) implicitNHPress = /* Non-Hyd Pressure implicit factor (0-1)*/
(PID.TID 0000.0001)                 1.000000000000000E+00
(PID.TID 0000.0001)     ;
(PID.TID 0000.0001) selectNHfreeSurf = /* Non-Hyd (free-)Surface option */
(PID.TID 0000.0001)                       0
(PID.TID 0000.0001)     ;
(PID.TID 0000.0001) quasiHydrostatic = /* Quasi-Hydrostatic on/off flag */
(PID.TID 0000.0001)                   F
(PID.TID 0000.0001)     ;
(PID.TID 0000.0001) calc_wVelocity = /* vertical velocity calculation on/off flag */
(PID.TID 0000.0001)                   T
(PID.TID 0000.0001)     ;
(PID.TID 0000.0001) momStepping =  /* Momentum equation on/off flag */
(PID.TID 0000.0001)                   T
(PID.TID 0000.0001)     ;
(PID.TID 0000.0001) vectorInvariantMomentum= /* Vector-Invariant Momentum on/off */
(PID.TID 0000.0001)                   F
(PID.TID 0000.0001)     ;
(PID.TID 0000.0001) momAdvection =  /* Momentum advection on/off flag */
(PID.TID 0000.0001)                   T
(PID.TID 0000.0001)     ;
(PID.TID 0000.0001) momViscosity =  /* Momentum viscosity on/off flag */
(PID.TID 0000.0001)                   T
(PID.TID 0000.0001)     ;
(PID.TID 0000.0001) momImplVertAdv= /* Momentum implicit vert. advection on/off*/
(PID.TID 0000.0001)                   F
(PID.TID 0000.0001)     ;
(PID.TID 0000.0001) implicitViscosity = /* Implicit viscosity on/off flag */
(PID.TID 0000.0001)                   F
(PID.TID 0000.0001)     ;
(PID.TID 0000.0001) selectImplicitDrag= /* Implicit bot Drag options (0,1,2)*/
(PID.TID 0000.0001)                       0
(PID.TID 0000.0001)     0= Expl. ; 1= Impl. on provis. Vel ; 2= Fully Impl (with surf.P)
(PID.TID 0000.0001)     ;
(PID.TID 0000.0001) selectMetricTerms= /* Metric-Terms on/off flag (=0/1) */
(PID.TID 0000.0001)                       1
(PID.TID 0000.0001)     ;
(PID.TID 0000.0001) useNHMTerms = /* Non-Hydrostatic Metric-Terms on/off */
(PID.TID 0000.0001)                   T
(PID.TID 0000.0001)     ;
(PID.TID 0000.0001) selectCoriMap = /* Coriolis Map options (0,1,2,3)*/
(PID.TID 0000.0001)                       2
(PID.TID 0000.0001)     0= f-Plane ; 1= Beta-Plane ; 2= Spherical ; 3= read from file
(PID.TID 0000.0001)     ;
(PID.TID 0000.0001) select3dCoriScheme= /* 3-D Coriolis on/off flag (=0/1) */
(PID.TID 0000.0001)                       0
(PID.TID 0000.0001)     ;
(PID.TID 0000.0001) useCoriolis =  /* Coriolis on/off flag */
(PID.TID 0000.0001)                   T
(PID.TID 0000.0001)     ;
(PID.TID 0000.0001) useCDscheme =  /* CD scheme on/off flag */
(PID.TID 0000.0001)                   T
(PID.TID 0000.0001)     ;
(PID.TID 0000.0001) selectCoriScheme= /* Scheme selector for Coriolis-Term */
(PID.TID 0000.0001)                       0
(PID.TID 0000.0001)    = 0 : original discretization (simple averaging, no hFac)
(PID.TID 0000.0001)    = 1 : Wet-point averaging (Jamar & Ozer 1986)
(PID.TID 0000.0001)    = 2 : energy conserving scheme (no hFac weight)
(PID.TID 0000.0001)    = 3 : energy conserving scheme using Wet-point averaging
(PID.TID 0000.0001)     ;
(PID.TID 0000.0001) momForcing =  /* Momentum forcing on/off flag */
(PID.TID 0000.0001)                   T
(PID.TID 0000.0001)     ;
(PID.TID 0000.0001) momTidalForcing = /* Momentum Tidal forcing on/off flag */
(PID.TID 0000.0001)                   T
(PID.TID 0000.0001)     ;
(PID.TID 0000.0001) momPressureForcing =  /* Momentum pressure term on/off flag */
(PID.TID 0000.0001)                   T
(PID.TID 0000.0001)     ;
(PID.TID 0000.0001) implicitIntGravWave= /* Implicit Internal Gravity Wave flag */
(PID.TID 0000.0001)                   F
(PID.TID 0000.0001)     ;
(PID.TID 0000.0001) staggerTimeStep =    /* Stagger time stepping on/off flag */
(PID.TID 0000.0001)                   F
(PID.TID 0000.0001)     ;
(PID.TID 0000.0001) doResetHFactors = /* reset thickness factors @ each time-step */
(PID.TID 0000.0001)                   F
(PID.TID 0000.0001)     ;
(PID.TID 0000.0001) multiDimAdvection =  /* enable/disable Multi-Dim Advection */
(PID.TID 0000.0001)                   T
(PID.TID 0000.0001)     ;
(PID.TID 0000.0001) useMultiDimAdvec =   /* Multi-Dim Advection is/is-not used */
(PID.TID 0000.0001)                   F
(PID.TID 0000.0001)     ;
(PID.TID 0000.0001) implicitDiffusion = /* Implicit Diffusion on/off flag */
(PID.TID 0000.0001)                   T
(PID.TID 0000.0001)     ;
(PID.TID 0000.0001) tempStepping =  /* Temperature equation on/off flag */
(PID.TID 0000.0001)                   T
(PID.TID 0000.0001)     ;
(PID.TID 0000.0001) tempAdvection = /* Temperature advection on/off flag */
(PID.TID 0000.0001)                   T
(PID.TID 0000.0001)     ;
(PID.TID 0000.0001) tempImplVertAdv = /* Temp. implicit vert. advection on/off */
(PID.TID 0000.0001)                   F
(PID.TID 0000.0001)     ;
(PID.TID 0000.0001) tempForcing  =  /* Temperature forcing on/off flag */
(PID.TID 0000.0001)                   T
(PID.TID 0000.0001)     ;
(PID.TID 0000.0001) doThetaClimRelax = /* apply SST relaxation on/off flag */
(PID.TID 0000.0001)                   T
(PID.TID 0000.0001)     ;
(PID.TID 0000.0001) tempIsActiveTr = /* Temp. is a dynamically Active Tracer */
(PID.TID 0000.0001)                   T
(PID.TID 0000.0001)     ;
(PID.TID 0000.0001) saltStepping =  /* Salinity equation on/off flag */
(PID.TID 0000.0001)                   T
(PID.TID 0000.0001)     ;
(PID.TID 0000.0001) saltAdvection = /* Salinity advection on/off flag */
(PID.TID 0000.0001)                   T
(PID.TID 0000.0001)     ;
(PID.TID 0000.0001) saltImplVertAdv = /* Sali. implicit vert. advection on/off */
(PID.TID 0000.0001)                   F
(PID.TID 0000.0001)     ;
(PID.TID 0000.0001) saltForcing  =  /* Salinity forcing on/off flag */
(PID.TID 0000.0001)                   T
(PID.TID 0000.0001)     ;
(PID.TID 0000.0001) doSaltClimRelax = /* apply SSS relaxation on/off flag */
(PID.TID 0000.0001)                   T
(PID.TID 0000.0001)     ;
(PID.TID 0000.0001) saltIsActiveTr = /* Salt  is a dynamically Active Tracer */
(PID.TID 0000.0001)                   T
(PID.TID 0000.0001)     ;
(PID.TID 0000.0001)  readBinaryPrec = /* Precision used for reading binary files */
(PID.TID 0000.0001)                      32
(PID.TID 0000.0001)     ;
(PID.TID 0000.0001) writeBinaryPrec = /* Precision used for writing binary files */
(PID.TID 0000.0001)                      32
(PID.TID 0000.0001)     ;
(PID.TID 0000.0001)  rwSuffixType =   /* select format of mds file suffix */
(PID.TID 0000.0001)                       0
(PID.TID 0000.0001)    = 0 : myIter (I10.10) ;   = 1 : 100*myTime (100th sec) ;
(PID.TID 0000.0001)    = 2 : myTime (seconds);   = 3 : myTime/360 (10th of hr);
(PID.TID 0000.0001)    = 4 : myTime/3600 (hours)
(PID.TID 0000.0001)     ;
(PID.TID 0000.0001)  globalFiles = /* write "global" (=not per tile) files */
(PID.TID 0000.0001)                   F
(PID.TID 0000.0001)     ;
(PID.TID 0000.0001)  useSingleCpuIO = /* only master MPI process does I/O */
(PID.TID 0000.0001)                   T
(PID.TID 0000.0001)     ;
(PID.TID 0000.0001)  useSingleCpuInput = /* only master process reads input */
(PID.TID 0000.0001)                   T
(PID.TID 0000.0001)     ;
(PID.TID 0000.0001) /* debLev[*]  : level of debug & auxiliary message printing */
(PID.TID 0000.0001) debLevZero =  0 ; /* level of disabled aux. msg printing */
(PID.TID 0000.0001)    debLevA =  1 ; /* level of minimum  aux. msg printing */
(PID.TID 0000.0001)    debLevB =  2 ; /* level of low aux. print (report read-file opening)*/
(PID.TID 0000.0001)    debLevC =  3 ; /* level of moderate debug prt (most pkgs debug msg) */
(PID.TID 0000.0001)    debLevD =  4 ; /* level of enhanced debug prt (add DEBUG_STATS prt) */
(PID.TID 0000.0001)    debLevE =  5 ; /* level of extensive debug printing */
(PID.TID 0000.0001) debugLevel =  /* select debug printing level */
(PID.TID 0000.0001)                       2
(PID.TID 0000.0001)     ;
(PID.TID 0000.0001)  plotLevel =  /* select PLOT_FIELD printing level */
(PID.TID 0000.0001)                       2
(PID.TID 0000.0001)     ;
(PID.TID 0000.0001) //
(PID.TID 0000.0001) // Elliptic solver(s) paramters ( PARM02 in namelist )
(PID.TID 0000.0001) //
(PID.TID 0000.0001) cg2dMaxIters =   /* Upper limit on 2d con. grad iterations  */
(PID.TID 0000.0001)                     500
(PID.TID 0000.0001)     ;
(PID.TID 0000.0001) cg2dMinItersNSA =   /* Minimum number of iterations of 2d con. grad solver  */
(PID.TID 0000.0001)                       0
(PID.TID 0000.0001)     ;
(PID.TID 0000.0001) cg2dUseMinResSol= /* use cg2d last-iter(=0) / min-resid.(=1) solution */
(PID.TID 0000.0001)                       0
(PID.TID 0000.0001)     ;
(PID.TID 0000.0001) cg2dTargetResidual =   /* 2d con. grad target residual  */
(PID.TID 0000.0001)                 1.000000000000000E-13
(PID.TID 0000.0001)     ;
(PID.TID 0000.0001) cg2dTargetResWunit =   /* CG2d target residual [W units] */
(PID.TID 0000.0001)                -1.000000000000000E+00
(PID.TID 0000.0001)     ;
(PID.TID 0000.0001) cg2dPreCondFreq =   /* Freq. for updating cg2d preconditioner */
(PID.TID 0000.0001)                       1
(PID.TID 0000.0001)     ;
(PID.TID 0000.0001) useSRCGSolver =  /* use single reduction CG solver(s) */
(PID.TID 0000.0001)                   T
(PID.TID 0000.0001)     ;
(PID.TID 0000.0001) useNSACGSolver =  /* use not-self-adjoint CG solver */
(PID.TID 0000.0001)                   F
(PID.TID 0000.0001)     ;
(PID.TID 0000.0001) printResidualFreq = /* Freq. for printing CG residual */
(PID.TID 0000.0001)                       0
(PID.TID 0000.0001)     ;
(PID.TID 0000.0001) //
(PID.TID 0000.0001) // Time stepping paramters ( PARM03 in namelist )
(PID.TID 0000.0001) //
(PID.TID 0000.0001) deltaTMom =   /* Momentum equation timestep ( s ) */
(PID.TID 0000.0001)                 1.200000000000000E+03
(PID.TID 0000.0001)     ;
(PID.TID 0000.0001) deltaTFreeSurf = /* FreeSurface equation timestep ( s ) */
(PID.TID 0000.0001)                 1.200000000000000E+03
(PID.TID 0000.0001)     ;
(PID.TID 0000.0001) dTtracerLev =  /* Tracer equation timestep ( s ) */
(PID.TID 0000.0001)    15 @  4.320000000000000E+04              /* K =  1: 15 */
(PID.TID 0000.0001)     ;
(PID.TID 0000.0001) deltaTClock  =   /* Model clock timestep ( s ) */
(PID.TID 0000.0001)                 4.320000000000000E+04
(PID.TID 0000.0001)     ;
(PID.TID 0000.0001) cAdjFreq =   /* Convective adjustment interval ( s ) */
(PID.TID 0000.0001)                 0.000000000000000E+00
(PID.TID 0000.0001)     ;
(PID.TID 0000.0001) momForcingOutAB = /* =1: take Momentum Forcing out of Adams-Bash. stepping */
(PID.TID 0000.0001)                       0
(PID.TID 0000.0001)     ;
(PID.TID 0000.0001) tracForcingOutAB = /* =1: take T,S,pTr Forcing out of Adams-Bash. stepping */
(PID.TID 0000.0001)                       0
(PID.TID 0000.0001)     ;
(PID.TID 0000.0001) momDissip_In_AB = /* put Dissipation Tendency in Adams-Bash. stepping */
(PID.TID 0000.0001)                   T
(PID.TID 0000.0001)     ;
(PID.TID 0000.0001) doAB_onGtGs = /* apply AB on Tendencies (rather than on T,S)*/
(PID.TID 0000.0001)                   T
(PID.TID 0000.0001)     ;
(PID.TID 0000.0001) abEps =   /* Adams-Bashforth-2 stabilizing weight */
(PID.TID 0000.0001)                 1.000000000000000E-01
(PID.TID 0000.0001)     ;
(PID.TID 0000.0001) applyExchUV_early = /* Apply EXCH to U,V earlier in time-step */
(PID.TID 0000.0001)                   F
(PID.TID 0000.0001)     ;
(PID.TID 0000.0001) tauCD =   /* CD coupling time-scale ( s ) */
(PID.TID 0000.0001)                 3.214280000000000E+05
(PID.TID 0000.0001)     ;
(PID.TID 0000.0001) rCD =   /* Normalised CD coupling parameter */
(PID.TID 0000.0001)                 9.962666600296178E-01
(PID.TID 0000.0001)     ;
(PID.TID 0000.0001) epsAB_CD = /* AB-2 stabilizing weight for CD-scheme*/
(PID.TID 0000.0001)                 1.000000000000000E-01
(PID.TID 0000.0001)     ;
(PID.TID 0000.0001) pickupStrictlyMatch= /* stop if pickup do not strictly match */
(PID.TID 0000.0001)                   T
(PID.TID 0000.0001)     ;
(PID.TID 0000.0001) nIter0   =   /* Run starting timestep number */
(PID.TID 0000.0001)                       0
(PID.TID 0000.0001)     ;
(PID.TID 0000.0001) nTimeSteps = /* Number of timesteps */
(PID.TID 0000.0001)                      20
(PID.TID 0000.0001)     ;
(PID.TID 0000.0001) nEndIter =   /* Run ending timestep number */
(PID.TID 0000.0001)                      20
(PID.TID 0000.0001)     ;
(PID.TID 0000.0001) baseTime =   /* Model base time ( s ) */
(PID.TID 0000.0001)                 0.000000000000000E+00
(PID.TID 0000.0001)     ;
(PID.TID 0000.0001) startTime =  /* Run start time ( s ) */
(PID.TID 0000.0001)                 0.000000000000000E+00
(PID.TID 0000.0001)     ;
(PID.TID 0000.0001) endTime  =   /* Integration ending time ( s ) */
(PID.TID 0000.0001)                 8.640000000000000E+05
(PID.TID 0000.0001)     ;
(PID.TID 0000.0001) pChkPtFreq = /* Permanent restart/pickup file interval ( s ) */
(PID.TID 0000.0001)                 3.110400000000000E+08
(PID.TID 0000.0001)     ;
(PID.TID 0000.0001) chkPtFreq  = /* Rolling restart/pickup file interval ( s ) */
(PID.TID 0000.0001)                 0.000000000000000E+00
(PID.TID 0000.0001)     ;
(PID.TID 0000.0001) pickup_write_mdsio =   /* Model IO flag. */
(PID.TID 0000.0001)                   T
(PID.TID 0000.0001)     ;
(PID.TID 0000.0001) pickup_read_mdsio =   /* Model IO flag. */
(PID.TID 0000.0001)                   T
(PID.TID 0000.0001)     ;
(PID.TID 0000.0001) writePickupAtEnd =   /* Model IO flag. */
(PID.TID 0000.0001)                   T
(PID.TID 0000.0001)     ;
(PID.TID 0000.0001) dumpFreq =   /* Model state write out interval ( s ). */
(PID.TID 0000.0001)                 8.640000000000000E+05
(PID.TID 0000.0001)     ;
(PID.TID 0000.0001) dumpInitAndLast= /* write out Initial & Last iter. model state */
(PID.TID 0000.0001)                   T
(PID.TID 0000.0001)     ;
(PID.TID 0000.0001) snapshot_mdsio =   /* Model IO flag. */
(PID.TID 0000.0001)                   T
(PID.TID 0000.0001)     ;
(PID.TID 0000.0001) monitorFreq =   /* Monitor output interval ( s ). */
(PID.TID 0000.0001)                 1.000000000000000E+00
(PID.TID 0000.0001)     ;
(PID.TID 0000.0001) monitorSelect = /* select group of variables to monitor */
(PID.TID 0000.0001)                       3
(PID.TID 0000.0001)     ;
(PID.TID 0000.0001) monitor_stdio =   /* Model IO flag. */
(PID.TID 0000.0001)                   T
(PID.TID 0000.0001)     ;
(PID.TID 0000.0001) externForcingPeriod =   /* forcing period (s) */
(PID.TID 0000.0001)                 0.000000000000000E+00
(PID.TID 0000.0001)     ;
(PID.TID 0000.0001) externForcingCycle =   /* period of the cyle (s). */
(PID.TID 0000.0001)                 0.000000000000000E+00
(PID.TID 0000.0001)     ;
(PID.TID 0000.0001) tauThetaClimRelax =   /* relaxation time scale (s) */
(PID.TID 0000.0001)                 5.184000000000000E+06
(PID.TID 0000.0001)     ;
(PID.TID 0000.0001) tauSaltClimRelax =   /* relaxation time scale (s) */
(PID.TID 0000.0001)                 1.555200000000000E+07
(PID.TID 0000.0001)     ;
(PID.TID 0000.0001) latBandClimRelax =   /* max. Lat. where relaxation */
(PID.TID 0000.0001)                 1.800000000000000E+02
(PID.TID 0000.0001)     ;
(PID.TID 0000.0001) //
(PID.TID 0000.0001) // Gridding paramters ( PARM04 in namelist )
(PID.TID 0000.0001) //
(PID.TID 0000.0001) usingCartesianGrid = /* Cartesian coordinates flag ( True/False ) */
(PID.TID 0000.0001)                   F
(PID.TID 0000.0001)     ;
(PID.TID 0000.0001) usingCylindricalGrid = /* Cylindrical coordinates flag ( True/False ) */
(PID.TID 0000.0001)                   F
(PID.TID 0000.0001)     ;
(PID.TID 0000.0001) usingSphericalPolarGrid = /* Spherical coordinates flag ( True/False ) */
(PID.TID 0000.0001)                   T
(PID.TID 0000.0001)     ;
(PID.TID 0000.0001) usingCurvilinearGrid = /* Curvilinear coordinates flag ( True/False ) */
(PID.TID 0000.0001)                   F
(PID.TID 0000.0001)     ;
(PID.TID 0000.0001) useMin4hFacEdges = /* set hFacW,S as minimum of adjacent hFacC factor */
(PID.TID 0000.0001)                   F
(PID.TID 0000.0001)     ;
(PID.TID 0000.0001) interViscAr_pCell = /* account for partial-cell in interior vert. viscosity */
(PID.TID 0000.0001)                   F
(PID.TID 0000.0001)     ;
(PID.TID 0000.0001) interDiffKr_pCell = /* account for partial-cell in interior vert. diffusion */
(PID.TID 0000.0001)                   F
(PID.TID 0000.0001)     ;
(PID.TID 0000.0001) pCellMix_select = /* option to enhance mixing near surface & bottom */
(PID.TID 0000.0001)                       0
(PID.TID 0000.0001)     ;
(PID.TID 0000.0001) selectSigmaCoord = /* Hybrid-Sigma Vert. Coordinate option */
(PID.TID 0000.0001)                       0
(PID.TID 0000.0001)     ;
(PID.TID 0000.0001) rSigmaBnd = /* r/sigma transition ( units of r ==  m ) */
(PID.TID 0000.0001)                 1.234567000000000E+05
(PID.TID 0000.0001)     ;
(PID.TID 0000.0001) rkSign =   /* index orientation relative to vertical coordinate */
(PID.TID 0000.0001)                -1.000000000000000E+00
(PID.TID 0000.0001)     ;
(PID.TID 0000.0001) gravitySign = /* gravity orientation relative to vertical coordinate */
(PID.TID 0000.0001)                -1.000000000000000E+00
(PID.TID 0000.0001)     ;
(PID.TID 0000.0001) seaLev_Z =  /* reference height of sea-level [m] */
(PID.TID 0000.0001)                 0.000000000000000E+00
(PID.TID 0000.0001)     ;
(PID.TID 0000.0001) top_Pres =  /* reference pressure at the top [Pa] */
(PID.TID 0000.0001)                 0.000000000000000E+00
(PID.TID 0000.0001)     ;
(PID.TID 0000.0001) mass2rUnit = /* convert mass per unit area [kg/m2] to r-units [m] */
(PID.TID 0000.0001)                 9.661835748792270E-04
(PID.TID 0000.0001)     ;
(PID.TID 0000.0001) rUnit2mass = /* convert r-units [m] to mass per unit area [kg/m2] */
(PID.TID 0000.0001)                 1.035000000000000E+03
(PID.TID 0000.0001)     ;
(PID.TID 0000.0001) drC =   /* C spacing ( units of r ) */
(PID.TID 0000.0001)                 2.500000000000000E+01,      /* K =  1 */
(PID.TID 0000.0001)                 6.000000000000000E+01,      /* K =  2 */
(PID.TID 0000.0001)                 8.500000000000000E+01,      /* K =  3 */
(PID.TID 0000.0001)                 1.200000000000000E+02,      /* K =  4 */
(PID.TID 0000.0001)                 1.650000000000000E+02,      /* K =  5 */
(PID.TID 0000.0001)                 2.150000000000000E+02,      /* K =  6 */
(PID.TID 0000.0001)                 2.650000000000000E+02,      /* K =  7 */
(PID.TID 0000.0001)                 3.150000000000000E+02,      /* K =  8 */
(PID.TID 0000.0001)                 3.650000000000000E+02,      /* K =  9 */
(PID.TID 0000.0001)                 4.150000000000000E+02,      /* K = 10 */
(PID.TID 0000.0001)                 4.650000000000000E+02,      /* K = 11 */
(PID.TID 0000.0001)                 5.150000000000000E+02,      /* K = 12 */
(PID.TID 0000.0001)                 5.650000000000000E+02,      /* K = 13 */
(PID.TID 0000.0001)                 6.150000000000000E+02,      /* K = 14 */
(PID.TID 0000.0001)                 6.650000000000000E+02,      /* K = 15 */
(PID.TID 0000.0001)                 3.450000000000000E+02       /* K = 16 */
(PID.TID 0000.0001)     ;
(PID.TID 0000.0001) drF =   /* W spacing ( units of r ) */
(PID.TID 0000.0001)                 5.000000000000000E+01,      /* K =  1 */
(PID.TID 0000.0001)                 7.000000000000000E+01,      /* K =  2 */
(PID.TID 0000.0001)                 1.000000000000000E+02,      /* K =  3 */
(PID.TID 0000.0001)                 1.400000000000000E+02,      /* K =  4 */
(PID.TID 0000.0001)                 1.900000000000000E+02,      /* K =  5 */
(PID.TID 0000.0001)                 2.400000000000000E+02,      /* K =  6 */
(PID.TID 0000.0001)                 2.900000000000000E+02,      /* K =  7 */
(PID.TID 0000.0001)                 3.400000000000000E+02,      /* K =  8 */
(PID.TID 0000.0001)                 3.900000000000000E+02,      /* K =  9 */
(PID.TID 0000.0001)                 4.400000000000000E+02,      /* K = 10 */
(PID.TID 0000.0001)                 4.900000000000000E+02,      /* K = 11 */
(PID.TID 0000.0001)                 5.400000000000000E+02,      /* K = 12 */
(PID.TID 0000.0001)                 5.900000000000000E+02,      /* K = 13 */
(PID.TID 0000.0001)                 6.400000000000000E+02,      /* K = 14 */
(PID.TID 0000.0001)                 6.900000000000000E+02       /* K = 15 */
(PID.TID 0000.0001)     ;
(PID.TID 0000.0001) delX = /* U spacing ( m - cartesian, degrees - spherical ) */
(PID.TID 0000.0001)    90 @  4.000000000000000E+00              /* I =  1: 90 */
(PID.TID 0000.0001)     ;
(PID.TID 0000.0001) delY = /* V spacing ( m - cartesian, degrees - spherical ) */
(PID.TID 0000.0001)    40 @  4.000000000000000E+00              /* J =  1: 40 */
(PID.TID 0000.0001)     ;
(PID.TID 0000.0001) xgOrigin = /* X-axis origin of West  edge (cartesian: m, lat-lon: deg) */
(PID.TID 0000.0001)                 0.000000000000000E+00
(PID.TID 0000.0001)     ;
(PID.TID 0000.0001) ygOrigin = /* Y-axis origin of South edge (cartesian: m, lat-lon: deg) */
(PID.TID 0000.0001)                -8.000000000000000E+01
(PID.TID 0000.0001)     ;
(PID.TID 0000.0001) rSphere =  /* Radius ( ignored - cartesian, m - spherical ) */
(PID.TID 0000.0001)                 6.370000000000000E+06
(PID.TID 0000.0001)     ;
(PID.TID 0000.0001) deepAtmosphere = /* Deep/Shallow Atmosphere flag (True/False) */
(PID.TID 0000.0001)                   F
(PID.TID 0000.0001)     ;
(PID.TID 0000.0001) xC =  /* xC(:,1,:,1) : P-point X coord ( deg. or m if cartesian) */
(PID.TID 0000.0001)                 2.000000000000000E+00,      /* I =  1 */
(PID.TID 0000.0001)                 6.000000000000000E+00,      /* I =  2 */
(PID.TID 0000.0001)                 1.000000000000000E+01,      /* I =  3 */
(PID.TID 0000.0001)      . . .
(PID.TID 0000.0001)                 8.200000000000000E+01,      /* I = 21 */
(PID.TID 0000.0001)                 8.600000000000000E+01,      /* I = 22 */
(PID.TID 0000.0001)                 9.000000000000000E+01,      /* I = 23 */
(PID.TID 0000.0001)                 9.400000000000000E+01,      /* I = 24 */
(PID.TID 0000.0001)                 9.800000000000000E+01,      /* I = 25 */
(PID.TID 0000.0001)                 1.020000000000000E+02,      /* I = 26 */
(PID.TID 0000.0001)      . . .
(PID.TID 0000.0001)                 1.700000000000000E+02,      /* I = 43 */
(PID.TID 0000.0001)                 1.740000000000000E+02,      /* I = 44 */
(PID.TID 0000.0001)                 1.780000000000000E+02,      /* I = 45 */
(PID.TID 0000.0001)                 1.820000000000000E+02,      /* I = 46 */
(PID.TID 0000.0001)                 1.860000000000000E+02,      /* I = 47 */
(PID.TID 0000.0001)                 1.900000000000000E+02,      /* I = 48 */
(PID.TID 0000.0001)      . . .
(PID.TID 0000.0001)                 2.580000000000000E+02,      /* I = 65 */
(PID.TID 0000.0001)                 2.620000000000000E+02,      /* I = 66 */
(PID.TID 0000.0001)                 2.660000000000000E+02,      /* I = 67 */
(PID.TID 0000.0001)                 2.700000000000000E+02,      /* I = 68 */
(PID.TID 0000.0001)                 2.740000000000000E+02,      /* I = 69 */
(PID.TID 0000.0001)                 2.780000000000000E+02,      /* I = 70 */
(PID.TID 0000.0001)      . . .
(PID.TID 0000.0001)                 3.500000000000000E+02,      /* I = 88 */
(PID.TID 0000.0001)                 3.540000000000000E+02,      /* I = 89 */
(PID.TID 0000.0001)                 3.580000000000000E+02       /* I = 90 */
(PID.TID 0000.0001)     ;
(PID.TID 0000.0001) yC =  /* yC(1,:,1,:) : P-point Y coord ( deg. or m if cartesian) */
(PID.TID 0000.0001)                -7.800000000000000E+01,      /* J =  1 */
(PID.TID 0000.0001)                -7.400000000000000E+01,      /* J =  2 */
(PID.TID 0000.0001)                -7.000000000000000E+01,      /* J =  3 */
(PID.TID 0000.0001)                -6.600000000000000E+01,      /* J =  4 */
(PID.TID 0000.0001)                -6.200000000000000E+01,      /* J =  5 */
(PID.TID 0000.0001)                -5.800000000000000E+01,      /* J =  6 */
(PID.TID 0000.0001)                -5.400000000000000E+01,      /* J =  7 */
(PID.TID 0000.0001)                -5.000000000000000E+01,      /* J =  8 */
(PID.TID 0000.0001)                -4.600000000000000E+01,      /* J =  9 */
(PID.TID 0000.0001)                -4.200000000000000E+01,      /* J = 10 */
(PID.TID 0000.0001)                -3.800000000000000E+01,      /* J = 11 */
(PID.TID 0000.0001)                -3.400000000000000E+01,      /* J = 12 */
(PID.TID 0000.0001)                -3.000000000000000E+01,      /* J = 13 */
(PID.TID 0000.0001)                -2.600000000000000E+01,      /* J = 14 */
(PID.TID 0000.0001)                -2.200000000000000E+01,      /* J = 15 */
(PID.TID 0000.0001)                -1.800000000000000E+01,      /* J = 16 */
(PID.TID 0000.0001)                -1.400000000000000E+01,      /* J = 17 */
(PID.TID 0000.0001)                -1.000000000000000E+01,      /* J = 18 */
(PID.TID 0000.0001)                -6.000000000000000E+00,      /* J = 19 */
(PID.TID 0000.0001)                -2.000000000000000E+00,      /* J = 20 */
(PID.TID 0000.0001)                 2.000000000000000E+00,      /* J = 21 */
(PID.TID 0000.0001)                 6.000000000000000E+00,      /* J = 22 */
(PID.TID 0000.0001)                 1.000000000000000E+01,      /* J = 23 */
(PID.TID 0000.0001)                 1.400000000000000E+01,      /* J = 24 */
(PID.TID 0000.0001)                 1.800000000000000E+01,      /* J = 25 */
(PID.TID 0000.0001)                 2.200000000000000E+01,      /* J = 26 */
(PID.TID 0000.0001)                 2.600000000000000E+01,      /* J = 27 */
(PID.TID 0000.0001)                 3.000000000000000E+01,      /* J = 28 */
(PID.TID 0000.0001)                 3.400000000000000E+01,      /* J = 29 */
(PID.TID 0000.0001)                 3.800000000000000E+01,      /* J = 30 */
(PID.TID 0000.0001)                 4.200000000000000E+01,      /* J = 31 */
(PID.TID 0000.0001)                 4.600000000000000E+01,      /* J = 32 */
(PID.TID 0000.0001)                 5.000000000000000E+01,      /* J = 33 */
(PID.TID 0000.0001)                 5.400000000000000E+01,      /* J = 34 */
(PID.TID 0000.0001)                 5.800000000000000E+01,      /* J = 35 */
(PID.TID 0000.0001)                 6.200000000000000E+01,      /* J = 36 */
(PID.TID 0000.0001)                 6.600000000000000E+01,      /* J = 37 */
(PID.TID 0000.0001)                 7.000000000000000E+01,      /* J = 38 */
(PID.TID 0000.0001)                 7.400000000000000E+01,      /* J = 39 */
(PID.TID 0000.0001)                 7.800000000000000E+01       /* J = 40 */
(PID.TID 0000.0001)     ;
(PID.TID 0000.0001) rcoord = /* P-point R coordinate (  units of r ) */
(PID.TID 0000.0001)                -2.500000000000000E+01,      /* K =  1 */
(PID.TID 0000.0001)                -8.500000000000000E+01,      /* K =  2 */
(PID.TID 0000.0001)                -1.700000000000000E+02,      /* K =  3 */
(PID.TID 0000.0001)                -2.900000000000000E+02,      /* K =  4 */
(PID.TID 0000.0001)                -4.550000000000000E+02,      /* K =  5 */
(PID.TID 0000.0001)                -6.700000000000000E+02,      /* K =  6 */
(PID.TID 0000.0001)                -9.350000000000000E+02,      /* K =  7 */
(PID.TID 0000.0001)                -1.250000000000000E+03,      /* K =  8 */
(PID.TID 0000.0001)                -1.615000000000000E+03,      /* K =  9 */
(PID.TID 0000.0001)                -2.030000000000000E+03,      /* K = 10 */
(PID.TID 0000.0001)                -2.495000000000000E+03,      /* K = 11 */
(PID.TID 0000.0001)                -3.010000000000000E+03,      /* K = 12 */
(PID.TID 0000.0001)                -3.575000000000000E+03,      /* K = 13 */
(PID.TID 0000.0001)                -4.190000000000000E+03,      /* K = 14 */
(PID.TID 0000.0001)                -4.855000000000000E+03       /* K = 15 */
(PID.TID 0000.0001)     ;
(PID.TID 0000.0001) rF =   /* W-Interf. R coordinate (  units of r ) */
(PID.TID 0000.0001)                 0.000000000000000E+00,      /* K =  1 */
(PID.TID 0000.0001)                -5.000000000000000E+01,      /* K =  2 */
(PID.TID 0000.0001)                -1.200000000000000E+02,      /* K =  3 */
(PID.TID 0000.0001)                -2.200000000000000E+02,      /* K =  4 */
(PID.TID 0000.0001)                -3.600000000000000E+02,      /* K =  5 */
(PID.TID 0000.0001)                -5.500000000000000E+02,      /* K =  6 */
(PID.TID 0000.0001)                -7.900000000000000E+02,      /* K =  7 */
(PID.TID 0000.0001)                -1.080000000000000E+03,      /* K =  8 */
(PID.TID 0000.0001)                -1.420000000000000E+03,      /* K =  9 */
(PID.TID 0000.0001)                -1.810000000000000E+03,      /* K = 10 */
(PID.TID 0000.0001)                -2.250000000000000E+03,      /* K = 11 */
(PID.TID 0000.0001)                -2.740000000000000E+03,      /* K = 12 */
(PID.TID 0000.0001)                -3.280000000000000E+03,      /* K = 13 */
(PID.TID 0000.0001)                -3.870000000000000E+03,      /* K = 14 */
(PID.TID 0000.0001)                -4.510000000000000E+03,      /* K = 15 */
(PID.TID 0000.0001)                -5.200000000000000E+03       /* K = 16 */
(PID.TID 0000.0001)     ;
(PID.TID 0000.0001) deepFacC = /* deep-model grid factor @ cell-Center (-) */
(PID.TID 0000.0001)    15 @  1.000000000000000E+00              /* K =  1: 15 */
(PID.TID 0000.0001)     ;
(PID.TID 0000.0001) deepFacF = /* deep-model grid factor @ W-Interface (-) */
(PID.TID 0000.0001)    16 @  1.000000000000000E+00              /* K =  1: 16 */
(PID.TID 0000.0001)     ;
(PID.TID 0000.0001) rotateGrid = /* use rotated grid ( True/False ) */
(PID.TID 0000.0001)                   F
(PID.TID 0000.0001)     ;
(PID.TID 0000.0001) phiEuler = /* Euler angle, rotation about original z-coordinate [rad] */
(PID.TID 0000.0001)                 0.000000000000000E+00
(PID.TID 0000.0001)     ;
(PID.TID 0000.0001) thetaEuler = /* Euler angle, rotation about new x-coordinate [rad] */
(PID.TID 0000.0001)                 0.000000000000000E+00
(PID.TID 0000.0001)     ;
(PID.TID 0000.0001) psiEuler = /* Euler angle, rotation about new z-coordinate [rad] */
(PID.TID 0000.0001)                 0.000000000000000E+00
(PID.TID 0000.0001)     ;
(PID.TID 0000.0001) dxF =  /* dxF(:,1,:,1) ( units: m ) */
(PID.TID 0000.0001)    90 @  9.246038586187513E+04              /* I =  1: 90 */
(PID.TID 0000.0001)     ;
(PID.TID 0000.0001) dxF =  /* dxF(1,:,1,:) ( units: m ) */
(PID.TID 0000.0001)                 9.246038586187513E+04,      /* J =  1 */
(PID.TID 0000.0001)                 1.225786591246834E+05,      /* J =  2 */
(PID.TID 0000.0001)                 1.520997414818001E+05,      /* J =  3 */
(PID.TID 0000.0001)                 1.808798091874300E+05,      /* J =  4 */
(PID.TID 0000.0001)                 2.087786486446736E+05,      /* J =  5 */
(PID.TID 0000.0001)                 2.356603395120765E+05,      /* J =  6 */
(PID.TID 0000.0001)                 2.613939168938713E+05,      /* J =  7 */
(PID.TID 0000.0001)                 2.858540093877838E+05,      /* J =  8 */
(PID.TID 0000.0001)                 3.089214498819034E+05,      /* J =  9 */
(PID.TID 0000.0001)                 3.304838561248741E+05,      /* J = 10 */
(PID.TID 0000.0001)                 3.504361782409254E+05,      /* J = 11 */
(PID.TID 0000.0001)                 3.686812105223082E+05,      /* J = 12 */
(PID.TID 0000.0001)                 3.851300650057323E+05,      /* J = 13 */
(PID.TID 0000.0001)                 3.997026045255871E+05,      /* J = 14 */
(PID.TID 0000.0001)                 4.123278331341585E+05,      /* J = 15 */
(PID.TID 0000.0001)                 4.229442419867491E+05,      /* J = 16 */
(PID.TID 0000.0001)                 4.315001090065870E+05,      /* J = 17 */
(PID.TID 0000.0001)                 4.379537508695838E+05,      /* J = 18 */
(PID.TID 0000.0001)                 4.422737260813012E+05,      /* J = 19 */
(PID.TID 0000.0001)     2 @  4.444389881567502E+05,             /* J = 20: 21 */
(PID.TID 0000.0001)                 4.422737260813012E+05,      /* J = 22 */
(PID.TID 0000.0001)                 4.379537508695838E+05,      /* J = 23 */
(PID.TID 0000.0001)                 4.315001090065870E+05,      /* J = 24 */
(PID.TID 0000.0001)                 4.229442419867491E+05,      /* J = 25 */
(PID.TID 0000.0001)                 4.123278331341585E+05,      /* J = 26 */
(PID.TID 0000.0001)                 3.997026045255871E+05,      /* J = 27 */
(PID.TID 0000.0001)                 3.851300650057323E+05,      /* J = 28 */
(PID.TID 0000.0001)                 3.686812105223082E+05,      /* J = 29 */
(PID.TID 0000.0001)                 3.504361782409254E+05,      /* J = 30 */
(PID.TID 0000.0001)                 3.304838561248741E+05,      /* J = 31 */
(PID.TID 0000.0001)                 3.089214498819034E+05,      /* J = 32 */
(PID.TID 0000.0001)                 2.858540093877838E+05,      /* J = 33 */
(PID.TID 0000.0001)                 2.613939168938713E+05,      /* J = 34 */
(PID.TID 0000.0001)                 2.356603395120765E+05,      /* J = 35 */
(PID.TID 0000.0001)                 2.087786486446736E+05,      /* J = 36 */
(PID.TID 0000.0001)                 1.808798091874300E+05,      /* J = 37 */
(PID.TID 0000.0001)                 1.520997414818001E+05,      /* J = 38 */
(PID.TID 0000.0001)                 1.225786591246834E+05,      /* J = 39 */
(PID.TID 0000.0001)                 9.246038586187513E+04       /* J = 40 */
(PID.TID 0000.0001)     ;
(PID.TID 0000.0001) dyF =  /* dyF(:,1,:,1) ( units: m ) */
(PID.TID 0000.0001)    90 @  4.447098934081552E+05              /* I =  1: 90 */
(PID.TID 0000.0001)     ;
(PID.TID 0000.0001) dyF =  /* dyF(1,:,1,:) ( units: m ) */
(PID.TID 0000.0001)    40 @  4.447098934081552E+05              /* J =  1: 40 */
(PID.TID 0000.0001)     ;
(PID.TID 0000.0001) dxG =  /* dxG(:,1,:,1) ( units: m ) */
(PID.TID 0000.0001)    90 @  7.722306258078101E+04              /* I =  1: 90 */
(PID.TID 0000.0001)     ;
(PID.TID 0000.0001) dxG =  /* dxG(1,:,1,:) ( units: m ) */
(PID.TID 0000.0001)                 7.722306258078101E+04,      /* J =  1 */
(PID.TID 0000.0001)                 1.075850604052271E+05,      /* J =  2 */
(PID.TID 0000.0001)                 1.374229146297914E+05,      /* J =  3 */
(PID.TID 0000.0001)                 1.665912582279823E+05,      /* J =  4 */
(PID.TID 0000.0001)                 1.949479859617814E+05,      /* J =  5 */
(PID.TID 0000.0001)                 2.223549467040777E+05,      /* J =  6 */
(PID.TID 0000.0001)                 2.486786164970726E+05,      /* J =  7 */
(PID.TID 0000.0001)                 2.737907490675810E+05,      /* J =  8 */
(PID.TID 0000.0001)                 2.975690006299821E+05,      /* J =  9 */
(PID.TID 0000.0001)                 3.198975259328452E+05,      /* J = 10 */
(PID.TID 0000.0001)                 3.406675426453503E+05,      /* J = 11 */
(PID.TID 0000.0001)                 3.597778613338690E+05,      /* J = 12 */
(PID.TID 0000.0001)                 3.771353784467131E+05,      /* J = 13 */
(PID.TID 0000.0001)                 3.926555299052806E+05,      /* J = 14 */
(PID.TID 0000.0001)                 4.062627030917454E+05,      /* J = 15 */
(PID.TID 0000.0001)                 4.178906052261313E+05,      /* J = 16 */
(PID.TID 0000.0001)                 4.274825863380723E+05,      /* J = 17 */
(PID.TID 0000.0001)                 4.349919152597734E+05,      /* J = 18 */
(PID.TID 0000.0001)                 4.403820072955634E+05,      /* J = 19 */
(PID.TID 0000.0001)                 4.436266024588540E+05,      /* J = 20 */
(PID.TID 0000.0001)                 4.447098934081552E+05,      /* J = 21 */
(PID.TID 0000.0001)                 4.436266024588540E+05,      /* J = 22 */
(PID.TID 0000.0001)                 4.403820072955634E+05,      /* J = 23 */
(PID.TID 0000.0001)                 4.349919152597734E+05,      /* J = 24 */
(PID.TID 0000.0001)                 4.274825863380723E+05,      /* J = 25 */
(PID.TID 0000.0001)                 4.178906052261313E+05,      /* J = 26 */
(PID.TID 0000.0001)                 4.062627030917454E+05,      /* J = 27 */
(PID.TID 0000.0001)                 3.926555299052806E+05,      /* J = 28 */
(PID.TID 0000.0001)                 3.771353784467131E+05,      /* J = 29 */
(PID.TID 0000.0001)                 3.597778613338690E+05,      /* J = 30 */
(PID.TID 0000.0001)                 3.406675426453503E+05,      /* J = 31 */
(PID.TID 0000.0001)                 3.198975259328452E+05,      /* J = 32 */
(PID.TID 0000.0001)                 2.975690006299821E+05,      /* J = 33 */
(PID.TID 0000.0001)                 2.737907490675810E+05,      /* J = 34 */
(PID.TID 0000.0001)                 2.486786164970726E+05,      /* J = 35 */
(PID.TID 0000.0001)                 2.223549467040777E+05,      /* J = 36 */
(PID.TID 0000.0001)                 1.949479859617814E+05,      /* J = 37 */
(PID.TID 0000.0001)                 1.665912582279823E+05,      /* J = 38 */
(PID.TID 0000.0001)                 1.374229146297914E+05,      /* J = 39 */
(PID.TID 0000.0001)                 1.075850604052271E+05       /* J = 40 */
(PID.TID 0000.0001)     ;
(PID.TID 0000.0001) dyG =  /* dyG(:,1,:,1) ( units: m ) */
(PID.TID 0000.0001)    90 @  4.447098934081552E+05              /* I =  1: 90 */
(PID.TID 0000.0001)     ;
(PID.TID 0000.0001) dyG =  /* dyG(1,:,1,:) ( units: m ) */
(PID.TID 0000.0001)    40 @  4.447098934081552E+05              /* J =  1: 40 */
(PID.TID 0000.0001)     ;
(PID.TID 0000.0001) dxC =  /* dxC(:,1,:,1) ( units: m ) */
(PID.TID 0000.0001)    90 @  9.246038586187513E+04              /* I =  1: 90 */
(PID.TID 0000.0001)     ;
(PID.TID 0000.0001) dxC =  /* dxC(1,:,1,:) ( units: m ) */
(PID.TID 0000.0001)                 9.246038586187513E+04,      /* J =  1 */
(PID.TID 0000.0001)                 1.225786591246834E+05,      /* J =  2 */
(PID.TID 0000.0001)                 1.520997414818001E+05,      /* J =  3 */
(PID.TID 0000.0001)                 1.808798091874300E+05,      /* J =  4 */
(PID.TID 0000.0001)                 2.087786486446736E+05,      /* J =  5 */
(PID.TID 0000.0001)                 2.356603395120765E+05,      /* J =  6 */
(PID.TID 0000.0001)                 2.613939168938713E+05,      /* J =  7 */
(PID.TID 0000.0001)                 2.858540093877838E+05,      /* J =  8 */
(PID.TID 0000.0001)                 3.089214498819034E+05,      /* J =  9 */
(PID.TID 0000.0001)                 3.304838561248741E+05,      /* J = 10 */
(PID.TID 0000.0001)                 3.504361782409254E+05,      /* J = 11 */
(PID.TID 0000.0001)                 3.686812105223082E+05,      /* J = 12 */
(PID.TID 0000.0001)                 3.851300650057323E+05,      /* J = 13 */
(PID.TID 0000.0001)                 3.997026045255871E+05,      /* J = 14 */
(PID.TID 0000.0001)                 4.123278331341585E+05,      /* J = 15 */
(PID.TID 0000.0001)                 4.229442419867491E+05,      /* J = 16 */
(PID.TID 0000.0001)                 4.315001090065870E+05,      /* J = 17 */
(PID.TID 0000.0001)                 4.379537508695838E+05,      /* J = 18 */
(PID.TID 0000.0001)                 4.422737260813012E+05,      /* J = 19 */
(PID.TID 0000.0001)     2 @  4.444389881567502E+05,             /* J = 20: 21 */
(PID.TID 0000.0001)                 4.422737260813012E+05,      /* J = 22 */
(PID.TID 0000.0001)                 4.379537508695838E+05,      /* J = 23 */
(PID.TID 0000.0001)                 4.315001090065870E+05,      /* J = 24 */
(PID.TID 0000.0001)                 4.229442419867491E+05,      /* J = 25 */
(PID.TID 0000.0001)                 4.123278331341585E+05,      /* J = 26 */
(PID.TID 0000.0001)                 3.997026045255871E+05,      /* J = 27 */
(PID.TID 0000.0001)                 3.851300650057323E+05,      /* J = 28 */
(PID.TID 0000.0001)                 3.686812105223082E+05,      /* J = 29 */
(PID.TID 0000.0001)                 3.504361782409254E+05,      /* J = 30 */
(PID.TID 0000.0001)                 3.304838561248741E+05,      /* J = 31 */
(PID.TID 0000.0001)                 3.089214498819034E+05,      /* J = 32 */
(PID.TID 0000.0001)                 2.858540093877838E+05,      /* J = 33 */
(PID.TID 0000.0001)                 2.613939168938713E+05,      /* J = 34 */
(PID.TID 0000.0001)                 2.356603395120765E+05,      /* J = 35 */
(PID.TID 0000.0001)                 2.087786486446736E+05,      /* J = 36 */
(PID.TID 0000.0001)                 1.808798091874300E+05,      /* J = 37 */
(PID.TID 0000.0001)                 1.520997414818001E+05,      /* J = 38 */
(PID.TID 0000.0001)                 1.225786591246834E+05,      /* J = 39 */
(PID.TID 0000.0001)                 9.246038586187513E+04       /* J = 40 */
(PID.TID 0000.0001)     ;
(PID.TID 0000.0001) dyC =  /* dyC(:,1,:,1) ( units: m ) */
(PID.TID 0000.0001)    90 @  4.447098934081552E+05              /* I =  1: 90 */
(PID.TID 0000.0001)     ;
(PID.TID 0000.0001) dyC =  /* dyC(1,:,1,:) ( units: m ) */
(PID.TID 0000.0001)    40 @  4.447098934081552E+05              /* J =  1: 40 */
(PID.TID 0000.0001)     ;
(PID.TID 0000.0001) dxV =  /* dxV(:,1,:,1) ( units: m ) */
(PID.TID 0000.0001)    90 @  7.722306258078101E+04              /* I =  1: 90 */
(PID.TID 0000.0001)     ;
(PID.TID 0000.0001) dxV =  /* dxV(1,:,1,:) ( units: m ) */
(PID.TID 0000.0001)                 7.722306258078101E+04,      /* J =  1 */
(PID.TID 0000.0001)                 1.075850604052271E+05,      /* J =  2 */
(PID.TID 0000.0001)                 1.374229146297914E+05,      /* J =  3 */
(PID.TID 0000.0001)                 1.665912582279823E+05,      /* J =  4 */
(PID.TID 0000.0001)                 1.949479859617814E+05,      /* J =  5 */
(PID.TID 0000.0001)                 2.223549467040777E+05,      /* J =  6 */
(PID.TID 0000.0001)                 2.486786164970726E+05,      /* J =  7 */
(PID.TID 0000.0001)                 2.737907490675810E+05,      /* J =  8 */
(PID.TID 0000.0001)                 2.975690006299821E+05,      /* J =  9 */
(PID.TID 0000.0001)                 3.198975259328452E+05,      /* J = 10 */
(PID.TID 0000.0001)                 3.406675426453503E+05,      /* J = 11 */
(PID.TID 0000.0001)                 3.597778613338690E+05,      /* J = 12 */
(PID.TID 0000.0001)                 3.771353784467131E+05,      /* J = 13 */
(PID.TID 0000.0001)                 3.926555299052806E+05,      /* J = 14 */
(PID.TID 0000.0001)                 4.062627030917454E+05,      /* J = 15 */
(PID.TID 0000.0001)                 4.178906052261313E+05,      /* J = 16 */
(PID.TID 0000.0001)                 4.274825863380723E+05,      /* J = 17 */
(PID.TID 0000.0001)                 4.349919152597734E+05,      /* J = 18 */
(PID.TID 0000.0001)                 4.403820072955634E+05,      /* J = 19 */
(PID.TID 0000.0001)                 4.436266024588540E+05,      /* J = 20 */
(PID.TID 0000.0001)                 4.447098934081552E+05,      /* J = 21 */
(PID.TID 0000.0001)                 4.436266024588540E+05,      /* J = 22 */
(PID.TID 0000.0001)                 4.403820072955634E+05,      /* J = 23 */
(PID.TID 0000.0001)                 4.349919152597734E+05,      /* J = 24 */
(PID.TID 0000.0001)                 4.274825863380723E+05,      /* J = 25 */
(PID.TID 0000.0001)                 4.178906052261313E+05,      /* J = 26 */
(PID.TID 0000.0001)                 4.062627030917454E+05,      /* J = 27 */
(PID.TID 0000.0001)                 3.926555299052806E+05,      /* J = 28 */
(PID.TID 0000.0001)                 3.771353784467131E+05,      /* J = 29 */
(PID.TID 0000.0001)                 3.597778613338690E+05,      /* J = 30 */
(PID.TID 0000.0001)                 3.406675426453503E+05,      /* J = 31 */
(PID.TID 0000.0001)                 3.198975259328452E+05,      /* J = 32 */
(PID.TID 0000.0001)                 2.975690006299821E+05,      /* J = 33 */
(PID.TID 0000.0001)                 2.737907490675810E+05,      /* J = 34 */
(PID.TID 0000.0001)                 2.486786164970726E+05,      /* J = 35 */
(PID.TID 0000.0001)                 2.223549467040777E+05,      /* J = 36 */
(PID.TID 0000.0001)                 1.949479859617814E+05,      /* J = 37 */
(PID.TID 0000.0001)                 1.665912582279823E+05,      /* J = 38 */
(PID.TID 0000.0001)                 1.374229146297914E+05,      /* J = 39 */
(PID.TID 0000.0001)                 1.075850604052271E+05       /* J = 40 */
(PID.TID 0000.0001)     ;
(PID.TID 0000.0001) dyU =  /* dyU(:,1,:,1) ( units: m ) */
(PID.TID 0000.0001)    90 @  4.447098934081552E+05              /* I =  1: 90 */
(PID.TID 0000.0001)     ;
(PID.TID 0000.0001) dyU =  /* dyU(1,:,1,:) ( units: m ) */
(PID.TID 0000.0001)    40 @  4.447098934081552E+05              /* J =  1: 40 */
(PID.TID 0000.0001)     ;
(PID.TID 0000.0001) rA  =  /* rA (:,1,:,1) ( units: m^2 ) */
(PID.TID 0000.0001)    90 @  4.110969866729047E+10              /* I =  1: 90 */
(PID.TID 0000.0001)     ;
(PID.TID 0000.0001) rA  =  /* rA (1,:,1,:) ( units: m^2 ) */
(PID.TID 0000.0001)                 4.110969866729047E+10,      /* J =  1 */
(PID.TID 0000.0001)                 5.450087291636665E+10,      /* J =  2 */
(PID.TID 0000.0001)                 6.762652439100235E+10,      /* J =  3 */
(PID.TID 0000.0001)                 8.042270623659998E+10,      /* J =  4 */
(PID.TID 0000.0001)                 9.282707674147523E+10,      /* J =  5 */
(PID.TID 0000.0001)                 1.047792030594103E+11,      /* J =  6 */
(PID.TID 0000.0001)                 1.162208556324093E+11,      /* J =  7 */
(PID.TID 0000.0001)                 1.270962918792468E+11,      /* J =  8 */
(PID.TID 0000.0001)                 1.373525277677229E+11,      /* J =  9 */
(PID.TID 0000.0001)                 1.469395959475426E+11,      /* J = 10 */
(PID.TID 0000.0001)                 1.558107891862220E+11,      /* J = 11 */
(PID.TID 0000.0001)                 1.639228879220326E+11,      /* J = 12 */
(PID.TID 0000.0001)                 1.712363708253573E+11,      /* J = 13 */
(PID.TID 0000.0001)                 1.777156073426415E+11,      /* J = 14 */
(PID.TID 0000.0001)                 1.833290312848623E+11,      /* J = 15 */
(PID.TID 0000.0001)                 1.880492946148330E+11,      /* J = 16 */
(PID.TID 0000.0001)                 1.918534006840893E+11,      /* J = 17 */
(PID.TID 0000.0001)                 1.947228162702492E+11,      /* J = 18 */
(PID.TID 0000.0001)                 1.966435618690094E+11,      /* J = 19 */
(PID.TID 0000.0001)     2 @  1.976062798008856E+11,             /* J = 20: 21 */
(PID.TID 0000.0001)                 1.966435618690094E+11,      /* J = 22 */
(PID.TID 0000.0001)                 1.947228162702492E+11,      /* J = 23 */
(PID.TID 0000.0001)                 1.918534006840893E+11,      /* J = 24 */
(PID.TID 0000.0001)                 1.880492946148330E+11,      /* J = 25 */
(PID.TID 0000.0001)                 1.833290312848623E+11,      /* J = 26 */
(PID.TID 0000.0001)                 1.777156073426415E+11,      /* J = 27 */
(PID.TID 0000.0001)                 1.712363708253573E+11,      /* J = 28 */
(PID.TID 0000.0001)                 1.639228879220326E+11,      /* J = 29 */
(PID.TID 0000.0001)                 1.558107891862220E+11,      /* J = 30 */
(PID.TID 0000.0001)                 1.469395959475426E+11,      /* J = 31 */
(PID.TID 0000.0001)                 1.373525277677229E+11,      /* J = 32 */
(PID.TID 0000.0001)                 1.270962918792468E+11,      /* J = 33 */
(PID.TID 0000.0001)                 1.162208556324093E+11,      /* J = 34 */
(PID.TID 0000.0001)                 1.047792030594103E+11,      /* J = 35 */
(PID.TID 0000.0001)                 9.282707674147523E+10,      /* J = 36 */
(PID.TID 0000.0001)                 8.042270623659998E+10,      /* J = 37 */
(PID.TID 0000.0001)                 6.762652439100235E+10,      /* J = 38 */
(PID.TID 0000.0001)                 5.450087291636665E+10,      /* J = 39 */
(PID.TID 0000.0001)                 4.110969866729047E+10       /* J = 40 */
(PID.TID 0000.0001)     ;
(PID.TID 0000.0001) rAw =  /* rAw(:,1,:,1) ( units: m^2 ) */
(PID.TID 0000.0001)    90 @  4.110969866729047E+10              /* I =  1: 90 */
(PID.TID 0000.0001)     ;
(PID.TID 0000.0001) rAw =  /* rAw(1,:,1,:) ( units: m^2 ) */
(PID.TID 0000.0001)                 4.110969866729047E+10,      /* J =  1 */
(PID.TID 0000.0001)                 5.450087291636665E+10,      /* J =  2 */
(PID.TID 0000.0001)                 6.762652439100235E+10,      /* J =  3 */
(PID.TID 0000.0001)                 8.042270623659998E+10,      /* J =  4 */
(PID.TID 0000.0001)                 9.282707674147523E+10,      /* J =  5 */
(PID.TID 0000.0001)                 1.047792030594103E+11,      /* J =  6 */
(PID.TID 0000.0001)                 1.162208556324093E+11,      /* J =  7 */
(PID.TID 0000.0001)                 1.270962918792468E+11,      /* J =  8 */
(PID.TID 0000.0001)                 1.373525277677229E+11,      /* J =  9 */
(PID.TID 0000.0001)                 1.469395959475426E+11,      /* J = 10 */
(PID.TID 0000.0001)                 1.558107891862220E+11,      /* J = 11 */
(PID.TID 0000.0001)                 1.639228879220326E+11,      /* J = 12 */
(PID.TID 0000.0001)                 1.712363708253573E+11,      /* J = 13 */
(PID.TID 0000.0001)                 1.777156073426415E+11,      /* J = 14 */
(PID.TID 0000.0001)                 1.833290312848623E+11,      /* J = 15 */
(PID.TID 0000.0001)                 1.880492946148330E+11,      /* J = 16 */
(PID.TID 0000.0001)                 1.918534006840893E+11,      /* J = 17 */
(PID.TID 0000.0001)                 1.947228162702492E+11,      /* J = 18 */
(PID.TID 0000.0001)                 1.966435618690094E+11,      /* J = 19 */
(PID.TID 0000.0001)     2 @  1.976062798008856E+11,             /* J = 20: 21 */
(PID.TID 0000.0001)                 1.966435618690094E+11,      /* J = 22 */
(PID.TID 0000.0001)                 1.947228162702492E+11,      /* J = 23 */
(PID.TID 0000.0001)                 1.918534006840893E+11,      /* J = 24 */
(PID.TID 0000.0001)                 1.880492946148330E+11,      /* J = 25 */
(PID.TID 0000.0001)                 1.833290312848623E+11,      /* J = 26 */
(PID.TID 0000.0001)                 1.777156073426415E+11,      /* J = 27 */
(PID.TID 0000.0001)                 1.712363708253573E+11,      /* J = 28 */
(PID.TID 0000.0001)                 1.639228879220326E+11,      /* J = 29 */
(PID.TID 0000.0001)                 1.558107891862220E+11,      /* J = 30 */
(PID.TID 0000.0001)                 1.469395959475426E+11,      /* J = 31 */
(PID.TID 0000.0001)                 1.373525277677229E+11,      /* J = 32 */
(PID.TID 0000.0001)                 1.270962918792468E+11,      /* J = 33 */
(PID.TID 0000.0001)                 1.162208556324093E+11,      /* J = 34 */
(PID.TID 0000.0001)                 1.047792030594103E+11,      /* J = 35 */
(PID.TID 0000.0001)                 9.282707674147523E+10,      /* J = 36 */
(PID.TID 0000.0001)                 8.042270623659998E+10,      /* J = 37 */
(PID.TID 0000.0001)                 6.762652439100235E+10,      /* J = 38 */
(PID.TID 0000.0001)                 5.450087291636665E+10,      /* J = 39 */
(PID.TID 0000.0001)                 4.110969866729047E+10       /* J = 40 */
(PID.TID 0000.0001)     ;
(PID.TID 0000.0001) rAs =  /* rAs(:,1,:,1) ( units: m^2 ) */
(PID.TID 0000.0001)    90 @  3.433488626798250E+10              /* I =  1: 90 */
(PID.TID 0000.0001)     ;
(PID.TID 0000.0001) rAs =  /* rAs(1,:,1,:) ( units: m^2 ) */
(PID.TID 0000.0001)                 3.433488626798250E+10,      /* J =  1 */
(PID.TID 0000.0001)                 4.783442523123625E+10,      /* J =  2 */
(PID.TID 0000.0001)                 6.110091968306414E+10,      /* J =  3 */
(PID.TID 0000.0001)                 7.406973659603818E+10,      /* J =  4 */
(PID.TID 0000.0001)                 8.667769319778079E+10,      /* J =  5 */
(PID.TID 0000.0001)                 9.886336479107463E+10,      /* J =  6 */
(PID.TID 0000.0001)                 1.105673840088173E+11,      /* J =  7 */
(PID.TID 0000.0001)                 1.217327300458638E+11,      /* J =  8 */
(PID.TID 0000.0001)                 1.323050064586578E+11,      /* J =  9 */
(PID.TID 0000.0001)                 1.422327061792377E+11,      /* J = 10 */
(PID.TID 0000.0001)                 1.514674624524945E+11,      /* J = 11 */
(PID.TID 0000.0001)                 1.599642844741385E+11,      /* J = 12 */
(PID.TID 0000.0001)                 1.676817765813788E+11,      /* J = 13 */
(PID.TID 0000.0001)                 1.745823399284268E+11,      /* J = 14 */
(PID.TID 0000.0001)                 1.806323556642996E+11,      /* J = 15 */
(PID.TID 0000.0001)                 1.858023487204767E+11,      /* J = 16 */
(PID.TID 0000.0001)                 1.900671314104743E+11,      /* J = 17 */
(PID.TID 0000.0001)                 1.934059261417216E+11,      /* J = 18 */
(PID.TID 0000.0001)                 1.958024666419019E+11,      /* J = 19 */
(PID.TID 0000.0001)                 1.972450772065981E+11,      /* J = 20 */
(PID.TID 0000.0001)                 1.977267295821495E+11,      /* J = 21 */
(PID.TID 0000.0001)                 1.972450772065981E+11,      /* J = 22 */
(PID.TID 0000.0001)                 1.958024666419019E+11,      /* J = 23 */
(PID.TID 0000.0001)                 1.934059261417216E+11,      /* J = 24 */
(PID.TID 0000.0001)                 1.900671314104743E+11,      /* J = 25 */
(PID.TID 0000.0001)                 1.858023487204767E+11,      /* J = 26 */
(PID.TID 0000.0001)                 1.806323556642996E+11,      /* J = 27 */
(PID.TID 0000.0001)                 1.745823399284268E+11,      /* J = 28 */
(PID.TID 0000.0001)                 1.676817765813788E+11,      /* J = 29 */
(PID.TID 0000.0001)                 1.599642844741385E+11,      /* J = 30 */
(PID.TID 0000.0001)                 1.514674624524945E+11,      /* J = 31 */
(PID.TID 0000.0001)                 1.422327061792377E+11,      /* J = 32 */
(PID.TID 0000.0001)                 1.323050064586578E+11,      /* J = 33 */
(PID.TID 0000.0001)                 1.217327300458638E+11,      /* J = 34 */
(PID.TID 0000.0001)                 1.105673840088173E+11,      /* J = 35 */
(PID.TID 0000.0001)                 9.886336479107463E+10,      /* J = 36 */
(PID.TID 0000.0001)                 8.667769319778079E+10,      /* J = 37 */
(PID.TID 0000.0001)                 7.406973659603818E+10,      /* J = 38 */
(PID.TID 0000.0001)                 6.110091968306414E+10,      /* J = 39 */
(PID.TID 0000.0001)                 4.783442523123625E+10       /* J = 40 */
(PID.TID 0000.0001)     ;
(PID.TID 0000.0001) globalArea = /* Integrated horizontal Area (m^2) */
(PID.TID 0000.0001)                 3.450614146649751E+14
(PID.TID 0000.0001)     ;
(PID.TID 0000.0001) // =======================================================
(PID.TID 0000.0001) // End of Model config. summary
(PID.TID 0000.0001) // =======================================================
(PID.TID 0000.0001) 
(PID.TID 0000.0001) == Packages configuration : Check & print summary ==
(PID.TID 0000.0001) 
(PID.TID 0000.0001) GMREDI_CHECK: #define GMREDI
(PID.TID 0000.0001) GM_AdvForm =     /* if FALSE => use SkewFlux Form */
(PID.TID 0000.0001)                   F
(PID.TID 0000.0001)     ;
(PID.TID 0000.0001) GM_InMomAsStress = /* if TRUE => apply as Eddy Stress */
(PID.TID 0000.0001)                   F
(PID.TID 0000.0001)     ;
(PID.TID 0000.0001) GM_AdvSeparate = /* Calc Bolus & Euler Adv. separately */
(PID.TID 0000.0001)                   F
(PID.TID 0000.0001)     ;
(PID.TID 0000.0001) GM_ExtraDiag =   /* Tensor Extra Diag (line 1&2) non 0 */
(PID.TID 0000.0001)                   F
(PID.TID 0000.0001)     ;
(PID.TID 0000.0001) GM_isopycK =    /* Background Isopyc. Diffusivity [m^2/s] */
(PID.TID 0000.0001)                 1.000000000000000E+03
(PID.TID 0000.0001)     ;
(PID.TID 0000.0001) GM_advec*K =    /* Backg. GM-Advec(=Bolus) Diffusivity [m^2/s] */
(PID.TID 0000.0001)                 0.000000000000000E+00
(PID.TID 0000.0001)     ;
(PID.TID 0000.0001) GM_skewflx*K =  /* Background GM_SkewFlx Diffusivity [m^2/s] */
(PID.TID 0000.0001)                 1.000000000000000E+03
(PID.TID 0000.0001)     ;
(PID.TID 0000.0001) GM_isoFac_calcK = /* Fraction of dynamic K added to Redi tensor */
(PID.TID 0000.0001)                 1.000000000000000E+00
(PID.TID 0000.0001)     ;
(PID.TID 0000.0001) GM_Kmin_horiz = /* Minimum Horizontal Diffusivity [m^2/s] */
(PID.TID 0000.0001)                 5.000000000000000E+01
(PID.TID 0000.0001)     ;
(PID.TID 0000.0001) GM_Visbeck_alpha = /* Visbeck alpha coeff. [-] */
(PID.TID 0000.0001)                 0.000000000000000E+00
(PID.TID 0000.0001)     ;
(PID.TID 0000.0001) GM_Small_Number =  /* epsilon used in slope calc */
(PID.TID 0000.0001)                 9.999999999999999E-21
(PID.TID 0000.0001)     ;
(PID.TID 0000.0001) GM_slopeSqCutoff = /* Slope^2 cut-off value */
(PID.TID 0000.0001)                 1.000000000000000E+48
(PID.TID 0000.0001)     ;
(PID.TID 0000.0001) GM_taper_scheme =  /* Type of Tapering/Clipping scheme */
(PID.TID 0000.0001)               'gkw91                                   '
(PID.TID 0000.0001)     ;
(PID.TID 0000.0001) GM_maxSlope =  /* Maximum Slope (Tapering/Clipping) */
(PID.TID 0000.0001)                 1.000000000000000E-02
(PID.TID 0000.0001)     ;
(PID.TID 0000.0001) GM_facTrL2dz = /* Minimum Trans.Layer Thick. (factor of dz) */
(PID.TID 0000.0001)                 1.000000000000000E+00
(PID.TID 0000.0001)     ;
(PID.TID 0000.0001) GM_facTrL2ML = /* Max.Trans.Layer Thick. (factor of MxL Depth)*/
(PID.TID 0000.0001)                 5.000000000000000E+00
(PID.TID 0000.0001)     ;
(PID.TID 0000.0001) GM_maxTransLay = /* Maximum Transition Layer Thickness [m] */
(PID.TID 0000.0001)                 5.000000000000000E+02
(PID.TID 0000.0001)     ;
(PID.TID 0000.0001) GM_UseBVP = /* if TRUE => use bvp a la Ferrari et al. (2010) */
(PID.TID 0000.0001)                   F
(PID.TID 0000.0001)     ;
(PID.TID 0000.0001) GM_BVP_ModeNumber = /* Vertical mode number for BVP wave speed */
(PID.TID 0000.0001)                       1
(PID.TID 0000.0001)     ;
(PID.TID 0000.0001) GM_BVP_cMin = /* Minimum wave speed for BVP [m/s] */
(PID.TID 0000.0001)                 1.000000000000000E-01
(PID.TID 0000.0001)     ;
(PID.TID 0000.0001) GM_useSubMeso = /* if TRUE => use Sub-Meso param. (B.Fox-Kemper) */
(PID.TID 0000.0001)                   F
(PID.TID 0000.0001)     ;
(PID.TID 0000.0001) subMeso_Ceff = /* efficiency coeff. of Mixed-Layer Eddies [-] */
(PID.TID 0000.0001)                 7.000000000000001E-02
(PID.TID 0000.0001)     ;
(PID.TID 0000.0001) subMeso_invTau = /* inverse of Sub-Meso mixing time-scale [/s] */
(PID.TID 0000.0001)                 2.000000000000000E-06
(PID.TID 0000.0001)     ;
(PID.TID 0000.0001) subMeso_LfMin = /* minimum length-scale "Lf" [m] */
(PID.TID 0000.0001)                 1.000000000000000E+03
(PID.TID 0000.0001)     ;
(PID.TID 0000.0001) subMeso_Lmax = /* maximum grid-scale length [m] */
(PID.TID 0000.0001)                 1.100000000000000E+05
(PID.TID 0000.0001)     ;
(PID.TID 0000.0001) GM_useLeithQG = /* if TRUE => add QG Leith viscosity to GMRedi tensor */
(PID.TID 0000.0001)                   F
(PID.TID 0000.0001)     ;
(PID.TID 0000.0001) GM_useGEOM = /* using GEOMETRIC */
(PID.TID 0000.0001)                   F
(PID.TID 0000.0001)     ;
(PID.TID 0000.0001) BBL_CHECK: #define BBL
(PID.TID 0000.0001) bbl_wvel = /* vertical entrainment (m/s) */
(PID.TID 0000.0001)                 1.000000000000000E-05
(PID.TID 0000.0001)     ;
(PID.TID 0000.0001) bbl_hvel = /* horizontal velocity (m/s) */
(PID.TID 0000.0001)                 1.000000000000000E+00
(PID.TID 0000.0001)     ;
(PID.TID 0000.0001) bbl_initEta = /* default thickness (m) */
(PID.TID 0000.0001)                 2.000000000000000E+01
(PID.TID 0000.0001)     ;
(PID.TID 0000.0001) EXF_CHECK: #define ALLOW_EXF
(PID.TID 0000.0001) GAD_CHECK: #define ALLOW_GENERIC_ADVDIFF
(PID.TID 0000.0001) // =======================================================
(PID.TID 0000.0001) // Check Model config. (CONFIG_CHECK):
(PID.TID 0000.0001) // CONFIG_CHECK : Normal End
(PID.TID 0000.0001) // =======================================================
(PID.TID 0000.0001) 
(PID.TID 0000.0001)  MDS_READ_FIELD: opening global file: lev_t.bin
(PID.TID 0000.0001)  MDS_READ_FIELD: opening global file: lev_s.bin
(PID.TID 0000.0001) Start initial hydrostatic pressure computation
(PID.TID 0000.0001) Pressure is predetermined for buoyancyRelation OCEANIC
(PID.TID 0000.0001) 
(PID.TID 0000.0001)  write diagnostics summary to file ioUnit:      6
Iter.Nb:         0 ; Time(s):  0.0000000000000E+00
------------------------------------------------------------------------
2D/3D diagnostics: Number of lists:     4
------------------------------------------------------------------------
listId=    1 ; file name: diagsEXF
 nFlds, nActive,       freq     &     phase        , nLev               
    4  |    4  |   -864000.000000    432000.000000 |   1
 levels:   1
 diag# | name   |   ipt  |  iMate | kLev|   count |   mate.C|           
   197 |EXFtaux |      1 |      0 |   1 |       0 |
   198 |EXFtauy |      2 |      0 |   1 |       0 |
   196 |EXFqnet |      3 |      0 |   1 |       0 |
   209 |EXFempmr|      4 |      0 |   1 |       0 |
------------------------------------------------------------------------
listId=    2 ; file name: diagSurf
 nFlds, nActive,       freq     &     phase        , nLev               
    2  |    2  |   -864000.000000    432000.000000 |   1
 levels:   1
 diag# | name   |   ipt  |  iMate | kLev|   count |   mate.C|           
    26 |THETA   |      5 |      0 |  15 |       0 |
    27 |SALT    |     20 |      0 |  15 |       0 |
------------------------------------------------------------------------
listId=    3 ; file name: diag_vel_k2
 nFlds, nActive,       freq     &     phase        , nLev               
    2  |    2  |   -864000.000000    432000.000000 |   1
 levels:   2
 diag# | name   |   ipt  |  iMate | kLev|   count |   mate.C|           
    30 |UVEL    |     35 |     50 |  15 |       0 |       0 |
    31 |VVEL    |     50 |     35 |  15 |       0 |       0 |
------------------------------------------------------------------------
listId=    4 ; file name: FrzForcT
 nFlds, nActive,       freq     &     phase        , nLev               
    1  |    1  |    864000.000000         0.000000 |  15
 levels:   1   2   3   4   5   6   7   8   9  10  11  12  13  14  15
 diag# | name   |   ipt  |  iMate | kLev|   count |   mate.C|           
   241 |FrzForcT|     65 |      0 |  15 |       0 |
------------------------------------------------------------------------
Global & Regional Statistics diagnostics: Number of lists:     0
------------------------------------------------------------------------
(PID.TID 0000.0001) // =======================================================
(PID.TID 0000.0001) // Model current state
(PID.TID 0000.0001) // =======================================================
(PID.TID 0000.0001) 
(PID.TID 0000.0001) // =======================================================
(PID.TID 0000.0001) // Begin MONITOR dynamic field statistics
(PID.TID 0000.0001) // =======================================================
(PID.TID 0000.0001) %MON time_tsnumber                =                     0
(PID.TID 0000.0001) %MON time_secondsf                =   0.0000000000000E+00
(PID.TID 0000.0001) %MON dynstat_eta_max              =   0.0000000000000E+00
(PID.TID 0000.0001) %MON dynstat_eta_min              =   0.0000000000000E+00
(PID.TID 0000.0001) %MON dynstat_eta_mean             =   0.0000000000000E+00
(PID.TID 0000.0001) %MON dynstat_eta_sd               =   0.0000000000000E+00
(PID.TID 0000.0001) %MON dynstat_eta_del2             =   0.0000000000000E+00
(PID.TID 0000.0001) %MON dynstat_uvel_max             =   0.0000000000000E+00
(PID.TID 0000.0001) %MON dynstat_uvel_min             =   0.0000000000000E+00
(PID.TID 0000.0001) %MON dynstat_uvel_mean            =   0.0000000000000E+00
(PID.TID 0000.0001) %MON dynstat_uvel_sd              =   0.0000000000000E+00
(PID.TID 0000.0001) %MON dynstat_uvel_del2            =   0.0000000000000E+00
(PID.TID 0000.0001) %MON dynstat_vvel_max             =   0.0000000000000E+00
(PID.TID 0000.0001) %MON dynstat_vvel_min             =   0.0000000000000E+00
(PID.TID 0000.0001) %MON dynstat_vvel_mean            =   0.0000000000000E+00
(PID.TID 0000.0001) %MON dynstat_vvel_sd              =   0.0000000000000E+00
(PID.TID 0000.0001) %MON dynstat_vvel_del2            =   0.0000000000000E+00
(PID.TID 0000.0001) %MON dynstat_wvel_max             =  -0.0000000000000E+00
(PID.TID 0000.0001) %MON dynstat_wvel_min             =  -0.0000000000000E+00
(PID.TID 0000.0001) %MON dynstat_wvel_mean            =   0.0000000000000E+00
(PID.TID 0000.0001) %MON dynstat_wvel_sd              =   0.0000000000000E+00
(PID.TID 0000.0001) %MON dynstat_wvel_del2            =   0.0000000000000E+00
(PID.TID 0000.0001) %MON dynstat_theta_max            =   2.9733388900757E+01
(PID.TID 0000.0001) %MON dynstat_theta_min            =  -1.9000000000000E+00
(PID.TID 0000.0001) %MON dynstat_theta_mean           =   3.6197074666131E+00
(PID.TID 0000.0001) %MON dynstat_theta_sd             =   4.4174614518570E+00
(PID.TID 0000.0001) %MON dynstat_theta_del2           =   5.6229722638211E-03
(PID.TID 0000.0001) %MON dynstat_salt_max             =   3.7475627899170E+01
(PID.TID 0000.0001) %MON dynstat_salt_min             =   2.9752769470215E+01
(PID.TID 0000.0001) %MON dynstat_salt_mean            =   3.4718006161477E+01
(PID.TID 0000.0001) %MON dynstat_salt_sd              =   2.9628819587991E-01
(PID.TID 0000.0001) %MON dynstat_salt_del2            =   1.0127003139695E-03
(PID.TID 0000.0001) %MON forcing_qnet_max             =   0.0000000000000E+00
(PID.TID 0000.0001) %MON forcing_qnet_min             =   0.0000000000000E+00
(PID.TID 0000.0001) %MON forcing_qnet_mean            =   0.0000000000000E+00
(PID.TID 0000.0001) %MON forcing_qnet_sd              =   0.0000000000000E+00
(PID.TID 0000.0001) %MON forcing_qnet_del2            =   0.0000000000000E+00
(PID.TID 0000.0001) %MON forcing_qsw_max              =   0.0000000000000E+00
(PID.TID 0000.0001) %MON forcing_qsw_min              =   0.0000000000000E+00
(PID.TID 0000.0001) %MON forcing_qsw_mean             =   0.0000000000000E+00
(PID.TID 0000.0001) %MON forcing_qsw_sd               =   0.0000000000000E+00
(PID.TID 0000.0001) %MON forcing_qsw_del2             =   0.0000000000000E+00
(PID.TID 0000.0001) %MON forcing_empmr_max            =   0.0000000000000E+00
(PID.TID 0000.0001) %MON forcing_empmr_min            =   0.0000000000000E+00
(PID.TID 0000.0001) %MON forcing_empmr_mean           =   0.0000000000000E+00
(PID.TID 0000.0001) %MON forcing_empmr_sd             =   0.0000000000000E+00
(PID.TID 0000.0001) %MON forcing_empmr_del2           =   0.0000000000000E+00
(PID.TID 0000.0001) %MON forcing_fu_max               =   0.0000000000000E+00
(PID.TID 0000.0001) %MON forcing_fu_min               =   0.0000000000000E+00
(PID.TID 0000.0001) %MON forcing_fu_mean              =   0.0000000000000E+00
(PID.TID 0000.0001) %MON forcing_fu_sd                =   0.0000000000000E+00
(PID.TID 0000.0001) %MON forcing_fu_del2              =   0.0000000000000E+00
(PID.TID 0000.0001) %MON forcing_fv_max               =   0.0000000000000E+00
(PID.TID 0000.0001) %MON forcing_fv_min               =   0.0000000000000E+00
(PID.TID 0000.0001) %MON forcing_fv_mean              =   0.0000000000000E+00
(PID.TID 0000.0001) %MON forcing_fv_sd                =   0.0000000000000E+00
(PID.TID 0000.0001) %MON forcing_fv_del2              =   0.0000000000000E+00
(PID.TID 0000.0001) %MON trAdv_CFL_u_max              =   0.0000000000000E+00
(PID.TID 0000.0001) %MON trAdv_CFL_v_max              =   0.0000000000000E+00
(PID.TID 0000.0001) %MON trAdv_CFL_w_max              =   0.0000000000000E+00
(PID.TID 0000.0001) %MON advcfl_uvel_max              =   0.0000000000000E+00
(PID.TID 0000.0001) %MON advcfl_vvel_max              =   0.0000000000000E+00
(PID.TID 0000.0001) %MON advcfl_wvel_max              =   0.0000000000000E+00
(PID.TID 0000.0001) %MON advcfl_W_hf_max              =   0.0000000000000E+00
(PID.TID 0000.0001) %MON pe_b_mean                    =   0.0000000000000E+00
(PID.TID 0000.0001) %MON ke_max                       =   0.0000000000000E+00
(PID.TID 0000.0001) %MON ke_mean                      =   0.0000000000000E+00
(PID.TID 0000.0001) %MON ke_vol                       =   1.3226782436723E+18
(PID.TID 0000.0001) %MON vort_r_min                   =   0.0000000000000E+00
(PID.TID 0000.0001) %MON vort_r_max                   =   0.0000000000000E+00
(PID.TID 0000.0001) %MON vort_a_mean                  =  -2.5205769728597E-05
(PID.TID 0000.0001) %MON vort_a_sd                    =   7.3403301351718E-05
(PID.TID 0000.0001) %MON vort_p_mean                  =  -3.1758669979760E-05
(PID.TID 0000.0001) %MON vort_p_sd                    =   1.3126616755304E-04
(PID.TID 0000.0001) %MON surfExpan_theta_mean         =   0.0000000000000E+00
(PID.TID 0000.0001) %MON surfExpan_salt_mean          =   0.0000000000000E+00
(PID.TID 0000.0001) // =======================================================
(PID.TID 0000.0001) // End MONITOR dynamic field statistics
(PID.TID 0000.0001) // =======================================================
(PID.TID 0000.0001) EXF_SET_FLD: processing field "climsst",  file: lev_sst.bin
(PID.TID 0000.0001) EXF_SET_FLD:   myIter, count0, count1:         0     12      1
(PID.TID 0000.0001) EXF_SET_FLD:   first, changed, fac:   T   F    0.50000000000000000
(PID.TID 0000.0001) EXF_SET_FLD: field "climsst", it=         0, loading rec=    12
(PID.TID 0000.0001) EXF_SET_FLD:   from file: "lev_sst.bin_1991"
(PID.TID 0000.0001)  EXF_INTERP_READ: opening file: lev_sst.bin_1991
(PID.TID 0000.0001)  EXF_INTERP: file="lev_sst.bin_1991", rec=    12 , x-Per,P.Sym=    T    T
(PID.TID 0000.0001)  S.edge (j=-1,0,1) : proc= 0.0 0.0 0.0, yIn=  -86.000000  -82.000000  -78.000000
(PID.TID 0000.0001)  N.edge (j=+0,+1,+2) proc= 0.0 0.0 0.0, yIn=   78.000000   82.000000   86.000000
(PID.TID 0000.0001) EXF_SET_FLD: field "climsst", it=         0, loading rec=     1
(PID.TID 0000.0001) EXF_SET_FLD:   from file: "lev_sst.bin_1992"
(PID.TID 0000.0001)  EXF_INTERP_READ: opening file: lev_sst.bin_1992
(PID.TID 0000.0001)  EXF_INTERP: file="lev_sst.bin_1992", rec=     1 , x-Per,P.Sym=    T    T
(PID.TID 0000.0001)  S.edge (j=-1,0,1) : proc= 0.0 0.0 0.0, yIn=  -86.000000  -82.000000  -78.000000
(PID.TID 0000.0001)  N.edge (j=+0,+1,+2) proc= 0.0 0.0 0.0, yIn=   78.000000   82.000000   86.000000
(PID.TID 0000.0001) EXF_SET_FLD: processing field "climsss",  file: lev_sss.bin
(PID.TID 0000.0001) EXF_SET_FLD:   myIter, count0, count1:         0     12      1
(PID.TID 0000.0001) EXF_SET_FLD:   first, changed, fac:   T   F    0.50000000000000000
(PID.TID 0000.0001) EXF_SET_FLD: field "climsss", it=         0, loading rec=    12
(PID.TID 0000.0001) EXF_SET_FLD:   from file: "lev_sss.bin_1991"
(PID.TID 0000.0001)  EXF_INTERP_READ: opening file: lev_sss.bin_1991
(PID.TID 0000.0001)  EXF_INTERP: file="lev_sss.bin_1991", rec=    12 , x-Per,P.Sym=    T    T
(PID.TID 0000.0001)  S.edge (j=-1,0,1) : proc= 0.0 0.0 0.0, yIn=  -86.000000  -82.000000  -78.000000
(PID.TID 0000.0001)  N.edge (j=+0,+1,+2) proc= 0.0 0.0 0.0, yIn=   78.000000   82.000000   86.000000
(PID.TID 0000.0001) EXF_SET_FLD: field "climsss", it=         0, loading rec=     1
(PID.TID 0000.0001) EXF_SET_FLD:   from file: "lev_sss.bin_1992"
(PID.TID 0000.0001)  EXF_INTERP_READ: opening file: lev_sss.bin_1992
(PID.TID 0000.0001)  EXF_INTERP: file="lev_sss.bin_1992", rec=     1 , x-Per,P.Sym=    T    T
(PID.TID 0000.0001)  S.edge (j=-1,0,1) : proc= 0.0 0.0 0.0, yIn=  -86.000000  -82.000000  -78.000000
(PID.TID 0000.0001)  N.edge (j=+0,+1,+2) proc= 0.0 0.0 0.0, yIn=   78.000000   82.000000   86.000000
(PID.TID 0000.0001) EXF_SET_FLD: processing field "ustress",  file: trenberth_taux.bin
(PID.TID 0000.0001) EXF_SET_FLD:   myIter, count0, count1:         0     12      1
(PID.TID 0000.0001) EXF_SET_FLD:   first, changed, fac:   T   F    0.50000000000000000
(PID.TID 0000.0001) EXF_SET_FLD: field "ustress", it=         0, loading rec=    12
(PID.TID 0000.0001) EXF_SET_FLD:   from file: "trenberth_taux.bin_1991"
(PID.TID 0000.0001)  EXF_INTERP_READ: opening file: trenberth_taux.bin_1991
(PID.TID 0000.0001)  EXF_INTERP: file="trenberth_taux.bin_1991", rec=    12 , x-Per,P.Sym=    T    T
(PID.TID 0000.0001)  S.edge (j=-1,0,1) : proc= 0.0 0.0 0.0, yIn=  -86.000000  -82.000000  -78.000000
(PID.TID 0000.0001)  N.edge (j=+0,+1,+2) proc= 0.0 0.0 0.0, yIn=   78.000000   82.000000   86.000000
(PID.TID 0000.0001) EXF_SET_FLD: field "ustress", it=         0, loading rec=     1
(PID.TID 0000.0001) EXF_SET_FLD:   from file: "trenberth_taux.bin_1992"
(PID.TID 0000.0001)  EXF_INTERP_READ: opening file: trenberth_taux.bin_1992
(PID.TID 0000.0001)  EXF_INTERP: file="trenberth_taux.bin_1992", rec=     1 , x-Per,P.Sym=    T    T
(PID.TID 0000.0001)  S.edge (j=-1,0,1) : proc= 0.0 0.0 0.0, yIn=  -86.000000  -82.000000  -78.000000
(PID.TID 0000.0001)  N.edge (j=+0,+1,+2) proc= 0.0 0.0 0.0, yIn=   78.000000   82.000000   86.000000
(PID.TID 0000.0001) EXF_SET_FLD: processing field "vstress",  file: trenberth_tauy.bin
(PID.TID 0000.0001) EXF_SET_FLD:   myIter, count0, count1:         0     12      1
(PID.TID 0000.0001) EXF_SET_FLD:   first, changed, fac:   T   F    0.50000000000000000
(PID.TID 0000.0001) EXF_SET_FLD: field "vstress", it=         0, loading rec=    12
(PID.TID 0000.0001) EXF_SET_FLD:   from file: "trenberth_tauy.bin_1991"
(PID.TID 0000.0001)  EXF_INTERP_READ: opening file: trenberth_tauy.bin_1991
(PID.TID 0000.0001)  EXF_INTERP: file="trenberth_tauy.bin_1991", rec=    12 , x-Per,P.Sym=    T    T
(PID.TID 0000.0001)  S.edge (j=-1,0,1) : proc= 0.0 0.0 0.0, yIn=  -88.000000  -84.000000  -80.000000
(PID.TID 0000.0001)  N.edge (j=+0,+1,+2) proc= 0.0 0.0 0.0, yIn=   76.000000   80.000000   84.000000
(PID.TID 0000.0001) EXF_SET_FLD: field "vstress", it=         0, loading rec=     1
(PID.TID 0000.0001) EXF_SET_FLD:   from file: "trenberth_tauy.bin_1992"
(PID.TID 0000.0001)  EXF_INTERP_READ: opening file: trenberth_tauy.bin_1992
(PID.TID 0000.0001)  EXF_INTERP: file="trenberth_tauy.bin_1992", rec=     1 , x-Per,P.Sym=    T    T
(PID.TID 0000.0001)  S.edge (j=-1,0,1) : proc= 0.0 0.0 0.0, yIn=  -88.000000  -84.000000  -80.000000
(PID.TID 0000.0001)  N.edge (j=+0,+1,+2) proc= 0.0 0.0 0.0, yIn=   76.000000   80.000000   84.000000
(PID.TID 0000.0001) EXF_SET_FLD: processing field "hflux",  file: ncep_qnet.bin
(PID.TID 0000.0001) EXF_SET_FLD:   myIter, count0, count1:         0     12      1
(PID.TID 0000.0001) EXF_SET_FLD:   first, changed, fac:   T   F    0.50000000000000000
(PID.TID 0000.0001) EXF_SET_FLD: field "hflux", it=         0, loading rec=    12
(PID.TID 0000.0001) EXF_SET_FLD:   from file: "ncep_qnet.bin_1991"
(PID.TID 0000.0001)  EXF_INTERP_READ: opening file: ncep_qnet.bin_1991
(PID.TID 0000.0001)  EXF_INTERP: file="ncep_qnet.bin_1991", rec=    12 , x-Per,P.Sym=    T    T
(PID.TID 0000.0001)  S.edge (j=-1,0,1) : proc= 0.0 0.0 0.0, yIn=  -86.000000  -82.000000  -78.000000
(PID.TID 0000.0001)  N.edge (j=+0,+1,+2) proc= 0.0 0.0 0.0, yIn=   78.000000   82.000000   86.000000
(PID.TID 0000.0001) EXF_SET_FLD: field "hflux", it=         0, loading rec=     1
(PID.TID 0000.0001) EXF_SET_FLD:   from file: "ncep_qnet.bin_1992"
(PID.TID 0000.0001)  EXF_INTERP_READ: opening file: ncep_qnet.bin_1992
(PID.TID 0000.0001)  EXF_INTERP: file="ncep_qnet.bin_1992", rec=     1 , x-Per,P.Sym=    T    T
(PID.TID 0000.0001)  S.edge (j=-1,0,1) : proc= 0.0 0.0 0.0, yIn=  -86.000000  -82.000000  -78.000000
(PID.TID 0000.0001)  N.edge (j=+0,+1,+2) proc= 0.0 0.0 0.0, yIn=   78.000000   82.000000   86.000000
(PID.TID 0000.0001) // =======================================================
(PID.TID 0000.0001) // Begin MONITOR EXF statistics
(PID.TID 0000.0001) // =======================================================
(PID.TID 0000.0001) %MON exf_tsnumber                 =                     0
(PID.TID 0000.0001) %MON exf_time_sec                 =   0.0000000000000E+00
(PID.TID 0000.0001) %MON exf_ustress_max              =   2.7504746150225E-01
(PID.TID 0000.0001) %MON exf_ustress_min              =  -1.5905952523462E-01
(PID.TID 0000.0001) %MON exf_ustress_mean             =   1.5099458143023E-02
(PID.TID 0000.0001) %MON exf_ustress_sd               =   8.8585108033587E-02
(PID.TID 0000.0001) %MON exf_ustress_del2             =   6.6404043672869E-04
(PID.TID 0000.0001) %MON exf_vstress_max              =   2.0339486259036E-01
(PID.TID 0000.0001) %MON exf_vstress_min              =  -1.5535210736562E-01
(PID.TID 0000.0001) %MON exf_vstress_mean             =  -6.4896783635954E-03
(PID.TID 0000.0001) %MON exf_vstress_sd               =   4.4762215730526E-02
(PID.TID 0000.0001) %MON exf_vstress_del2             =   4.2060407074252E-04
(PID.TID 0000.0001) %MON exf_hflux_max                =   4.2589080810547E+02
(PID.TID 0000.0001) %MON exf_hflux_min                =  -1.8702698516846E+02
(PID.TID 0000.0001) %MON exf_hflux_mean               =  -1.6700205338390E+01
(PID.TID 0000.0001) %MON exf_hflux_sd                 =   1.1285666794876E+02
(PID.TID 0000.0001) %MON exf_hflux_del2               =   1.2155960609585E+00
(PID.TID 0000.0001) %MON exf_climsst_max              =   2.9561637878418E+01
(PID.TID 0000.0001) %MON exf_climsst_min              =  -1.9000000000000E+00
(PID.TID 0000.0001) %MON exf_climsst_mean             =   1.8364821435178E+01
(PID.TID 0000.0001) %MON exf_climsst_sd               =   9.2122803951937E+00
(PID.TID 0000.0001) %MON exf_climsst_del2             =   2.4303814016692E-02
(PID.TID 0000.0001) %MON exf_climsss_max              =   3.7451293945312E+01
(PID.TID 0000.0001) %MON exf_climsss_min              =   2.9661429405212E+01
(PID.TID 0000.0001) %MON exf_climsss_mean             =   3.4846753273918E+01
(PID.TID 0000.0001) %MON exf_climsss_sd               =   9.6901487505656E-01
(PID.TID 0000.0001) %MON exf_climsss_del2             =   7.0345793365991E-03
(PID.TID 0000.0001) // =======================================================
(PID.TID 0000.0001) // End MONITOR EXF statistics
(PID.TID 0000.0001) // =======================================================
(PID.TID 0000.0001) SOLVE_FOR_PRESSURE: putPmEinXvector =    F
 cg2d: Sum(rhs),rhsMax =   8.77076189453874E-15  2.53365815236497E+00
(PID.TID 0000.0001)      cg2d_init_res =   6.22518764776291E+00
(PID.TID 0000.0001)      cg2d_iters(min,last) =      -1      26
(PID.TID 0000.0001)      cg2d_last_res =   5.02260596927900E-14
(PID.TID 0000.0001) // =======================================================
(PID.TID 0000.0001) // Begin MONITOR dynamic field statistics
(PID.TID 0000.0001) // =======================================================
(PID.TID 0000.0001) %MON time_tsnumber                =                     1
(PID.TID 0000.0001) %MON time_secondsf                =   4.3200000000000E+04
(PID.TID 0000.0001) %MON dynstat_eta_max              =   1.7856792601737E-01
(PID.TID 0000.0001) %MON dynstat_eta_min              =  -1.1519610008195E-01
(PID.TID 0000.0001) %MON dynstat_eta_mean             =  -1.2183632779057E-17
(PID.TID 0000.0001) %MON dynstat_eta_sd               =   2.6330549890027E-02
(PID.TID 0000.0001) %MON dynstat_eta_del2             =   1.1739962474465E-03
(PID.TID 0000.0001) %MON dynstat_uvel_max             =   8.3420582008132E-03
(PID.TID 0000.0001) %MON dynstat_uvel_min             =  -8.9105084344499E-03
(PID.TID 0000.0001) %MON dynstat_uvel_mean            =  -3.6105404926990E-04
(PID.TID 0000.0001) %MON dynstat_uvel_sd              =   1.2324206270048E-03
(PID.TID 0000.0001) %MON dynstat_uvel_del2            =   1.1701375184118E-05
(PID.TID 0000.0001) %MON dynstat_vvel_max             =   1.8795294842838E-02
(PID.TID 0000.0001) %MON dynstat_vvel_min             =  -1.1293716034417E-02
(PID.TID 0000.0001) %MON dynstat_vvel_mean            =   9.2373633389001E-04
(PID.TID 0000.0001) %MON dynstat_vvel_sd              =   3.4432405846197E-03
(PID.TID 0000.0001) %MON dynstat_vvel_del2            =   1.5589366150165E-05
(PID.TID 0000.0001) %MON dynstat_wvel_max             =   1.5979106098211E-04
(PID.TID 0000.0001) %MON dynstat_wvel_min             =  -1.0324282167793E-04
(PID.TID 0000.0001) %MON dynstat_wvel_mean            =   4.6387632839130E-22
(PID.TID 0000.0001) %MON dynstat_wvel_sd              =   1.6851545532444E-05
(PID.TID 0000.0001) %MON dynstat_wvel_del2            =   2.5393863567958E-07
(PID.TID 0000.0001) %MON dynstat_theta_max            =   2.9730291022209E+01
(PID.TID 0000.0001) %MON dynstat_theta_min            =  -1.9000525678019E+00
(PID.TID 0000.0001) %MON dynstat_theta_mean           =   3.6197399585377E+00
(PID.TID 0000.0001) %MON dynstat_theta_sd             =   4.4171671616323E+00
(PID.TID 0000.0001) %MON dynstat_theta_del2           =   5.6392111578752E-03
(PID.TID 0000.0001) %MON dynstat_salt_max             =   3.7470516461991E+01
(PID.TID 0000.0001) %MON dynstat_salt_min             =   2.9754192314250E+01
(PID.TID 0000.0001) %MON dynstat_salt_mean            =   3.4718006046545E+01
(PID.TID 0000.0001) %MON dynstat_salt_sd              =   2.9615165889070E-01
(PID.TID 0000.0001) %MON dynstat_salt_del2            =   1.0162893254028E-03
(PID.TID 0000.0001) %MON forcing_qnet_max             =   4.2589080810547E+02
(PID.TID 0000.0001) %MON forcing_qnet_min             =  -1.8702698516846E+02
(PID.TID 0000.0001) %MON forcing_qnet_mean            =  -1.6700205338390E+01
(PID.TID 0000.0001) %MON forcing_qnet_sd              =   1.1285666794876E+02
(PID.TID 0000.0001) %MON forcing_qnet_del2            =   9.9079877721394E-01
(PID.TID 0000.0001) %MON forcing_qsw_max              =   0.0000000000000E+00
(PID.TID 0000.0001) %MON forcing_qsw_min              =   0.0000000000000E+00
(PID.TID 0000.0001) %MON forcing_qsw_mean             =   0.0000000000000E+00
(PID.TID 0000.0001) %MON forcing_qsw_sd               =   0.0000000000000E+00
(PID.TID 0000.0001) %MON forcing_qsw_del2             =   0.0000000000000E+00
(PID.TID 0000.0001) %MON forcing_empmr_max            =   0.0000000000000E+00
(PID.TID 0000.0001) %MON forcing_empmr_min            =   0.0000000000000E+00
(PID.TID 0000.0001) %MON forcing_empmr_mean           =   0.0000000000000E+00
(PID.TID 0000.0001) %MON forcing_empmr_sd             =   0.0000000000000E+00
(PID.TID 0000.0001) %MON forcing_empmr_del2           =   0.0000000000000E+00
(PID.TID 0000.0001) %MON forcing_fu_max               =   2.7254342939705E-01
(PID.TID 0000.0001) %MON forcing_fu_min               =  -1.5819683112204E-01
(PID.TID 0000.0001) %MON forcing_fu_mean              =   1.6170461028950E-02
(PID.TID 0000.0001) %MON forcing_fu_sd                =   8.9812760419306E-02
(PID.TID 0000.0001) %MON forcing_fu_del2              =   6.3112946759237E-04
(PID.TID 0000.0001) %MON forcing_fv_max               =   1.9946160190739E-01
(PID.TID 0000.0001) %MON forcing_fv_min               =  -1.5322343428852E-01
(PID.TID 0000.0001) %MON forcing_fv_mean              =  -6.1986725562690E-03
(PID.TID 0000.0001) %MON forcing_fv_sd                =   4.3702936040168E-02
(PID.TID 0000.0001) %MON forcing_fv_del2              =   3.4235733034056E-04
(PID.TID 0000.0001) %MON trAdv_CFL_u_max              =   0.0000000000000E+00
(PID.TID 0000.0001) %MON trAdv_CFL_v_max              =   0.0000000000000E+00
(PID.TID 0000.0001) %MON trAdv_CFL_w_max              =   0.0000000000000E+00
(PID.TID 0000.0001) %MON advcfl_uvel_max              =   2.6522096376261E-03
(PID.TID 0000.0001) %MON advcfl_vvel_max              =   1.8258121738376E-03
(PID.TID 0000.0001) %MON advcfl_wvel_max              =   2.5713781346502E-01
(PID.TID 0000.0001) %MON advcfl_W_hf_max              =   1.3042175452023E-01
(PID.TID 0000.0001) %MON pe_b_mean                    =   8.8715817383896E-07
(PID.TID 0000.0001) %MON ke_max                       =   1.2389954443154E-04
(PID.TID 0000.0001) %MON ke_mean                      =   6.4549805119018E-06
(PID.TID 0000.0001) %MON ke_vol                       =   1.3226782436723E+18
(PID.TID 0000.0001) %MON vort_r_min                   =  -5.9901398426061E-08
(PID.TID 0000.0001) %MON vort_r_max                   =   6.7789694752163E-08
(PID.TID 0000.0001) %MON vort_a_mean                  =  -2.5205769395550E-05
(PID.TID 0000.0001) %MON vort_a_sd                    =   7.3403223083098E-05
(PID.TID 0000.0001) %MON vort_p_mean                  =  -3.1758669560129E-05
(PID.TID 0000.0001) %MON vort_p_sd                    =   1.3126608107829E-04
(PID.TID 0000.0001) %MON surfExpan_theta_mean         =   4.7002825013790E-05
(PID.TID 0000.0001) %MON surfExpan_salt_mean          =   3.5353786093786E-06
(PID.TID 0000.0001) // =======================================================
(PID.TID 0000.0001) // End MONITOR dynamic field statistics
(PID.TID 0000.0001) // =======================================================
(PID.TID 0000.0001) EXF_SET_FLD: processing field "climsst",  file: lev_sst.bin
(PID.TID 0000.0001) EXF_SET_FLD:   myIter, count0, count1:         1     12      1
(PID.TID 0000.0001) EXF_SET_FLD:   first, changed, fac:   F   F    0.48333333333333334
(PID.TID 0000.0001) EXF_SET_FLD: processing field "climsss",  file: lev_sss.bin
(PID.TID 0000.0001) EXF_SET_FLD:   myIter, count0, count1:         1     12      1
(PID.TID 0000.0001) EXF_SET_FLD:   first, changed, fac:   F   F    0.48333333333333328
(PID.TID 0000.0001) EXF_SET_FLD: processing field "ustress",  file: trenberth_taux.bin
(PID.TID 0000.0001) EXF_SET_FLD:   myIter, count0, count1:         1     12      1
(PID.TID 0000.0001) EXF_SET_FLD:   first, changed, fac:   F   F    0.48333333333333328
(PID.TID 0000.0001) EXF_SET_FLD: processing field "vstress",  file: trenberth_tauy.bin
(PID.TID 0000.0001) EXF_SET_FLD:   myIter, count0, count1:         1     12      1
(PID.TID 0000.0001) EXF_SET_FLD:   first, changed, fac:   F   F    0.48333333333333328
(PID.TID 0000.0001) EXF_SET_FLD: processing field "hflux",  file: ncep_qnet.bin
(PID.TID 0000.0001) EXF_SET_FLD:   myIter, count0, count1:         1     12      1
(PID.TID 0000.0001) EXF_SET_FLD:   first, changed, fac:   F   F    0.48333333333333328
(PID.TID 0000.0001) // =======================================================
(PID.TID 0000.0001) // Begin MONITOR EXF statistics
(PID.TID 0000.0001) // =======================================================
(PID.TID 0000.0001) %MON exf_tsnumber                 =                     1
(PID.TID 0000.0001) %MON exf_time_sec                 =   4.3200000000000E+04
(PID.TID 0000.0001) %MON exf_ustress_max              =   2.7485855417326E-01
(PID.TID 0000.0001) %MON exf_ustress_min              =  -1.5870550675318E-01
(PID.TID 0000.0001) %MON exf_ustress_mean             =   1.5096961172338E-02
(PID.TID 0000.0001) %MON exf_ustress_sd               =   8.8576755412895E-02
(PID.TID 0000.0001) %MON exf_ustress_del2             =   6.6447495447352E-04
(PID.TID 0000.0001) %MON exf_vstress_max              =   2.0409876147751E-01
(PID.TID 0000.0001) %MON exf_vstress_min              =  -1.5556951857870E-01
(PID.TID 0000.0001) %MON exf_vstress_mean             =  -6.4557491228010E-03
(PID.TID 0000.0001) %MON exf_vstress_sd               =   4.4809742503208E-02
(PID.TID 0000.0001) %MON exf_vstress_del2             =   4.2036257262331E-04
(PID.TID 0000.0001) %MON exf_hflux_max                =   4.2641490173340E+02
(PID.TID 0000.0001) %MON exf_hflux_min                =  -1.8679340387980E+02
(PID.TID 0000.0001) %MON exf_hflux_mean               =  -1.6693949360478E+01
(PID.TID 0000.0001) %MON exf_hflux_sd                 =   1.1274774925900E+02
(PID.TID 0000.0001) %MON exf_hflux_del2               =   1.2158263237404E+00
(PID.TID 0000.0001) %MON exf_climsst_max              =   2.9553610674540E+01
(PID.TID 0000.0001) %MON exf_climsst_min              =  -1.9000000000000E+00
(PID.TID 0000.0001) %MON exf_climsst_mean             =   1.8368804810499E+01
(PID.TID 0000.0001) %MON exf_climsst_sd               =   9.2102881117028E+00
(PID.TID 0000.0001) %MON exf_climsst_del2             =   2.4265999598468E-02
(PID.TID 0000.0001) %MON exf_climsss_max              =   3.7452105077108E+01
(PID.TID 0000.0001) %MON exf_climsss_min              =   2.9664474074046E+01
(PID.TID 0000.0001) %MON exf_climsss_mean             =   3.4846859007294E+01
(PID.TID 0000.0001) %MON exf_climsss_sd               =   9.6850594829584E-01
(PID.TID 0000.0001) %MON exf_climsss_del2             =   7.0274468011122E-03
(PID.TID 0000.0001) // =======================================================
(PID.TID 0000.0001) // End MONITOR EXF statistics
(PID.TID 0000.0001) // =======================================================
 cg2d: Sum(rhs),rhsMax =   3.71924713249427E-14  5.04328788487890E+00
(PID.TID 0000.0001)      cg2d_init_res =   3.38571268700115E+00
(PID.TID 0000.0001)      cg2d_iters(min,last) =      -1      26
(PID.TID 0000.0001)      cg2d_last_res =   3.25986534349665E-14
(PID.TID 0000.0001) // =======================================================
(PID.TID 0000.0001) // Begin MONITOR dynamic field statistics
(PID.TID 0000.0001) // =======================================================
(PID.TID 0000.0001) %MON time_tsnumber                =                     2
(PID.TID 0000.0001) %MON time_secondsf                =   8.6400000000000E+04
(PID.TID 0000.0001) %MON dynstat_eta_max              =   3.7915296865314E-01
(PID.TID 0000.0001) %MON dynstat_eta_min              =  -2.5419819505330E-01
(PID.TID 0000.0001) %MON dynstat_eta_mean             =  -3.2489687410819E-17
(PID.TID 0000.0001) %MON dynstat_eta_sd               =   6.0698790740185E-02
(PID.TID 0000.0001) %MON dynstat_eta_del2             =   2.2978517912289E-03
(PID.TID 0000.0001) %MON dynstat_uvel_max             =   1.9100811905852E-02
(PID.TID 0000.0001) %MON dynstat_uvel_min             =  -1.7217288240088E-02
(PID.TID 0000.0001) %MON dynstat_uvel_mean            =  -8.9664192961636E-04
(PID.TID 0000.0001) %MON dynstat_uvel_sd              =   2.1424795605143E-03
(PID.TID 0000.0001) %MON dynstat_uvel_del2            =   2.3261940196802E-05
(PID.TID 0000.0001) %MON dynstat_vvel_max             =   3.4025780593185E-02
(PID.TID 0000.0001) %MON dynstat_vvel_min             =  -1.8116089859852E-02
(PID.TID 0000.0001) %MON dynstat_vvel_mean            =   1.7894855709392E-03
(PID.TID 0000.0001) %MON dynstat_vvel_sd              =   6.2759691519203E-03
(PID.TID 0000.0001) %MON dynstat_vvel_del2            =   2.9017652798493E-05
(PID.TID 0000.0001) %MON dynstat_wvel_max             =   2.0933796245700E-04
(PID.TID 0000.0001) %MON dynstat_wvel_min             =  -1.4797612951136E-04
(PID.TID 0000.0001) %MON dynstat_wvel_mean            =   5.3140262935965E-22
(PID.TID 0000.0001) %MON dynstat_wvel_sd              =   2.4341114319765E-05
(PID.TID 0000.0001) %MON dynstat_wvel_del2            =   2.9285539003316E-07
(PID.TID 0000.0001) %MON dynstat_theta_max            =   2.9678784594958E+01
(PID.TID 0000.0001) %MON dynstat_theta_min            =  -1.9016546498575E+00
(PID.TID 0000.0001) %MON dynstat_theta_mean           =   3.6189252225734E+00
(PID.TID 0000.0001) %MON dynstat_theta_sd             =   4.4153471009499E+00
(PID.TID 0000.0001) %MON dynstat_theta_del2           =   5.5255791348274E-03
(PID.TID 0000.0001) %MON dynstat_salt_max             =   3.7465157945631E+01
(PID.TID 0000.0001) %MON dynstat_salt_min             =   2.9756629991559E+01
(PID.TID 0000.0001) %MON dynstat_salt_mean            =   3.4717942212203E+01
(PID.TID 0000.0001) %MON dynstat_salt_sd              =   2.9608546534503E-01
(PID.TID 0000.0001) %MON dynstat_salt_del2            =   1.0219371401874E-03
(PID.TID 0000.0001) %MON forcing_qnet_max             =   4.2641490173340E+02
(PID.TID 0000.0001) %MON forcing_qnet_min             =  -1.8679340387980E+02
(PID.TID 0000.0001) %MON forcing_qnet_mean            =  -1.6693949360478E+01
(PID.TID 0000.0001) %MON forcing_qnet_sd              =   1.1274774925900E+02
(PID.TID 0000.0001) %MON forcing_qnet_del2            =   9.9129556347980E-01
(PID.TID 0000.0001) %MON forcing_qsw_max              =   0.0000000000000E+00
(PID.TID 0000.0001) %MON forcing_qsw_min              =   0.0000000000000E+00
(PID.TID 0000.0001) %MON forcing_qsw_mean             =   0.0000000000000E+00
(PID.TID 0000.0001) %MON forcing_qsw_sd               =   0.0000000000000E+00
(PID.TID 0000.0001) %MON forcing_qsw_del2             =   0.0000000000000E+00
(PID.TID 0000.0001) %MON forcing_empmr_max            =   0.0000000000000E+00
(PID.TID 0000.0001) %MON forcing_empmr_min            =   0.0000000000000E+00
(PID.TID 0000.0001) %MON forcing_empmr_mean           =   0.0000000000000E+00
(PID.TID 0000.0001) %MON forcing_empmr_sd             =   0.0000000000000E+00
(PID.TID 0000.0001) %MON forcing_empmr_del2           =   0.0000000000000E+00
(PID.TID 0000.0001) %MON forcing_fu_max               =   2.7194796828553E-01
(PID.TID 0000.0001) %MON forcing_fu_min               =  -1.5841691407065E-01
(PID.TID 0000.0001) %MON forcing_fu_mean              =   1.6166366139509E-02
(PID.TID 0000.0001) %MON forcing_fu_sd                =   8.9804080125067E-02
(PID.TID 0000.0001) %MON forcing_fu_del2              =   6.3169415627387E-04
(PID.TID 0000.0001) %MON forcing_fv_max               =   1.9984716796316E-01
(PID.TID 0000.0001) %MON forcing_fv_min               =  -1.5380024643964E-01
(PID.TID 0000.0001) %MON forcing_fv_mean              =  -6.1630716355063E-03
(PID.TID 0000.0001) %MON forcing_fv_sd                =   4.3753566373357E-02
(PID.TID 0000.0001) %MON forcing_fv_del2              =   3.4240847200396E-04
(PID.TID 0000.0001) %MON trAdv_CFL_u_max              =   2.8604260088635E-03
(PID.TID 0000.0001) %MON trAdv_CFL_v_max              =   1.9270644571569E-03
(PID.TID 0000.0001) %MON trAdv_CFL_w_max              =   1.2856890673251E-01
(PID.TID 0000.0001) %MON advcfl_uvel_max              =   4.6878091057318E-03
(PID.TID 0000.0001) %MON advcfl_vvel_max              =   3.3053317306716E-03
(PID.TID 0000.0001) %MON advcfl_wvel_max              =   2.8884246139551E-01
(PID.TID 0000.0001) %MON advcfl_W_hf_max              =   1.4979645743548E-01
(PID.TID 0000.0001) %MON pe_b_mean                    =   4.7145612052874E-06
(PID.TID 0000.0001) %MON ke_max                       =   4.1178259862288E-04
(PID.TID 0000.0001) %MON ke_mean                      =   2.1571199571856E-05
(PID.TID 0000.0001) %MON ke_vol                       =   1.3226782436723E+18
(PID.TID 0000.0001) %MON vort_r_min                   =  -1.0551944119383E-07
(PID.TID 0000.0001) %MON vort_r_max                   =   1.2813897449542E-07
(PID.TID 0000.0001) %MON vort_a_mean                  =  -2.5205769320712E-05
(PID.TID 0000.0001) %MON vort_a_sd                    =   7.3403113119104E-05
(PID.TID 0000.0001) %MON vort_p_mean                  =  -3.1758669465835E-05
(PID.TID 0000.0001) %MON vort_p_sd                    =   1.3126588862482E-04
(PID.TID 0000.0001) %MON surfExpan_theta_mean         =   8.4306424490921E-05
(PID.TID 0000.0001) %MON surfExpan_salt_mean          =   6.7146143343749E-06
(PID.TID 0000.0001) // =======================================================
(PID.TID 0000.0001) // End MONITOR dynamic field statistics
(PID.TID 0000.0001) // =======================================================
(PID.TID 0000.0001) EXF_SET_FLD: processing field "climsst",  file: lev_sst.bin
(PID.TID 0000.0001) EXF_SET_FLD:   myIter, count0, count1:         2     12      1
(PID.TID 0000.0001) EXF_SET_FLD:   first, changed, fac:   F   F    0.46666666666666667
(PID.TID 0000.0001) EXF_SET_FLD: processing field "climsss",  file: lev_sss.bin
(PID.TID 0000.0001) EXF_SET_FLD:   myIter, count0, count1:         2     12      1
(PID.TID 0000.0001) EXF_SET_FLD:   first, changed, fac:   F   F    0.46666666666666667
(PID.TID 0000.0001) EXF_SET_FLD: processing field "ustress",  file: trenberth_taux.bin
(PID.TID 0000.0001) EXF_SET_FLD:   myIter, count0, count1:         2     12      1
(PID.TID 0000.0001) EXF_SET_FLD:   first, changed, fac:   F   F    0.46666666666666667
(PID.TID 0000.0001) EXF_SET_FLD: processing field "vstress",  file: trenberth_tauy.bin
(PID.TID 0000.0001) EXF_SET_FLD:   myIter, count0, count1:         2     12      1
(PID.TID 0000.0001) EXF_SET_FLD:   first, changed, fac:   F   F    0.46666666666666667
(PID.TID 0000.0001) EXF_SET_FLD: processing field "hflux",  file: ncep_qnet.bin
(PID.TID 0000.0001) EXF_SET_FLD:   myIter, count0, count1:         2     12      1
(PID.TID 0000.0001) EXF_SET_FLD:   first, changed, fac:   F   F    0.46666666666666667
(PID.TID 0000.0001) // =======================================================
(PID.TID 0000.0001) // Begin MONITOR EXF statistics
(PID.TID 0000.0001) // =======================================================
(PID.TID 0000.0001) %MON exf_tsnumber                 =                     2
(PID.TID 0000.0001) %MON exf_time_sec                 =   8.6400000000000E+04
(PID.TID 0000.0001) %MON exf_ustress_max              =   2.7466964684427E-01
(PID.TID 0000.0001) %MON exf_ustress_min              =  -1.5900864973664E-01
(PID.TID 0000.0001) %MON exf_ustress_mean             =   1.5094464201653E-02
(PID.TID 0000.0001) %MON exf_ustress_sd               =   8.8571064614760E-02
(PID.TID 0000.0001) %MON exf_ustress_del2             =   6.6502990349232E-04
(PID.TID 0000.0001) %MON exf_vstress_max              =   2.0480266036466E-01
(PID.TID 0000.0001) %MON exf_vstress_min              =  -1.5578692979179E-01
(PID.TID 0000.0001) %MON exf_vstress_mean             =  -6.4218198820066E-03
(PID.TID 0000.0001) %MON exf_vstress_sd               =   4.4860984558321E-02
(PID.TID 0000.0001) %MON exf_vstress_del2             =   4.2021365946479E-04
(PID.TID 0000.0001) %MON exf_hflux_max                =   4.2693899536133E+02
(PID.TID 0000.0001) %MON exf_hflux_min                =  -1.8655982259115E+02
(PID.TID 0000.0001) %MON exf_hflux_mean               =  -1.6687693382567E+01
(PID.TID 0000.0001) %MON exf_hflux_sd                 =   1.1263946608433E+02
(PID.TID 0000.0001) %MON exf_hflux_del2               =   1.2160940423328E+00
(PID.TID 0000.0001) %MON exf_climsst_max              =   2.9545583470662E+01
(PID.TID 0000.0001) %MON exf_climsst_min              =  -1.9000000000000E+00
(PID.TID 0000.0001) %MON exf_climsst_mean             =   1.8372789410019E+01
(PID.TID 0000.0001) %MON exf_climsst_sd               =   9.2083573552507E+00
(PID.TID 0000.0001) %MON exf_climsst_del2             =   2.4237864502998E-02
(PID.TID 0000.0001) %MON exf_climsss_max              =   3.7452916208903E+01
(PID.TID 0000.0001) %MON exf_climsss_min              =   2.9667518742879E+01
(PID.TID 0000.0001) %MON exf_climsss_mean             =   3.4846964740670E+01
(PID.TID 0000.0001) %MON exf_climsss_sd               =   9.6801910870208E-01
(PID.TID 0000.0001) %MON exf_climsss_del2             =   7.0233043940184E-03
(PID.TID 0000.0001) // =======================================================
(PID.TID 0000.0001) // End MONITOR EXF statistics
(PID.TID 0000.0001) // =======================================================
 cg2d: Sum(rhs),rhsMax =   4.01900734914307E-14  6.30278719424527E+00
(PID.TID 0000.0001)      cg2d_init_res =   2.19586419820441E+00
(PID.TID 0000.0001)      cg2d_iters(min,last) =      -1      26
(PID.TID 0000.0001)      cg2d_last_res =   2.87679930794068E-14
(PID.TID 0000.0001) // =======================================================
(PID.TID 0000.0001) // Begin MONITOR dynamic field statistics
(PID.TID 0000.0001) // =======================================================
(PID.TID 0000.0001) %MON time_tsnumber                =                     3
(PID.TID 0000.0001) %MON time_secondsf                =   1.2960000000000E+05
(PID.TID 0000.0001) %MON dynstat_eta_max              =   5.1352125424363E-01
(PID.TID 0000.0001) %MON dynstat_eta_min              =  -3.8372245404965E-01
(PID.TID 0000.0001) %MON dynstat_eta_mean             =  -3.4138227734582E-17
(PID.TID 0000.0001) %MON dynstat_eta_sd               =   9.3230637314876E-02
(PID.TID 0000.0001) %MON dynstat_eta_del2             =   2.8481404935584E-03
(PID.TID 0000.0001) %MON dynstat_uvel_max             =   3.0972129328755E-02
(PID.TID 0000.0001) %MON dynstat_uvel_min             =  -3.0201905232493E-02
(PID.TID 0000.0001) %MON dynstat_uvel_mean            =  -1.5743594330104E-03
(PID.TID 0000.0001) %MON dynstat_uvel_sd              =   3.0396132863841E-03
(PID.TID 0000.0001) %MON dynstat_uvel_del2            =   3.5931411181956E-05
(PID.TID 0000.0001) %MON dynstat_vvel_max             =   4.5126883821735E-02
(PID.TID 0000.0001) %MON dynstat_vvel_min             =  -2.4238219450871E-02
(PID.TID 0000.0001) %MON dynstat_vvel_mean            =   2.5758067264745E-03
(PID.TID 0000.0001) %MON dynstat_vvel_sd              =   8.5723311199968E-03
(PID.TID 0000.0001) %MON dynstat_vvel_del2            =   4.4352293170912E-05
(PID.TID 0000.0001) %MON dynstat_wvel_max             =   1.9630518138136E-04
(PID.TID 0000.0001) %MON dynstat_wvel_min             =  -1.6677745380354E-04
(PID.TID 0000.0001) %MON dynstat_wvel_mean            =   3.0827224355118E-22
(PID.TID 0000.0001) %MON dynstat_wvel_sd              =   2.6777778364739E-05
(PID.TID 0000.0001) %MON dynstat_wvel_del2            =   2.5540070815800E-07
(PID.TID 0000.0001) %MON dynstat_theta_max            =   2.9642009520107E+01
(PID.TID 0000.0001) %MON dynstat_theta_min            =  -1.9090124107952E+00
(PID.TID 0000.0001) %MON dynstat_theta_mean           =   3.6177555542903E+00
(PID.TID 0000.0001) %MON dynstat_theta_sd             =   4.4129140097080E+00
(PID.TID 0000.0001) %MON dynstat_theta_del2           =   5.4244075764491E-03
(PID.TID 0000.0001) %MON dynstat_salt_max             =   3.7460963226207E+01
(PID.TID 0000.0001) %MON dynstat_salt_min             =   2.9759518003036E+01
(PID.TID 0000.0001) %MON dynstat_salt_mean            =   3.4717844958147E+01
(PID.TID 0000.0001) %MON dynstat_salt_sd              =   2.9609987977500E-01
(PID.TID 0000.0001) %MON dynstat_salt_del2            =   1.0192718289583E-03
(PID.TID 0000.0001) %MON forcing_qnet_max             =   4.2693899536133E+02
(PID.TID 0000.0001) %MON forcing_qnet_min             =  -1.8655982259115E+02
(PID.TID 0000.0001) %MON forcing_qnet_mean            =  -1.6687693382567E+01
(PID.TID 0000.0001) %MON forcing_qnet_sd              =   1.1263946608433E+02
(PID.TID 0000.0001) %MON forcing_qnet_del2            =   9.9183674388333E-01
(PID.TID 0000.0001) %MON forcing_qsw_max              =   0.0000000000000E+00
(PID.TID 0000.0001) %MON forcing_qsw_min              =   0.0000000000000E+00
(PID.TID 0000.0001) %MON forcing_qsw_mean             =   0.0000000000000E+00
(PID.TID 0000.0001) %MON forcing_qsw_sd               =   0.0000000000000E+00
(PID.TID 0000.0001) %MON forcing_qsw_del2             =   0.0000000000000E+00
(PID.TID 0000.0001) %MON forcing_empmr_max            =   0.0000000000000E+00
(PID.TID 0000.0001) %MON forcing_empmr_min            =   0.0000000000000E+00
(PID.TID 0000.0001) %MON forcing_empmr_mean           =   0.0000000000000E+00
(PID.TID 0000.0001) %MON forcing_empmr_sd             =   0.0000000000000E+00
(PID.TID 0000.0001) %MON forcing_empmr_del2           =   0.0000000000000E+00
(PID.TID 0000.0001) %MON forcing_fu_max               =   2.7135250717402E-01
(PID.TID 0000.0001) %MON forcing_fu_min               =  -1.5863699701925E-01
(PID.TID 0000.0001) %MON forcing_fu_mean              =   1.6162271250069E-02
(PID.TID 0000.0001) %MON forcing_fu_sd                =   8.9798034202398E-02
(PID.TID 0000.0001) %MON forcing_fu_del2              =   6.3237408407648E-04
(PID.TID 0000.0001) %MON forcing_fv_max               =   2.0023273401894E-01
(PID.TID 0000.0001) %MON forcing_fv_min               =  -1.5437705859076E-01
(PID.TID 0000.0001) %MON forcing_fv_mean              =  -6.1274707147435E-03
(PID.TID 0000.0001) %MON forcing_fv_sd                =   4.3807747635033E-02
(PID.TID 0000.0001) %MON forcing_fv_del2              =   3.4254228945357E-04
(PID.TID 0000.0001) %MON trAdv_CFL_u_max              =   5.8436125321133E-03
(PID.TID 0000.0001) %MON trAdv_CFL_v_max              =   3.4886322857089E-03
(PID.TID 0000.0001) %MON trAdv_CFL_w_max              =   1.4442123069775E-01
(PID.TID 0000.0001) %MON advcfl_uvel_max              =   5.8964422404603E-03
(PID.TID 0000.0001) %MON advcfl_vvel_max              =   4.3837148891799E-03
(PID.TID 0000.0001) %MON advcfl_wvel_max              =   2.1005698482355E-01
(PID.TID 0000.0001) %MON advcfl_W_hf_max              =   1.0731413764670E-01
(PID.TID 0000.0001) %MON pe_b_mean                    =   1.1122399909378E-05
(PID.TID 0000.0001) %MON ke_max                       =   7.8757103386932E-04
(PID.TID 0000.0001) %MON ke_mean                      =   4.1292819050461E-05
(PID.TID 0000.0001) %MON ke_vol                       =   1.3226782436723E+18
(PID.TID 0000.0001) %MON vort_r_min                   =  -1.5697664621405E-07
(PID.TID 0000.0001) %MON vort_r_max                   =   1.8258140069324E-07
(PID.TID 0000.0001) %MON vort_a_mean                  =  -2.5205769332588E-05
(PID.TID 0000.0001) %MON vort_a_sd                    =   7.3402978978509E-05
(PID.TID 0000.0001) %MON vort_p_mean                  =  -3.1758669480799E-05
(PID.TID 0000.0001) %MON vort_p_sd                    =   1.3126561174344E-04
(PID.TID 0000.0001) %MON surfExpan_theta_mean         =   1.1279081753674E-04
(PID.TID 0000.0001) %MON surfExpan_salt_mean          =   9.3001809615505E-06
(PID.TID 0000.0001) // =======================================================
(PID.TID 0000.0001) // End MONITOR dynamic field statistics
(PID.TID 0000.0001) // =======================================================
(PID.TID 0000.0001) EXF_SET_FLD: processing field "climsst",  file: lev_sst.bin
(PID.TID 0000.0001) EXF_SET_FLD:   myIter, count0, count1:         3     12      1
(PID.TID 0000.0001) EXF_SET_FLD:   first, changed, fac:   F   F    0.45000000000000001
(PID.TID 0000.0001) EXF_SET_FLD: processing field "climsss",  file: lev_sss.bin
(PID.TID 0000.0001) EXF_SET_FLD:   myIter, count0, count1:         3     12      1
(PID.TID 0000.0001) EXF_SET_FLD:   first, changed, fac:   F   F    0.44999999999999996
(PID.TID 0000.0001) EXF_SET_FLD: processing field "ustress",  file: trenberth_taux.bin
(PID.TID 0000.0001) EXF_SET_FLD:   myIter, count0, count1:         3     12      1
(PID.TID 0000.0001) EXF_SET_FLD:   first, changed, fac:   F   F    0.44999999999999996
(PID.TID 0000.0001) EXF_SET_FLD: processing field "vstress",  file: trenberth_tauy.bin
(PID.TID 0000.0001) EXF_SET_FLD:   myIter, count0, count1:         3     12      1
(PID.TID 0000.0001) EXF_SET_FLD:   first, changed, fac:   F   F    0.44999999999999996
(PID.TID 0000.0001) EXF_SET_FLD: processing field "hflux",  file: ncep_qnet.bin
(PID.TID 0000.0001) EXF_SET_FLD:   myIter, count0, count1:         3     12      1
(PID.TID 0000.0001) EXF_SET_FLD:   first, changed, fac:   F   F    0.44999999999999996
(PID.TID 0000.0001) // =======================================================
(PID.TID 0000.0001) // Begin MONITOR EXF statistics
(PID.TID 0000.0001) // =======================================================
(PID.TID 0000.0001) %MON exf_tsnumber                 =                     3
(PID.TID 0000.0001) %MON exf_time_sec                 =   1.2960000000000E+05
(PID.TID 0000.0001) %MON exf_ustress_max              =   2.7448073951527E-01
(PID.TID 0000.0001) %MON exf_ustress_min              =  -1.5931179272011E-01
(PID.TID 0000.0001) %MON exf_ustress_mean             =   1.5091967230968E-02
(PID.TID 0000.0001) %MON exf_ustress_sd               =   8.8568036152275E-02
(PID.TID 0000.0001) %MON exf_ustress_del2             =   6.6570498260122E-04
(PID.TID 0000.0001) %MON exf_vstress_max              =   2.0550655925181E-01
(PID.TID 0000.0001) %MON exf_vstress_min              =  -1.5600434100488E-01
(PID.TID 0000.0001) %MON exf_vstress_mean             =  -6.3878906412123E-03
(PID.TID 0000.0001) %MON exf_vstress_sd               =   4.4915929180196E-02
(PID.TID 0000.0001) %MON exf_vstress_del2             =   4.2015742970951E-04
(PID.TID 0000.0001) %MON exf_hflux_max                =   4.2746308898926E+02
(PID.TID 0000.0001) %MON exf_hflux_min                =  -1.8632624130249E+02
(PID.TID 0000.0001) %MON exf_hflux_mean               =  -1.6681437404655E+01
(PID.TID 0000.0001) %MON exf_hflux_sd                 =   1.1253182025932E+02
(PID.TID 0000.0001) %MON exf_hflux_del2               =   1.2163991920046E+00
(PID.TID 0000.0001) %MON exf_climsst_max              =   2.9537556266785E+01
(PID.TID 0000.0001) %MON exf_climsst_min              =  -1.9000000000000E+00
(PID.TID 0000.0001) %MON exf_climsst_mean             =   1.8376777308393E+01
(PID.TID 0000.0001) %MON exf_climsst_sd               =   9.2064836015516E+00
(PID.TID 0000.0001) %MON exf_climsst_del2             =   2.4219456357172E-02
(PID.TID 0000.0001) %MON exf_climsss_max              =   3.7453727340698E+01
(PID.TID 0000.0001) %MON exf_climsss_min              =   2.9670563411713E+01
(PID.TID 0000.0001) %MON exf_climsss_mean             =   3.4847070474047E+01
(PID.TID 0000.0001) %MON exf_climsss_sd               =   9.6755438961576E-01
(PID.TID 0000.0001) %MON exf_climsss_del2             =   7.0221574069968E-03
(PID.TID 0000.0001) // =======================================================
(PID.TID 0000.0001) // End MONITOR EXF statistics
(PID.TID 0000.0001) // =======================================================
 cg2d: Sum(rhs),rhsMax =   7.74380559676047E-14  6.73016682746031E+00
(PID.TID 0000.0001)      cg2d_init_res =   1.88474392595437E+00
(PID.TID 0000.0001)      cg2d_iters(min,last) =      -1      26
(PID.TID 0000.0001)      cg2d_last_res =   2.57585527206616E-14
(PID.TID 0000.0001) // =======================================================
(PID.TID 0000.0001) // Begin MONITOR dynamic field statistics
(PID.TID 0000.0001) // =======================================================
(PID.TID 0000.0001) %MON time_tsnumber                =                     4
(PID.TID 0000.0001) %MON time_secondsf                =   1.7280000000000E+05
(PID.TID 0000.0001) %MON dynstat_eta_max              =   5.8980048598061E-01
(PID.TID 0000.0001) %MON dynstat_eta_min              =  -4.9950439218273E-01
(PID.TID 0000.0001) %MON dynstat_eta_mean             =  -4.0074387956202E-17
(PID.TID 0000.0001) %MON dynstat_eta_sd               =   1.2310610507538E-01
(PID.TID 0000.0001) %MON dynstat_eta_del2             =   2.9680051796770E-03
(PID.TID 0000.0001) %MON dynstat_uvel_max             =   4.3075926478291E-02
(PID.TID 0000.0001) %MON dynstat_uvel_min             =  -4.2449588404543E-02
(PID.TID 0000.0001) %MON dynstat_uvel_mean            =  -2.3646680620849E-03
(PID.TID 0000.0001) %MON dynstat_uvel_sd              =   4.0716868304469E-03
(PID.TID 0000.0001) %MON dynstat_uvel_del2            =   4.7715335305341E-05
(PID.TID 0000.0001) %MON dynstat_vvel_max             =   5.2408735500393E-02
(PID.TID 0000.0001) %MON dynstat_vvel_min             =  -3.5549110609664E-02
(PID.TID 0000.0001) %MON dynstat_vvel_mean            =   3.2658123305570E-03
(PID.TID 0000.0001) %MON dynstat_vvel_sd              =   1.0459973540051E-02
(PID.TID 0000.0001) %MON dynstat_vvel_del2            =   6.0132831586746E-05
(PID.TID 0000.0001) %MON dynstat_wvel_max             =   1.9964564754987E-04
(PID.TID 0000.0001) %MON dynstat_wvel_min             =  -2.0013947459674E-04
(PID.TID 0000.0001) %MON dynstat_wvel_mean            =   8.3380302065272E-22
(PID.TID 0000.0001) %MON dynstat_wvel_sd              =   2.8360385890361E-05
(PID.TID 0000.0001) %MON dynstat_wvel_del2            =   2.5281108085911E-07
(PID.TID 0000.0001) %MON dynstat_theta_max            =   2.9646242435770E+01
(PID.TID 0000.0001) %MON dynstat_theta_min            =  -1.9213627319594E+00
(PID.TID 0000.0001) %MON dynstat_theta_mean           =   3.6163247037201E+00
(PID.TID 0000.0001) %MON dynstat_theta_sd             =   4.4099708848084E+00
(PID.TID 0000.0001) %MON dynstat_theta_del2           =   5.3813688974688E-03
(PID.TID 0000.0001) %MON dynstat_salt_max             =   3.7457240973095E+01
(PID.TID 0000.0001) %MON dynstat_salt_min             =   2.9762729524531E+01
(PID.TID 0000.0001) %MON dynstat_salt_mean            =   3.4717722587652E+01
(PID.TID 0000.0001) %MON dynstat_salt_sd              =   2.9611561783496E-01
(PID.TID 0000.0001) %MON dynstat_salt_del2            =   1.0176960532931E-03
(PID.TID 0000.0001) %MON forcing_qnet_max             =   4.2746308898926E+02
(PID.TID 0000.0001) %MON forcing_qnet_min             =  -1.8632624130249E+02
(PID.TID 0000.0001) %MON forcing_qnet_mean            =  -1.6681437404655E+01
(PID.TID 0000.0001) %MON forcing_qnet_sd              =   1.1253182025932E+02
(PID.TID 0000.0001) %MON forcing_qnet_del2            =   9.9242224579849E-01
(PID.TID 0000.0001) %MON forcing_qsw_max              =   0.0000000000000E+00
(PID.TID 0000.0001) %MON forcing_qsw_min              =   0.0000000000000E+00
(PID.TID 0000.0001) %MON forcing_qsw_mean             =   0.0000000000000E+00
(PID.TID 0000.0001) %MON forcing_qsw_sd               =   0.0000000000000E+00
(PID.TID 0000.0001) %MON forcing_qsw_del2             =   0.0000000000000E+00
(PID.TID 0000.0001) %MON forcing_empmr_max            =   0.0000000000000E+00
(PID.TID 0000.0001) %MON forcing_empmr_min            =   0.0000000000000E+00
(PID.TID 0000.0001) %MON forcing_empmr_mean           =   0.0000000000000E+00
(PID.TID 0000.0001) %MON forcing_empmr_sd             =   0.0000000000000E+00
(PID.TID 0000.0001) %MON forcing_empmr_del2           =   0.0000000000000E+00
(PID.TID 0000.0001) %MON forcing_fu_max               =   2.7079343390651E-01
(PID.TID 0000.0001) %MON forcing_fu_min               =  -1.5885707996786E-01
(PID.TID 0000.0001) %MON forcing_fu_mean              =   1.6158176360629E-02
(PID.TID 0000.0001) %MON forcing_fu_sd                =   8.9794623183419E-02
(PID.TID 0000.0001) %MON forcing_fu_del2              =   6.3316887975205E-04
(PID.TID 0000.0001) %MON forcing_fv_max               =   2.0061830007471E-01
(PID.TID 0000.0001) %MON forcing_fv_min               =  -1.5495387074188E-01
(PID.TID 0000.0001) %MON forcing_fv_mean              =  -6.0918697939808E-03
(PID.TID 0000.0001) %MON forcing_fv_sd                =   4.3865466667209E-02
(PID.TID 0000.0001) %MON forcing_fv_del2              =   3.4275868585632E-04
(PID.TID 0000.0001) %MON trAdv_CFL_u_max              =   8.0010324413791E-03
(PID.TID 0000.0001) %MON trAdv_CFL_v_max              =   4.6268182862930E-03
(PID.TID 0000.0001) %MON trAdv_CFL_w_max              =   1.0731413764670E-01
(PID.TID 0000.0001) %MON advcfl_uvel_max              =   9.0173167133251E-03
(PID.TID 0000.0001) %MON advcfl_vvel_max              =   5.0910883863315E-03
(PID.TID 0000.0001) %MON advcfl_wvel_max              =   2.3738574229228E-01
(PID.TID 0000.0001) %MON advcfl_W_hf_max              =   1.1887723876349E-01
(PID.TID 0000.0001) %MON pe_b_mean                    =   1.9392793908875E-05
(PID.TID 0000.0001) %MON ke_max                       =   1.2072193833247E-03
(PID.TID 0000.0001) %MON ke_mean                      =   6.3979937274443E-05
(PID.TID 0000.0001) %MON ke_vol                       =   1.3226782436723E+18
(PID.TID 0000.0001) %MON vort_r_min                   =  -2.0451133414484E-07
(PID.TID 0000.0001) %MON vort_r_max                   =   2.3020702874194E-07
(PID.TID 0000.0001) %MON vort_a_mean                  =  -2.5205769332359E-05
(PID.TID 0000.0001) %MON vort_a_sd                    =   7.3402826588646E-05
(PID.TID 0000.0001) %MON vort_p_mean                  =  -3.1758669480510E-05
(PID.TID 0000.0001) %MON vort_p_sd                    =   1.3126524947641E-04
(PID.TID 0000.0001) %MON surfExpan_theta_mean         =   1.3423640498466E-04
(PID.TID 0000.0001) %MON surfExpan_salt_mean          =   1.1190639958066E-05
(PID.TID 0000.0001) // =======================================================
(PID.TID 0000.0001) // End MONITOR dynamic field statistics
(PID.TID 0000.0001) // =======================================================
(PID.TID 0000.0001) EXF_SET_FLD: processing field "climsst",  file: lev_sst.bin
(PID.TID 0000.0001) EXF_SET_FLD:   myIter, count0, count1:         4     12      1
(PID.TID 0000.0001) EXF_SET_FLD:   first, changed, fac:   F   F    0.43333333333333335
(PID.TID 0000.0001) EXF_SET_FLD: processing field "climsss",  file: lev_sss.bin
(PID.TID 0000.0001) EXF_SET_FLD:   myIter, count0, count1:         4     12      1
(PID.TID 0000.0001) EXF_SET_FLD:   first, changed, fac:   F   F    0.43333333333333335
(PID.TID 0000.0001) EXF_SET_FLD: processing field "ustress",  file: trenberth_taux.bin
(PID.TID 0000.0001) EXF_SET_FLD:   myIter, count0, count1:         4     12      1
(PID.TID 0000.0001) EXF_SET_FLD:   first, changed, fac:   F   F    0.43333333333333335
(PID.TID 0000.0001) EXF_SET_FLD: processing field "vstress",  file: trenberth_tauy.bin
(PID.TID 0000.0001) EXF_SET_FLD:   myIter, count0, count1:         4     12      1
(PID.TID 0000.0001) EXF_SET_FLD:   first, changed, fac:   F   F    0.43333333333333335
(PID.TID 0000.0001) EXF_SET_FLD: processing field "hflux",  file: ncep_qnet.bin
(PID.TID 0000.0001) EXF_SET_FLD:   myIter, count0, count1:         4     12      1
(PID.TID 0000.0001) EXF_SET_FLD:   first, changed, fac:   F   F    0.43333333333333335
(PID.TID 0000.0001) // =======================================================
(PID.TID 0000.0001) // Begin MONITOR EXF statistics
(PID.TID 0000.0001) // =======================================================
(PID.TID 0000.0001) %MON exf_tsnumber                 =                     4
(PID.TID 0000.0001) %MON exf_time_sec                 =   1.7280000000000E+05
(PID.TID 0000.0001) %MON exf_ustress_max              =   2.7429183218628E-01
(PID.TID 0000.0001) %MON exf_ustress_min              =  -1.5961493570358E-01
(PID.TID 0000.0001) %MON exf_ustress_mean             =   1.5089470260283E-02
(PID.TID 0000.0001) %MON exf_ustress_sd               =   8.8567670298546E-02
(PID.TID 0000.0001) %MON exf_ustress_del2             =   6.6649982677104E-04
(PID.TID 0000.0001) %MON exf_vstress_max              =   2.0621045813896E-01
(PID.TID 0000.0001) %MON exf_vstress_min              =  -1.5622175221797E-01
(PID.TID 0000.0001) %MON exf_vstress_mean             =  -6.3539614004179E-03
(PID.TID 0000.0001) %MON exf_vstress_sd               =   4.4974562798756E-02
(PID.TID 0000.0001) %MON exf_vstress_del2             =   4.2019392056575E-04
(PID.TID 0000.0001) %MON exf_hflux_max                =   4.2798718261719E+02
(PID.TID 0000.0001) %MON exf_hflux_min                =  -1.8609266001383E+02
(PID.TID 0000.0001) %MON exf_hflux_mean               =  -1.6675181426744E+01
(PID.TID 0000.0001) %MON exf_hflux_sd                 =   1.1242481361476E+02
(PID.TID 0000.0001) %MON exf_hflux_del2               =   1.2167417445936E+00
(PID.TID 0000.0001) %MON exf_climsst_max              =   2.9529529062907E+01
(PID.TID 0000.0001) %MON exf_climsst_min              =  -1.9000000000000E+00
(PID.TID 0000.0001) %MON exf_climsst_mean             =   1.8380765206768E+01
(PID.TID 0000.0001) %MON exf_climsst_sd               =   9.2046741525532E+00
(PID.TID 0000.0001) %MON exf_climsst_del2             =   2.4210771307775E-02
(PID.TID 0000.0001) %MON exf_climsss_max              =   3.7454538472493E+01
(PID.TID 0000.0001) %MON exf_climsss_min              =   2.9673608080546E+01
(PID.TID 0000.0001) %MON exf_climsss_mean             =   3.4847176207423E+01
(PID.TID 0000.0001) %MON exf_climsss_sd               =   9.6711182292509E-01
(PID.TID 0000.0001) %MON exf_climsss_del2             =   7.0240073074608E-03
(PID.TID 0000.0001) // =======================================================
(PID.TID 0000.0001) // End MONITOR EXF statistics
(PID.TID 0000.0001) // =======================================================
 cg2d: Sum(rhs),rhsMax =   8.27671264858054E-14  6.87319601341480E+00
(PID.TID 0000.0001)      cg2d_init_res =   1.77803452227174E+00
(PID.TID 0000.0001)      cg2d_iters(min,last) =      -1      26
(PID.TID 0000.0001)      cg2d_last_res =   2.65364133423607E-14
(PID.TID 0000.0001) // =======================================================
(PID.TID 0000.0001) // Begin MONITOR dynamic field statistics
(PID.TID 0000.0001) // =======================================================
(PID.TID 0000.0001) %MON time_tsnumber                =                     5
(PID.TID 0000.0001) %MON time_secondsf                =   2.1600000000000E+05
(PID.TID 0000.0001) %MON dynstat_eta_max              =   6.3427669160783E-01
(PID.TID 0000.0001) %MON dynstat_eta_min              =  -5.7829941781495E-01
(PID.TID 0000.0001) %MON dynstat_eta_mean             =  -2.3772942007916E-17
(PID.TID 0000.0001) %MON dynstat_eta_sd               =   1.5136817303618E-01
(PID.TID 0000.0001) %MON dynstat_eta_del2             =   2.8940838661280E-03
(PID.TID 0000.0001) %MON dynstat_uvel_max             =   5.4944855092544E-02
(PID.TID 0000.0001) %MON dynstat_uvel_min             =  -5.2651915695019E-02
(PID.TID 0000.0001) %MON dynstat_uvel_mean            =  -3.2365915001332E-03
(PID.TID 0000.0001) %MON dynstat_uvel_sd              =   5.2142977570562E-03
(PID.TID 0000.0001) %MON dynstat_uvel_del2            =   5.7798482545102E-05
(PID.TID 0000.0001) %MON dynstat_vvel_max             =   5.6699038107957E-02
(PID.TID 0000.0001) %MON dynstat_vvel_min             =  -4.6210045963403E-02
(PID.TID 0000.0001) %MON dynstat_vvel_mean            =   3.8456503038351E-03
(PID.TID 0000.0001) %MON dynstat_vvel_sd              =   1.1979374128560E-02
(PID.TID 0000.0001) %MON dynstat_vvel_del2            =   7.3996747494475E-05
(PID.TID 0000.0001) %MON dynstat_wvel_max             =   2.2550414945650E-04
(PID.TID 0000.0001) %MON dynstat_wvel_min             =  -2.3040610707891E-04
(PID.TID 0000.0001) %MON dynstat_wvel_mean            =  -3.5231113548706E-22
(PID.TID 0000.0001) %MON dynstat_wvel_sd              =   2.9942220091021E-05
(PID.TID 0000.0001) %MON dynstat_wvel_del2            =   2.7838265438736E-07
(PID.TID 0000.0001) %MON dynstat_theta_max            =   2.9675860085405E+01
(PID.TID 0000.0001) %MON dynstat_theta_min            =  -1.9436949396242E+00
(PID.TID 0000.0001) %MON dynstat_theta_mean           =   3.6147001175998E+00
(PID.TID 0000.0001) %MON dynstat_theta_sd             =   4.4066214317319E+00
(PID.TID 0000.0001) %MON dynstat_theta_del2           =   5.3646134508201E-03
(PID.TID 0000.0001) %MON dynstat_salt_max             =   3.7453468561880E+01
(PID.TID 0000.0001) %MON dynstat_salt_min             =   2.9766124927368E+01
(PID.TID 0000.0001) %MON dynstat_salt_mean            =   3.4717583621054E+01
(PID.TID 0000.0001) %MON dynstat_salt_sd              =   2.9613789278359E-01
(PID.TID 0000.0001) %MON dynstat_salt_del2            =   1.0160136204082E-03
(PID.TID 0000.0001) %MON forcing_qnet_max             =   4.2798718261719E+02
(PID.TID 0000.0001) %MON forcing_qnet_min             =  -1.8609266001383E+02
(PID.TID 0000.0001) %MON forcing_qnet_mean            =  -1.6675181426744E+01
(PID.TID 0000.0001) %MON forcing_qnet_sd              =   1.1242481361476E+02
(PID.TID 0000.0001) %MON forcing_qnet_del2            =   9.9305199082959E-01
(PID.TID 0000.0001) %MON forcing_qsw_max              =   0.0000000000000E+00
(PID.TID 0000.0001) %MON forcing_qsw_min              =   0.0000000000000E+00
(PID.TID 0000.0001) %MON forcing_qsw_mean             =   0.0000000000000E+00
(PID.TID 0000.0001) %MON forcing_qsw_sd               =   0.0000000000000E+00
(PID.TID 0000.0001) %MON forcing_qsw_del2             =   0.0000000000000E+00
(PID.TID 0000.0001) %MON forcing_empmr_max            =   0.0000000000000E+00
(PID.TID 0000.0001) %MON forcing_empmr_min            =   0.0000000000000E+00
(PID.TID 0000.0001) %MON forcing_empmr_mean           =   0.0000000000000E+00
(PID.TID 0000.0001) %MON forcing_empmr_sd             =   0.0000000000000E+00
(PID.TID 0000.0001) %MON forcing_empmr_del2           =   0.0000000000000E+00
(PID.TID 0000.0001) %MON forcing_fu_max               =   2.7024973186975E-01
(PID.TID 0000.0001) %MON forcing_fu_min               =  -1.5907716291646E-01
(PID.TID 0000.0001) %MON forcing_fu_mean              =   1.6154081471189E-02
(PID.TID 0000.0001) %MON forcing_fu_sd                =   8.9793847368410E-02
(PID.TID 0000.0001) %MON forcing_fu_del2              =   6.3407811135163E-04
(PID.TID 0000.0001) %MON forcing_fv_max               =   2.0100386613049E-01
(PID.TID 0000.0001) %MON forcing_fv_min               =  -1.5553068289300E-01
(PID.TID 0000.0001) %MON forcing_fv_mean              =  -6.0562688732180E-03
(PID.TID 0000.0001) %MON forcing_fv_sd                =   4.3926709524156E-02
(PID.TID 0000.0001) %MON forcing_fv_del2              =   3.4305750494291E-04
(PID.TID 0000.0001) %MON trAdv_CFL_u_max              =   9.6499065973569E-03
(PID.TID 0000.0001) %MON trAdv_CFL_v_max              =   6.6185800357763E-03
(PID.TID 0000.0001) %MON trAdv_CFL_w_max              =   1.1869287114614E-01
(PID.TID 0000.0001) %MON advcfl_uvel_max              =   1.1571688263566E-02
(PID.TID 0000.0001) %MON advcfl_vvel_max              =   5.5078568805656E-03
(PID.TID 0000.0001) %MON advcfl_wvel_max              =   2.4517872538497E-01
(PID.TID 0000.0001) %MON advcfl_W_hf_max              =   1.2451101567856E-01
(PID.TID 0000.0001) %MON pe_b_mean                    =   2.9319079999986E-05
(PID.TID 0000.0001) %MON ke_max                       =   1.6829252834271E-03
(PID.TID 0000.0001) %MON ke_mean                      =   8.8176828406711E-05
(PID.TID 0000.0001) %MON ke_vol                       =   1.3226782436723E+18
(PID.TID 0000.0001) %MON vort_r_min                   =  -2.4557072926468E-07
(PID.TID 0000.0001) %MON vort_r_max                   =   2.6974984674650E-07
(PID.TID 0000.0001) %MON vort_a_mean                  =  -2.5205769327895E-05
(PID.TID 0000.0001) %MON vort_a_sd                    =   7.3402660982091E-05
(PID.TID 0000.0001) %MON vort_p_mean                  =  -3.1758669474884E-05
(PID.TID 0000.0001) %MON vort_p_sd                    =   1.3126480835218E-04
(PID.TID 0000.0001) %MON surfExpan_theta_mean         =   1.4955677001823E-04
(PID.TID 0000.0001) %MON surfExpan_salt_mean          =   1.2439755279781E-05
(PID.TID 0000.0001) // =======================================================
(PID.TID 0000.0001) // End MONITOR dynamic field statistics
(PID.TID 0000.0001) // =======================================================
(PID.TID 0000.0001) EXF_SET_FLD: processing field "climsst",  file: lev_sst.bin
(PID.TID 0000.0001) EXF_SET_FLD:   myIter, count0, count1:         5     12      1
(PID.TID 0000.0001) EXF_SET_FLD:   first, changed, fac:   F   F    0.41666666666666669
(PID.TID 0000.0001) EXF_SET_FLD: processing field "climsss",  file: lev_sss.bin
(PID.TID 0000.0001) EXF_SET_FLD:   myIter, count0, count1:         5     12      1
(PID.TID 0000.0001) EXF_SET_FLD:   first, changed, fac:   F   F    0.41666666666666663
(PID.TID 0000.0001) EXF_SET_FLD: processing field "ustress",  file: trenberth_taux.bin
(PID.TID 0000.0001) EXF_SET_FLD:   myIter, count0, count1:         5     12      1
(PID.TID 0000.0001) EXF_SET_FLD:   first, changed, fac:   F   F    0.41666666666666663
(PID.TID 0000.0001) EXF_SET_FLD: processing field "vstress",  file: trenberth_tauy.bin
(PID.TID 0000.0001) EXF_SET_FLD:   myIter, count0, count1:         5     12      1
(PID.TID 0000.0001) EXF_SET_FLD:   first, changed, fac:   F   F    0.41666666666666663
(PID.TID 0000.0001) EXF_SET_FLD: processing field "hflux",  file: ncep_qnet.bin
(PID.TID 0000.0001) EXF_SET_FLD:   myIter, count0, count1:         5     12      1
(PID.TID 0000.0001) EXF_SET_FLD:   first, changed, fac:   F   F    0.41666666666666663
(PID.TID 0000.0001) // =======================================================
(PID.TID 0000.0001) // Begin MONITOR EXF statistics
(PID.TID 0000.0001) // =======================================================
(PID.TID 0000.0001) %MON exf_tsnumber                 =                     5
(PID.TID 0000.0001) %MON exf_time_sec                 =   2.1600000000000E+05
(PID.TID 0000.0001) %MON exf_ustress_max              =   2.7410292485729E-01
(PID.TID 0000.0001) %MON exf_ustress_min              =  -1.5991807868704E-01
(PID.TID 0000.0001) %MON exf_ustress_mean             =   1.5086973289598E-02
(PID.TID 0000.0001) %MON exf_ustress_sd               =   8.8569967086567E-02
(PID.TID 0000.0001) %MON exf_ustress_del2             =   6.6741400810609E-04
(PID.TID 0000.0001) %MON exf_vstress_max              =   2.0691435702611E-01
(PID.TID 0000.0001) %MON exf_vstress_min              =  -1.5643916343106E-01
(PID.TID 0000.0001) %MON exf_vstress_mean             =  -6.3200321596235E-03
(PID.TID 0000.0001) %MON exf_vstress_sd               =   4.5036871005859E-02
(PID.TID 0000.0001) %MON exf_vstress_del2             =   4.2032310788455E-04
(PID.TID 0000.0001) %MON exf_hflux_max                =   4.2851127624512E+02
(PID.TID 0000.0001) %MON exf_hflux_min                =  -1.8585907872518E+02
(PID.TID 0000.0001) %MON exf_hflux_mean               =  -1.6668925448832E+01
(PID.TID 0000.0001) %MON exf_hflux_sd                 =   1.1231844797748E+02
(PID.TID 0000.0001) %MON exf_hflux_del2               =   1.2171216685192E+00
(PID.TID 0000.0001) %MON exf_climsst_max              =   2.9521501859029E+01
(PID.TID 0000.0001) %MON exf_climsst_min              =  -1.9000000000000E+00
(PID.TID 0000.0001) %MON exf_climsst_mean             =   1.8384753105142E+01
(PID.TID 0000.0001) %MON exf_climsst_sd               =   9.2029290461858E+00
(PID.TID 0000.0001) %MON exf_climsst_del2             =   2.4211819818159E-02
(PID.TID 0000.0001) %MON exf_climsss_max              =   3.7455349604289E+01
(PID.TID 0000.0001) %MON exf_climsss_min              =   2.9676652749379E+01
(PID.TID 0000.0001) %MON exf_climsss_mean             =   3.4847281940799E+01
(PID.TID 0000.0001) %MON exf_climsss_sd               =   9.6669143905524E-01
(PID.TID 0000.0001) %MON exf_climsss_del2             =   7.0288517291881E-03
(PID.TID 0000.0001) // =======================================================
(PID.TID 0000.0001) // End MONITOR EXF statistics
(PID.TID 0000.0001) // =======================================================
 cg2d: Sum(rhs),rhsMax =   4.31876756579186E-14  6.91595962047158E+00
(PID.TID 0000.0001)      cg2d_init_res =   1.70117761035941E+00
(PID.TID 0000.0001)      cg2d_iters(min,last) =      -1      26
(PID.TID 0000.0001)      cg2d_last_res =   2.70807362509614E-14
(PID.TID 0000.0001) // =======================================================
(PID.TID 0000.0001) // Begin MONITOR dynamic field statistics
(PID.TID 0000.0001) // =======================================================
(PID.TID 0000.0001) %MON time_tsnumber                =                     6
(PID.TID 0000.0001) %MON time_secondsf                =   2.5920000000000E+05
(PID.TID 0000.0001) %MON dynstat_eta_max              =   7.2236597278204E-01
(PID.TID 0000.0001) %MON dynstat_eta_min              =  -6.3890707072392E-01
(PID.TID 0000.0001) %MON dynstat_eta_mean             =   5.8866332591031E-18
(PID.TID 0000.0001) %MON dynstat_eta_sd               =   1.7855663430574E-01
(PID.TID 0000.0001) %MON dynstat_eta_del2             =   2.7704253145937E-03
(PID.TID 0000.0001) %MON dynstat_uvel_max             =   6.6286612547338E-02
(PID.TID 0000.0001) %MON dynstat_uvel_min             =  -6.0891745102623E-02
(PID.TID 0000.0001) %MON dynstat_uvel_mean            =  -4.1580785058276E-03
(PID.TID 0000.0001) %MON dynstat_uvel_sd              =   6.4286939866134E-03
(PID.TID 0000.0001) %MON dynstat_uvel_del2            =   6.6452551935932E-05
(PID.TID 0000.0001) %MON dynstat_vvel_max             =   6.6185820682031E-02
(PID.TID 0000.0001) %MON dynstat_vvel_min             =  -5.6399851600361E-02
(PID.TID 0000.0001) %MON dynstat_vvel_mean            =   4.3051127404099E-03
(PID.TID 0000.0001) %MON dynstat_vvel_sd              =   1.3152832942412E-02
(PID.TID 0000.0001) %MON dynstat_vvel_del2            =   8.5342707566025E-05
(PID.TID 0000.0001) %MON dynstat_wvel_max             =   2.4586920415948E-04
(PID.TID 0000.0001) %MON dynstat_wvel_min             =  -2.5503446120331E-04
(PID.TID 0000.0001) %MON dynstat_wvel_mean            =   7.5159708903907E-22
(PID.TID 0000.0001) %MON dynstat_wvel_sd              =   3.1535950145709E-05
(PID.TID 0000.0001) %MON dynstat_wvel_del2            =   3.1181626320351E-07
(PID.TID 0000.0001) %MON dynstat_theta_max            =   2.9704334457475E+01
(PID.TID 0000.0001) %MON dynstat_theta_min            =  -1.9716485300693E+00
(PID.TID 0000.0001) %MON dynstat_theta_mean           =   3.6129448776910E+00
(PID.TID 0000.0001) %MON dynstat_theta_sd             =   4.4029454977480E+00
(PID.TID 0000.0001) %MON dynstat_theta_del2           =   5.3484741673770E-03
(PID.TID 0000.0001) %MON dynstat_salt_max             =   3.7449692893420E+01
(PID.TID 0000.0001) %MON dynstat_salt_min             =   2.9769566430588E+01
(PID.TID 0000.0001) %MON dynstat_salt_mean            =   3.4717434930024E+01
(PID.TID 0000.0001) %MON dynstat_salt_sd              =   2.9615558034353E-01
(PID.TID 0000.0001) %MON dynstat_salt_del2            =   1.0144520003764E-03
(PID.TID 0000.0001) %MON forcing_qnet_max             =   4.2851127624512E+02
(PID.TID 0000.0001) %MON forcing_qnet_min             =  -1.8585907872518E+02
(PID.TID 0000.0001) %MON forcing_qnet_mean            =  -1.6668925448832E+01
(PID.TID 0000.0001) %MON forcing_qnet_sd              =   1.1231844797748E+02
(PID.TID 0000.0001) %MON forcing_qnet_del2            =   9.9372589486325E-01
(PID.TID 0000.0001) %MON forcing_qsw_max              =   0.0000000000000E+00
(PID.TID 0000.0001) %MON forcing_qsw_min              =   0.0000000000000E+00
(PID.TID 0000.0001) %MON forcing_qsw_mean             =   0.0000000000000E+00
(PID.TID 0000.0001) %MON forcing_qsw_sd               =   0.0000000000000E+00
(PID.TID 0000.0001) %MON forcing_qsw_del2             =   0.0000000000000E+00
(PID.TID 0000.0001) %MON forcing_empmr_max            =   0.0000000000000E+00
(PID.TID 0000.0001) %MON forcing_empmr_min            =   0.0000000000000E+00
(PID.TID 0000.0001) %MON forcing_empmr_mean           =   0.0000000000000E+00
(PID.TID 0000.0001) %MON forcing_empmr_sd             =   0.0000000000000E+00
(PID.TID 0000.0001) %MON forcing_empmr_del2           =   0.0000000000000E+00
(PID.TID 0000.0001) %MON forcing_fu_max               =   2.6970602983298E-01
(PID.TID 0000.0001) %MON forcing_fu_min               =  -1.5929724586507E-01
(PID.TID 0000.0001) %MON forcing_fu_mean              =   1.6149986581749E-02
(PID.TID 0000.0001) %MON forcing_fu_sd                =   8.9795706825673E-02
(PID.TID 0000.0001) %MON forcing_fu_del2              =   6.3510128738486E-04
(PID.TID 0000.0001) %MON forcing_fv_max               =   2.0153350598412E-01
(PID.TID 0000.0001) %MON forcing_fv_min               =  -1.5610749504413E-01
(PID.TID 0000.0001) %MON forcing_fv_mean              =  -6.0206679524553E-03
(PID.TID 0000.0001) %MON forcing_fv_sd                =   4.3991461488764E-02
(PID.TID 0000.0001) %MON forcing_fv_del2              =   3.4343853157036E-04
(PID.TID 0000.0001) %MON trAdv_CFL_u_max              =   1.1574038556214E-02
(PID.TID 0000.0001) %MON trAdv_CFL_v_max              =   8.6560375187859E-03
(PID.TID 0000.0001) %MON trAdv_CFL_w_max              =   1.2258936269249E-01
(PID.TID 0000.0001) %MON advcfl_uvel_max              =   1.4161162386337E-02
(PID.TID 0000.0001) %MON advcfl_vvel_max              =   6.4294217327869E-03
(PID.TID 0000.0001) %MON advcfl_wvel_max              =   2.1004692801561E-01
(PID.TID 0000.0001) %MON advcfl_W_hf_max              =   1.0934892537434E-01
(PID.TID 0000.0001) %MON pe_b_mean                    =   4.0797465366617E-05
(PID.TID 0000.0001) %MON ke_max                       =   2.2179639372981E-03
(PID.TID 0000.0001) %MON ke_mean                      =   1.1261758618333E-04
(PID.TID 0000.0001) %MON ke_vol                       =   1.3226782436723E+18
(PID.TID 0000.0001) %MON vort_r_min                   =  -2.7834749822398E-07
(PID.TID 0000.0001) %MON vort_r_max                   =   3.0113057833241E-07
(PID.TID 0000.0001) %MON vort_a_mean                  =  -2.5205769341540E-05
(PID.TID 0000.0001) %MON vort_a_sd                    =   7.3402487216966E-05
(PID.TID 0000.0001) %MON vort_p_mean                  =  -3.1758669492078E-05
(PID.TID 0000.0001) %MON vort_p_sd                    =   1.3126430374925E-04
(PID.TID 0000.0001) %MON surfExpan_theta_mean         =   1.5940202070406E-04
(PID.TID 0000.0001) %MON surfExpan_salt_mean          =   1.3146214573976E-05
(PID.TID 0000.0001) // =======================================================
(PID.TID 0000.0001) // End MONITOR dynamic field statistics
(PID.TID 0000.0001) // =======================================================
(PID.TID 0000.0001) EXF_SET_FLD: processing field "climsst",  file: lev_sst.bin
(PID.TID 0000.0001) EXF_SET_FLD:   myIter, count0, count1:         6     12      1
(PID.TID 0000.0001) EXF_SET_FLD:   first, changed, fac:   F   F    0.40000000000000002
(PID.TID 0000.0001) EXF_SET_FLD: processing field "climsss",  file: lev_sss.bin
(PID.TID 0000.0001) EXF_SET_FLD:   myIter, count0, count1:         6     12      1
(PID.TID 0000.0001) EXF_SET_FLD:   first, changed, fac:   F   F    0.40000000000000002
(PID.TID 0000.0001) EXF_SET_FLD: processing field "ustress",  file: trenberth_taux.bin
(PID.TID 0000.0001) EXF_SET_FLD:   myIter, count0, count1:         6     12      1
(PID.TID 0000.0001) EXF_SET_FLD:   first, changed, fac:   F   F    0.40000000000000002
(PID.TID 0000.0001) EXF_SET_FLD: processing field "vstress",  file: trenberth_tauy.bin
(PID.TID 0000.0001) EXF_SET_FLD:   myIter, count0, count1:         6     12      1
(PID.TID 0000.0001) EXF_SET_FLD:   first, changed, fac:   F   F    0.40000000000000002
(PID.TID 0000.0001) EXF_SET_FLD: processing field "hflux",  file: ncep_qnet.bin
(PID.TID 0000.0001) EXF_SET_FLD:   myIter, count0, count1:         6     12      1
(PID.TID 0000.0001) EXF_SET_FLD:   first, changed, fac:   F   F    0.40000000000000002
(PID.TID 0000.0001) // =======================================================
(PID.TID 0000.0001) // Begin MONITOR EXF statistics
(PID.TID 0000.0001) // =======================================================
(PID.TID 0000.0001) %MON exf_tsnumber                 =                     6
(PID.TID 0000.0001) %MON exf_time_sec                 =   2.5920000000000E+05
(PID.TID 0000.0001) %MON exf_ustress_max              =   2.7391401752830E-01
(PID.TID 0000.0001) %MON exf_ustress_min              =  -1.6022122167051E-01
(PID.TID 0000.0001) %MON exf_ustress_mean             =   1.5084476318913E-02
(PID.TID 0000.0001) %MON exf_ustress_sd               =   8.8574926309209E-02
(PID.TID 0000.0001) %MON exf_ustress_del2             =   6.6844703698297E-04
(PID.TID 0000.0001) %MON exf_vstress_max              =   2.0761825591326E-01
(PID.TID 0000.0001) %MON exf_vstress_min              =  -1.5671203974634E-01
(PID.TID 0000.0001) %MON exf_vstress_mean             =  -6.2861029188292E-03
(PID.TID 0000.0001) %MON exf_vstress_sd               =   4.5102838572511E-02
(PID.TID 0000.0001) %MON exf_vstress_del2             =   4.2054490623955E-04
(PID.TID 0000.0001) %MON exf_hflux_max                =   4.2903536987305E+02
(PID.TID 0000.0001) %MON exf_hflux_min                =  -1.8562549743652E+02
(PID.TID 0000.0001) %MON exf_hflux_mean               =  -1.6662669470921E+01
(PID.TID 0000.0001) %MON exf_hflux_sd                 =   1.1221272517031E+02
(PID.TID 0000.0001) %MON exf_hflux_del2               =   1.2175389287970E+00
(PID.TID 0000.0001) %MON exf_climsst_max              =   2.9513474655151E+01
(PID.TID 0000.0001) %MON exf_climsst_min              =  -1.9000000000000E+00
(PID.TID 0000.0001) %MON exf_climsst_mean             =   1.8388741003516E+01
(PID.TID 0000.0001) %MON exf_climsst_sd               =   9.2012483190589E+00
(PID.TID 0000.0001) %MON exf_climsst_del2             =   2.4222600624329E-02
(PID.TID 0000.0001) %MON exf_climsss_max              =   3.7456160736084E+01
(PID.TID 0000.0001) %MON exf_climsss_min              =   2.9679697418213E+01
(PID.TID 0000.0001) %MON exf_climsss_mean             =   3.4847387674176E+01
(PID.TID 0000.0001) %MON exf_climsss_sd               =   9.6629326695796E-01
(PID.TID 0000.0001) %MON exf_climsss_del2             =   7.0366844874259E-03
(PID.TID 0000.0001) // =======================================================
(PID.TID 0000.0001) // End MONITOR EXF statistics
(PID.TID 0000.0001) // =======================================================
 cg2d: Sum(rhs),rhsMax =  -1.44328993201270E-14  7.18443119271741E+00
(PID.TID 0000.0001)      cg2d_init_res =   1.57126292484380E+00
(PID.TID 0000.0001)      cg2d_iters(min,last) =      -1      26
(PID.TID 0000.0001)      cg2d_last_res =   2.55176229424709E-14
(PID.TID 0000.0001) // =======================================================
(PID.TID 0000.0001) // Begin MONITOR dynamic field statistics
(PID.TID 0000.0001) // =======================================================
(PID.TID 0000.0001) %MON time_tsnumber                =                     7
(PID.TID 0000.0001) %MON time_secondsf                =   3.0240000000000E+05
(PID.TID 0000.0001) %MON dynstat_eta_max              =   8.2381236613732E-01
(PID.TID 0000.0001) %MON dynstat_eta_min              =  -6.9140723762611E-01
(PID.TID 0000.0001) %MON dynstat_eta_mean             =   2.0716420892613E-17
(PID.TID 0000.0001) %MON dynstat_eta_sd               =   2.0470932727567E-01
(PID.TID 0000.0001) %MON dynstat_eta_del2             =   2.6567824960813E-03
(PID.TID 0000.0001) %MON dynstat_uvel_max             =   7.6935960025074E-02
(PID.TID 0000.0001) %MON dynstat_uvel_min             =  -7.3255177460793E-02
(PID.TID 0000.0001) %MON dynstat_uvel_mean            =  -5.0969699117003E-03
(PID.TID 0000.0001) %MON dynstat_uvel_sd              =   7.6797725158881E-03
(PID.TID 0000.0001) %MON dynstat_uvel_del2            =   7.3993308385618E-05
(PID.TID 0000.0001) %MON dynstat_vvel_max             =   7.4977514143190E-02
(PID.TID 0000.0001) %MON dynstat_vvel_min             =  -6.6239158502072E-02
(PID.TID 0000.0001) %MON dynstat_vvel_mean            =   4.6385455737064E-03
(PID.TID 0000.0001) %MON dynstat_vvel_sd              =   1.4004049707592E-02
(PID.TID 0000.0001) %MON dynstat_vvel_del2            =   9.4390505305774E-05
(PID.TID 0000.0001) %MON dynstat_wvel_max             =   2.6085225299195E-04
(PID.TID 0000.0001) %MON dynstat_wvel_min             =  -2.7350307014957E-04
(PID.TID 0000.0001) %MON dynstat_wvel_mean            =   3.9928595355201E-22
(PID.TID 0000.0001) %MON dynstat_wvel_sd              =   3.2979494623131E-05
(PID.TID 0000.0001) %MON dynstat_wvel_del2            =   3.4166680209748E-07
(PID.TID 0000.0001) %MON dynstat_theta_max            =   2.9714442857515E+01
(PID.TID 0000.0001) %MON dynstat_theta_min            =  -2.0031620946959E+00
(PID.TID 0000.0001) %MON dynstat_theta_mean           =   3.6111163217204E+00
(PID.TID 0000.0001) %MON dynstat_theta_sd             =   4.3990276281322E+00
(PID.TID 0000.0001) %MON dynstat_theta_del2           =   5.3237533953239E-03
(PID.TID 0000.0001) %MON dynstat_salt_max             =   3.7446173868565E+01
(PID.TID 0000.0001) %MON dynstat_salt_min             =   2.9772925264317E+01
(PID.TID 0000.0001) %MON dynstat_salt_mean            =   3.4717281962929E+01
(PID.TID 0000.0001) %MON dynstat_salt_sd              =   2.9616587562163E-01
(PID.TID 0000.0001) %MON dynstat_salt_del2            =   1.0129296886569E-03
(PID.TID 0000.0001) %MON forcing_qnet_max             =   4.2903536987305E+02
(PID.TID 0000.0001) %MON forcing_qnet_min             =  -1.8562549743652E+02
(PID.TID 0000.0001) %MON forcing_qnet_mean            =  -1.6662669470921E+01
(PID.TID 0000.0001) %MON forcing_qnet_sd              =   1.1221272517031E+02
(PID.TID 0000.0001) %MON forcing_qnet_del2            =   9.9444386812388E-01
(PID.TID 0000.0001) %MON forcing_qsw_max              =   0.0000000000000E+00
(PID.TID 0000.0001) %MON forcing_qsw_min              =   0.0000000000000E+00
(PID.TID 0000.0001) %MON forcing_qsw_mean             =   0.0000000000000E+00
(PID.TID 0000.0001) %MON forcing_qsw_sd               =   0.0000000000000E+00
(PID.TID 0000.0001) %MON forcing_qsw_del2             =   0.0000000000000E+00
(PID.TID 0000.0001) %MON forcing_empmr_max            =   0.0000000000000E+00
(PID.TID 0000.0001) %MON forcing_empmr_min            =   0.0000000000000E+00
(PID.TID 0000.0001) %MON forcing_empmr_mean           =   0.0000000000000E+00
(PID.TID 0000.0001) %MON forcing_empmr_sd             =   0.0000000000000E+00
(PID.TID 0000.0001) %MON forcing_empmr_del2           =   0.0000000000000E+00
(PID.TID 0000.0001) %MON forcing_fu_max               =   2.6916232779622E-01
(PID.TID 0000.0001) %MON forcing_fu_min               =  -1.5951732881367E-01
(PID.TID 0000.0001) %MON forcing_fu_mean              =   1.6145891692309E-02
(PID.TID 0000.0001) %MON forcing_fu_sd                =   8.9800201391505E-02
(PID.TID 0000.0001) %MON forcing_fu_del2              =   6.3623785812733E-04
(PID.TID 0000.0001) %MON forcing_fv_max               =   2.0250951508060E-01
(PID.TID 0000.0001) %MON forcing_fv_min               =  -1.5668430719525E-01
(PID.TID 0000.0001) %MON forcing_fv_mean              =  -5.9850670316925E-03
(PID.TID 0000.0001) %MON forcing_fv_sd                =   4.4059707089647E-02
(PID.TID 0000.0001) %MON forcing_fv_del2              =   3.4390149249255E-04
(PID.TID 0000.0001) %MON trAdv_CFL_u_max              =   1.4164038619700E-02
(PID.TID 0000.0001) %MON trAdv_CFL_v_max              =   1.0462127136843E-02
(PID.TID 0000.0001) %MON trAdv_CFL_w_max              =   1.0502346400780E-01
(PID.TID 0000.0001) %MON advcfl_uvel_max              =   1.6297313308779E-02
(PID.TID 0000.0001) %MON advcfl_vvel_max              =   7.2834642516330E-03
(PID.TID 0000.0001) %MON advcfl_wvel_max              =   1.7876951030443E-01
(PID.TID 0000.0001) %MON advcfl_W_hf_max              =   8.8797309717502E-02
(PID.TID 0000.0001) %MON pe_b_mean                    =   5.3623661185747E-05
(PID.TID 0000.0001) %MON ke_max                       =   2.9933599273040E-03
(PID.TID 0000.0001) %MON ke_mean                      =   1.3630113846250E-04
(PID.TID 0000.0001) %MON ke_vol                       =   1.3226782436723E+18
(PID.TID 0000.0001) %MON vort_r_min                   =  -3.0226506959903E-07
(PID.TID 0000.0001) %MON vort_r_max                   =   3.2550728242948E-07
(PID.TID 0000.0001) %MON vort_a_mean                  =  -2.5205769383985E-05
(PID.TID 0000.0001) %MON vort_a_sd                    =   7.3402310488492E-05
(PID.TID 0000.0001) %MON vort_p_mean                  =  -3.1758669545557E-05
(PID.TID 0000.0001) %MON vort_p_sd                    =   1.3126375308772E-04
(PID.TID 0000.0001) %MON surfExpan_theta_mean         =   1.6431565713734E-04
(PID.TID 0000.0001) %MON surfExpan_salt_mean          =   1.3391947147822E-05
(PID.TID 0000.0001) // =======================================================
(PID.TID 0000.0001) // End MONITOR dynamic field statistics
(PID.TID 0000.0001) // =======================================================
(PID.TID 0000.0001) EXF_SET_FLD: processing field "climsst",  file: lev_sst.bin
(PID.TID 0000.0001) EXF_SET_FLD:   myIter, count0, count1:         7     12      1
(PID.TID 0000.0001) EXF_SET_FLD:   first, changed, fac:   F   F    0.38333333333333336
(PID.TID 0000.0001) EXF_SET_FLD: processing field "climsss",  file: lev_sss.bin
(PID.TID 0000.0001) EXF_SET_FLD:   myIter, count0, count1:         7     12      1
(PID.TID 0000.0001) EXF_SET_FLD:   first, changed, fac:   F   F    0.38333333333333330
(PID.TID 0000.0001) EXF_SET_FLD: processing field "ustress",  file: trenberth_taux.bin
(PID.TID 0000.0001) EXF_SET_FLD:   myIter, count0, count1:         7     12      1
(PID.TID 0000.0001) EXF_SET_FLD:   first, changed, fac:   F   F    0.38333333333333330
(PID.TID 0000.0001) EXF_SET_FLD: processing field "vstress",  file: trenberth_tauy.bin
(PID.TID 0000.0001) EXF_SET_FLD:   myIter, count0, count1:         7     12      1
(PID.TID 0000.0001) EXF_SET_FLD:   first, changed, fac:   F   F    0.38333333333333330
(PID.TID 0000.0001) EXF_SET_FLD: processing field "hflux",  file: ncep_qnet.bin
(PID.TID 0000.0001) EXF_SET_FLD:   myIter, count0, count1:         7     12      1
(PID.TID 0000.0001) EXF_SET_FLD:   first, changed, fac:   F   F    0.38333333333333330
(PID.TID 0000.0001) // =======================================================
(PID.TID 0000.0001) // Begin MONITOR EXF statistics
(PID.TID 0000.0001) // =======================================================
(PID.TID 0000.0001) %MON exf_tsnumber                 =                     7
(PID.TID 0000.0001) %MON exf_time_sec                 =   3.0240000000000E+05
(PID.TID 0000.0001) %MON exf_ustress_max              =   2.7372511019930E-01
(PID.TID 0000.0001) %MON exf_ustress_min              =  -1.6052436465397E-01
(PID.TID 0000.0001) %MON exf_ustress_mean             =   1.5081979348229E-02
(PID.TID 0000.0001) %MON exf_ustress_sd               =   8.8582547519309E-02
(PID.TID 0000.0001) %MON exf_ustress_del2             =   6.6959836334256E-04
(PID.TID 0000.0001) %MON exf_vstress_max              =   2.0832215480041E-01
(PID.TID 0000.0001) %MON exf_vstress_min              =  -1.5764825283550E-01
(PID.TID 0000.0001) %MON exf_vstress_mean             =  -6.2521736780348E-03
(PID.TID 0000.0001) %MON exf_vstress_sd               =   4.5172449466881E-02
(PID.TID 0000.0001) %MON exf_vstress_del2             =   4.2085916920907E-04
(PID.TID 0000.0001) %MON exf_hflux_max                =   4.2955946350098E+02
(PID.TID 0000.0001) %MON exf_hflux_min                =  -1.8539191614787E+02
(PID.TID 0000.0001) %MON exf_hflux_mean               =  -1.6656413493009E+01
(PID.TID 0000.0001) %MON exf_hflux_sd                 =   1.1210764701191E+02
(PID.TID 0000.0001) %MON exf_hflux_del2               =   1.2179934870550E+00
(PID.TID 0000.0001) %MON exf_climsst_max              =   2.9505447451274E+01
(PID.TID 0000.0001) %MON exf_climsst_min              =  -1.9000000000000E+00
(PID.TID 0000.0001) %MON exf_climsst_mean             =   1.8392728901891E+01
(PID.TID 0000.0001) %MON exf_climsst_sd               =   9.1996320064578E+00
(PID.TID 0000.0001) %MON exf_climsst_del2             =   2.4243100742556E-02
(PID.TID 0000.0001) %MON exf_climsss_max              =   3.7456971867879E+01
(PID.TID 0000.0001) %MON exf_climsss_min              =   2.9682742087046E+01
(PID.TID 0000.0001) %MON exf_climsss_mean             =   3.4847493407552E+01
(PID.TID 0000.0001) %MON exf_climsss_sd               =   9.6591733410178E-01
(PID.TID 0000.0001) %MON exf_climsss_del2             =   7.0474956182514E-03
(PID.TID 0000.0001) // =======================================================
(PID.TID 0000.0001) // End MONITOR EXF statistics
(PID.TID 0000.0001) // =======================================================
 cg2d: Sum(rhs),rhsMax =   8.88178419700125E-16  7.77912494971678E+00
(PID.TID 0000.0001)      cg2d_init_res =   1.39156421281670E+00
(PID.TID 0000.0001)      cg2d_iters(min,last) =      -1      26
(PID.TID 0000.0001)      cg2d_last_res =   2.27483138369591E-14
(PID.TID 0000.0001) // =======================================================
(PID.TID 0000.0001) // Begin MONITOR dynamic field statistics
(PID.TID 0000.0001) // =======================================================
(PID.TID 0000.0001) %MON time_tsnumber                =                     8
(PID.TID 0000.0001) %MON time_secondsf                =   3.4560000000000E+05
(PID.TID 0000.0001) %MON dynstat_eta_max              =   8.9542908611192E-01
(PID.TID 0000.0001) %MON dynstat_eta_min              =  -7.2847444304867E-01
(PID.TID 0000.0001) %MON dynstat_eta_mean             =   4.6187430186809E-17
(PID.TID 0000.0001) %MON dynstat_eta_sd               =   2.2963363066388E-01
(PID.TID 0000.0001) %MON dynstat_eta_del2             =   2.5651085636332E-03
(PID.TID 0000.0001) %MON dynstat_uvel_max             =   8.6852244163594E-02
(PID.TID 0000.0001) %MON dynstat_uvel_min             =  -9.1630150552473E-02
(PID.TID 0000.0001) %MON dynstat_uvel_mean            =  -6.0220190472972E-03
(PID.TID 0000.0001) %MON dynstat_uvel_sd              =   8.9346937353644E-03
(PID.TID 0000.0001) %MON dynstat_uvel_del2            =   8.0618719109533E-05
(PID.TID 0000.0001) %MON dynstat_vvel_max             =   8.0631023725127E-02
(PID.TID 0000.0001) %MON dynstat_vvel_min             =  -7.5025812421976E-02
(PID.TID 0000.0001) %MON dynstat_vvel_mean            =   4.8451881418990E-03
(PID.TID 0000.0001) %MON dynstat_vvel_sd              =   1.4561829047465E-02
(PID.TID 0000.0001) %MON dynstat_vvel_del2            =   1.0152568681229E-04
(PID.TID 0000.0001) %MON dynstat_wvel_max             =   2.7007624542602E-04
(PID.TID 0000.0001) %MON dynstat_wvel_min             =  -2.8584059701968E-04
(PID.TID 0000.0001) %MON dynstat_wvel_mean            =  -2.3487409032471E-23
(PID.TID 0000.0001) %MON dynstat_wvel_sd              =   3.4121018320228E-05
(PID.TID 0000.0001) %MON dynstat_wvel_del2            =   3.6379105368573E-07
(PID.TID 0000.0001) %MON dynstat_theta_max            =   2.9701189321441E+01
(PID.TID 0000.0001) %MON dynstat_theta_min            =  -2.0357470828522E+00
(PID.TID 0000.0001) %MON dynstat_theta_mean           =   3.6092663688440E+00
(PID.TID 0000.0001) %MON dynstat_theta_sd             =   4.3949514697812E+00
(PID.TID 0000.0001) %MON dynstat_theta_del2           =   5.2924332816901E-03
(PID.TID 0000.0001) %MON dynstat_salt_max             =   3.7443034433049E+01
(PID.TID 0000.0001) %MON dynstat_salt_min             =   2.9776087782297E+01
(PID.TID 0000.0001) %MON dynstat_salt_mean            =   3.4717129358343E+01
(PID.TID 0000.0001) %MON dynstat_salt_sd              =   2.9616784738329E-01
(PID.TID 0000.0001) %MON dynstat_salt_del2            =   1.0114194318257E-03
(PID.TID 0000.0001) %MON forcing_qnet_max             =   4.2955946350098E+02
(PID.TID 0000.0001) %MON forcing_qnet_min             =  -1.8539191614787E+02
(PID.TID 0000.0001) %MON forcing_qnet_mean            =  -1.6656413493009E+01
(PID.TID 0000.0001) %MON forcing_qnet_sd              =   1.1210764701191E+02
(PID.TID 0000.0001) %MON forcing_qnet_del2            =   9.9520581523265E-01
(PID.TID 0000.0001) %MON forcing_qsw_max              =   0.0000000000000E+00
(PID.TID 0000.0001) %MON forcing_qsw_min              =   0.0000000000000E+00
(PID.TID 0000.0001) %MON forcing_qsw_mean             =   0.0000000000000E+00
(PID.TID 0000.0001) %MON forcing_qsw_sd               =   0.0000000000000E+00
(PID.TID 0000.0001) %MON forcing_qsw_del2             =   0.0000000000000E+00
(PID.TID 0000.0001) %MON forcing_empmr_max            =   0.0000000000000E+00
(PID.TID 0000.0001) %MON forcing_empmr_min            =   0.0000000000000E+00
(PID.TID 0000.0001) %MON forcing_empmr_mean           =   0.0000000000000E+00
(PID.TID 0000.0001) %MON forcing_empmr_sd             =   0.0000000000000E+00
(PID.TID 0000.0001) %MON forcing_empmr_del2           =   0.0000000000000E+00
(PID.TID 0000.0001) %MON forcing_fu_max               =   2.6861862575946E-01
(PID.TID 0000.0001) %MON forcing_fu_min               =  -1.5973741176228E-01
(PID.TID 0000.0001) %MON forcing_fu_mean              =   1.6141796802869E-02
(PID.TID 0000.0001) %MON forcing_fu_sd                =   8.9807330670270E-02
(PID.TID 0000.0001) %MON forcing_fu_del2              =   6.3748721706783E-04
(PID.TID 0000.0001) %MON forcing_fv_max               =   2.0348552417709E-01
(PID.TID 0000.0001) %MON forcing_fv_min               =  -1.5726111934637E-01
(PID.TID 0000.0001) %MON forcing_fv_mean              =  -5.9494661109298E-03
(PID.TID 0000.0001) %MON forcing_fv_sd                =   4.4131430118952E-02
(PID.TID 0000.0001) %MON forcing_fv_del2              =   3.4444605733241E-04
(PID.TID 0000.0001) %MON trAdv_CFL_u_max              =   1.6300623409673E-02
(PID.TID 0000.0001) %MON trAdv_CFL_v_max              =   1.1944525637148E-02
(PID.TID 0000.0001) %MON trAdv_CFL_w_max              =   8.8797309717502E-02
(PID.TID 0000.0001) %MON advcfl_uvel_max              =   1.7251803305227E-02
(PID.TID 0000.0001) %MON advcfl_vvel_max              =   7.8326573718218E-03
(PID.TID 0000.0001) %MON advcfl_wvel_max              =   1.9107714067777E-01
(PID.TID 0000.0001) %MON advcfl_W_hf_max              =   9.5747496554749E-02
(PID.TID 0000.0001) %MON pe_b_mean                    =   6.7476443632179E-05
(PID.TID 0000.0001) %MON ke_max                       =   3.8345371631458E-03
(PID.TID 0000.0001) %MON ke_mean                      =   1.5847948985862E-04
(PID.TID 0000.0001) %MON ke_vol                       =   1.3226782436723E+18
(PID.TID 0000.0001) %MON vort_r_min                   =  -3.1792791080359E-07
(PID.TID 0000.0001) %MON vort_r_max                   =   3.7608688173554E-07
(PID.TID 0000.0001) %MON vort_a_mean                  =  -2.5205769451432E-05
(PID.TID 0000.0001) %MON vort_a_sd                    =   7.3402135998872E-05
(PID.TID 0000.0001) %MON vort_p_mean                  =  -3.1758669630539E-05
(PID.TID 0000.0001) %MON vort_p_sd                    =   1.3126317478406E-04
(PID.TID 0000.0001) %MON surfExpan_theta_mean         =   1.6485794631373E-04
(PID.TID 0000.0001) %MON surfExpan_salt_mean          =   1.3234857481968E-05
(PID.TID 0000.0001) // =======================================================
(PID.TID 0000.0001) // End MONITOR dynamic field statistics
(PID.TID 0000.0001) // =======================================================
(PID.TID 0000.0001) EXF_SET_FLD: processing field "climsst",  file: lev_sst.bin
(PID.TID 0000.0001) EXF_SET_FLD:   myIter, count0, count1:         8     12      1
(PID.TID 0000.0001) EXF_SET_FLD:   first, changed, fac:   F   F    0.36666666666666664
(PID.TID 0000.0001) EXF_SET_FLD: processing field "climsss",  file: lev_sss.bin
(PID.TID 0000.0001) EXF_SET_FLD:   myIter, count0, count1:         8     12      1
(PID.TID 0000.0001) EXF_SET_FLD:   first, changed, fac:   F   F    0.36666666666666670
(PID.TID 0000.0001) EXF_SET_FLD: processing field "ustress",  file: trenberth_taux.bin
(PID.TID 0000.0001) EXF_SET_FLD:   myIter, count0, count1:         8     12      1
(PID.TID 0000.0001) EXF_SET_FLD:   first, changed, fac:   F   F    0.36666666666666670
(PID.TID 0000.0001) EXF_SET_FLD: processing field "vstress",  file: trenberth_tauy.bin
(PID.TID 0000.0001) EXF_SET_FLD:   myIter, count0, count1:         8     12      1
(PID.TID 0000.0001) EXF_SET_FLD:   first, changed, fac:   F   F    0.36666666666666670
(PID.TID 0000.0001) EXF_SET_FLD: processing field "hflux",  file: ncep_qnet.bin
(PID.TID 0000.0001) EXF_SET_FLD:   myIter, count0, count1:         8     12      1
(PID.TID 0000.0001) EXF_SET_FLD:   first, changed, fac:   F   F    0.36666666666666670
(PID.TID 0000.0001) // =======================================================
(PID.TID 0000.0001) // Begin MONITOR EXF statistics
(PID.TID 0000.0001) // =======================================================
(PID.TID 0000.0001) %MON exf_tsnumber                 =                     8
(PID.TID 0000.0001) %MON exf_time_sec                 =   3.4560000000000E+05
(PID.TID 0000.0001) %MON exf_ustress_max              =   2.7353620287031E-01
(PID.TID 0000.0001) %MON exf_ustress_min              =  -1.6082750763744E-01
(PID.TID 0000.0001) %MON exf_ustress_mean             =   1.5079482377544E-02
(PID.TID 0000.0001) %MON exf_ustress_sd               =   8.8592830029872E-02
(PID.TID 0000.0001) %MON exf_ustress_del2             =   6.7086737812733E-04
(PID.TID 0000.0001) %MON exf_vstress_max              =   2.0902605368756E-01
(PID.TID 0000.0001) %MON exf_vstress_min              =  -1.5858446592465E-01
(PID.TID 0000.0001) %MON exf_vstress_mean             =  -6.2182444372404E-03
(PID.TID 0000.0001) %MON exf_vstress_sd               =   4.5245686873096E-02
(PID.TID 0000.0001) %MON exf_vstress_del2             =   4.2126568985815E-04
(PID.TID 0000.0001) %MON exf_hflux_max                =   4.3008355712891E+02
(PID.TID 0000.0001) %MON exf_hflux_min                =  -1.8515833485921E+02
(PID.TID 0000.0001) %MON exf_hflux_mean               =  -1.6650157515098E+01
(PID.TID 0000.0001) %MON exf_hflux_sd                 =   1.1200321531664E+02
(PID.TID 0000.0001) %MON exf_hflux_del2               =   1.2184853015509E+00
(PID.TID 0000.0001) %MON exf_climsst_max              =   2.9497420247396E+01
(PID.TID 0000.0001) %MON exf_climsst_min              =  -1.9000000000000E+00
(PID.TID 0000.0001) %MON exf_climsst_mean             =   1.8396717973618E+01
(PID.TID 0000.0001) %MON exf_climsst_sd               =   9.1980775527158E+00
(PID.TID 0000.0001) %MON exf_climsst_del2             =   2.4273361746109E-02
(PID.TID 0000.0001) %MON exf_climsss_max              =   3.7457782999674E+01
(PID.TID 0000.0001) %MON exf_climsss_min              =   2.9685786755880E+01
(PID.TID 0000.0001) %MON exf_climsss_mean             =   3.4847599140928E+01
(PID.TID 0000.0001) %MON exf_climsss_sd               =   9.6556366646261E-01
(PID.TID 0000.0001) %MON exf_climsss_del2             =   7.0612714416024E-03
(PID.TID 0000.0001) // =======================================================
(PID.TID 0000.0001) // End MONITOR EXF statistics
(PID.TID 0000.0001) // =======================================================
 cg2d: Sum(rhs),rhsMax =  -4.92939022933570E-14  8.10213875274168E+00
(PID.TID 0000.0001)      cg2d_init_res =   1.28211684520280E+00
(PID.TID 0000.0001)      cg2d_iters(min,last) =      -1      25
(PID.TID 0000.0001)      cg2d_last_res =   9.33720550735125E-14
(PID.TID 0000.0001) // =======================================================
(PID.TID 0000.0001) // Begin MONITOR dynamic field statistics
(PID.TID 0000.0001) // =======================================================
(PID.TID 0000.0001) %MON time_tsnumber                =                     9
(PID.TID 0000.0001) %MON time_secondsf                =   3.8880000000000E+05
(PID.TID 0000.0001) %MON dynstat_eta_max              =   9.3678274720394E-01
(PID.TID 0000.0001) %MON dynstat_eta_min              =  -8.0932104963744E-01
(PID.TID 0000.0001) %MON dynstat_eta_mean             =   1.3675101878839E-16
(PID.TID 0000.0001) %MON dynstat_eta_sd               =   2.5306396544454E-01
(PID.TID 0000.0001) %MON dynstat_eta_del2             =   2.4881958700300E-03
(PID.TID 0000.0001) %MON dynstat_uvel_max             =   9.6069061930195E-02
(PID.TID 0000.0001) %MON dynstat_uvel_min             =  -1.0737162406333E-01
(PID.TID 0000.0001) %MON dynstat_uvel_mean            =  -6.9037505551668E-03
(PID.TID 0000.0001) %MON dynstat_uvel_sd              =   1.0162775385323E-02
(PID.TID 0000.0001) %MON dynstat_uvel_del2            =   8.6454576281023E-05
(PID.TID 0000.0001) %MON dynstat_vvel_max             =   8.4393030072853E-02
(PID.TID 0000.0001) %MON dynstat_vvel_min             =  -8.2666046642634E-02
(PID.TID 0000.0001) %MON dynstat_vvel_mean            =   4.9291438097031E-03
(PID.TID 0000.0001) %MON dynstat_vvel_sd              =   1.4861357033393E-02
(PID.TID 0000.0001) %MON dynstat_vvel_del2            =   1.0706147220974E-04
(PID.TID 0000.0001) %MON dynstat_wvel_max             =   2.7286806861308E-04
(PID.TID 0000.0001) %MON dynstat_wvel_min             =  -2.9275557867409E-04
(PID.TID 0000.0001) %MON dynstat_wvel_mean            =  -7.0462227097413E-23
(PID.TID 0000.0001) %MON dynstat_wvel_sd              =   3.4870261569434E-05
(PID.TID 0000.0001) %MON dynstat_wvel_del2            =   3.7758716115141E-07
(PID.TID 0000.0001) %MON dynstat_theta_max            =   2.9668852544382E+01
(PID.TID 0000.0001) %MON dynstat_theta_min            =  -2.0314473451787E+00
(PID.TID 0000.0001) %MON dynstat_theta_mean           =   3.6074404787568E+00
(PID.TID 0000.0001) %MON dynstat_theta_sd             =   4.3907946061943E+00
(PID.TID 0000.0001) %MON dynstat_theta_del2           =   5.2585059292882E-03
(PID.TID 0000.0001) %MON dynstat_salt_max             =   3.7440265162669E+01
(PID.TID 0000.0001) %MON dynstat_salt_min             =   2.9778960312641E+01
(PID.TID 0000.0001) %MON dynstat_salt_mean            =   3.4716981263371E+01
(PID.TID 0000.0001) %MON dynstat_salt_sd              =   2.9616189145143E-01
(PID.TID 0000.0001) %MON dynstat_salt_del2            =   1.0099405707751E-03
(PID.TID 0000.0001) %MON forcing_qnet_max             =   4.3008355712891E+02
(PID.TID 0000.0001) %MON forcing_qnet_min             =  -1.8515833485921E+02
(PID.TID 0000.0001) %MON forcing_qnet_mean            =  -1.6650157515098E+01
(PID.TID 0000.0001) %MON forcing_qnet_sd              =   1.1200321531664E+02
(PID.TID 0000.0001) %MON forcing_qnet_del2            =   9.9601163526981E-01
(PID.TID 0000.0001) %MON forcing_qsw_max              =   0.0000000000000E+00
(PID.TID 0000.0001) %MON forcing_qsw_min              =   0.0000000000000E+00
(PID.TID 0000.0001) %MON forcing_qsw_mean             =   0.0000000000000E+00
(PID.TID 0000.0001) %MON forcing_qsw_sd               =   0.0000000000000E+00
(PID.TID 0000.0001) %MON forcing_qsw_del2             =   0.0000000000000E+00
(PID.TID 0000.0001) %MON forcing_empmr_max            =   0.0000000000000E+00
(PID.TID 0000.0001) %MON forcing_empmr_min            =   0.0000000000000E+00
(PID.TID 0000.0001) %MON forcing_empmr_mean           =   0.0000000000000E+00
(PID.TID 0000.0001) %MON forcing_empmr_sd             =   0.0000000000000E+00
(PID.TID 0000.0001) %MON forcing_empmr_del2           =   0.0000000000000E+00
(PID.TID 0000.0001) %MON forcing_fu_max               =   2.6836202526465E-01
(PID.TID 0000.0001) %MON forcing_fu_min               =  -1.5996404473359E-01
(PID.TID 0000.0001) %MON forcing_fu_mean              =   1.6137701913428E-02
(PID.TID 0000.0001) %MON forcing_fu_sd                =   8.9817094034573E-02
(PID.TID 0000.0001) %MON forcing_fu_del2              =   6.3884870248690E-04
(PID.TID 0000.0001) %MON forcing_fv_max               =   2.0446153327357E-01
(PID.TID 0000.0001) %MON forcing_fv_min               =  -1.5783793149749E-01
(PID.TID 0000.0001) %MON forcing_fv_mean              =  -5.9138651901670E-03
(PID.TID 0000.0001) %MON forcing_fv_sd                =   4.4206613650817E-02
(PID.TID 0000.0001) %MON forcing_fv_del2              =   3.4507183974779E-04
(PID.TID 0000.0001) %MON trAdv_CFL_u_max              =   1.7255307269866E-02
(PID.TID 0000.0001) %MON trAdv_CFL_v_max              =   1.3031126726318E-02
(PID.TID 0000.0001) %MON trAdv_CFL_w_max              =   9.5747496554749E-02
(PID.TID 0000.0001) %MON advcfl_uvel_max              =   1.6926264306887E-02
(PID.TID 0000.0001) %MON advcfl_vvel_max              =   8.1981061208394E-03
(PID.TID 0000.0001) %MON advcfl_wvel_max              =   1.9518134960843E-01
(PID.TID 0000.0001) %MON advcfl_W_hf_max              =   1.0050677001183E-01
(PID.TID 0000.0001) %MON pe_b_mean                    =   8.1948652778729E-05
(PID.TID 0000.0001) %MON ke_max                       =   4.7164229625200E-03
(PID.TID 0000.0001) %MON ke_mean                      =   1.7863749340643E-04
(PID.TID 0000.0001) %MON ke_vol                       =   1.3226782436723E+18
(PID.TID 0000.0001) %MON vort_r_min                   =  -3.2665421290741E-07
(PID.TID 0000.0001) %MON vort_r_max                   =   4.3930171140860E-07
(PID.TID 0000.0001) %MON vort_a_mean                  =  -2.5205769532507E-05
(PID.TID 0000.0001) %MON vort_a_sd                    =   7.3401968772578E-05
(PID.TID 0000.0001) %MON vort_p_mean                  =  -3.1758669732691E-05
(PID.TID 0000.0001) %MON vort_p_sd                    =   1.3126258826681E-04
(PID.TID 0000.0001) %MON surfExpan_theta_mean         =   1.6164164742449E-04
(PID.TID 0000.0001) %MON surfExpan_salt_mean          =   1.2725657449994E-05
(PID.TID 0000.0001) // =======================================================
(PID.TID 0000.0001) // End MONITOR dynamic field statistics
(PID.TID 0000.0001) // =======================================================
(PID.TID 0000.0001) EXF_SET_FLD: processing field "climsst",  file: lev_sst.bin
(PID.TID 0000.0001) EXF_SET_FLD:   myIter, count0, count1:         9     12      1
(PID.TID 0000.0001) EXF_SET_FLD:   first, changed, fac:   F   F    0.34999999999999998
(PID.TID 0000.0001) EXF_SET_FLD: processing field "climsss",  file: lev_sss.bin
(PID.TID 0000.0001) EXF_SET_FLD:   myIter, count0, count1:         9     12      1
(PID.TID 0000.0001) EXF_SET_FLD:   first, changed, fac:   F   F    0.34999999999999998
(PID.TID 0000.0001) EXF_SET_FLD: processing field "ustress",  file: trenberth_taux.bin
(PID.TID 0000.0001) EXF_SET_FLD:   myIter, count0, count1:         9     12      1
(PID.TID 0000.0001) EXF_SET_FLD:   first, changed, fac:   F   F    0.34999999999999998
(PID.TID 0000.0001) EXF_SET_FLD: processing field "vstress",  file: trenberth_tauy.bin
(PID.TID 0000.0001) EXF_SET_FLD:   myIter, count0, count1:         9     12      1
(PID.TID 0000.0001) EXF_SET_FLD:   first, changed, fac:   F   F    0.34999999999999998
(PID.TID 0000.0001) EXF_SET_FLD: processing field "hflux",  file: ncep_qnet.bin
(PID.TID 0000.0001) EXF_SET_FLD:   myIter, count0, count1:         9     12      1
(PID.TID 0000.0001) EXF_SET_FLD:   first, changed, fac:   F   F    0.34999999999999998
(PID.TID 0000.0001) // =======================================================
(PID.TID 0000.0001) // Begin MONITOR EXF statistics
(PID.TID 0000.0001) // =======================================================
(PID.TID 0000.0001) %MON exf_tsnumber                 =                     9
(PID.TID 0000.0001) %MON exf_time_sec                 =   3.8880000000000E+05
(PID.TID 0000.0001) %MON exf_ustress_max              =   2.7334729554132E-01
(PID.TID 0000.0001) %MON exf_ustress_min              =  -1.6113065062091E-01
(PID.TID 0000.0001) %MON exf_ustress_mean             =   1.5076985406859E-02
(PID.TID 0000.0001) %MON exf_ustress_sd               =   8.8605772914385E-02
(PID.TID 0000.0001) %MON exf_ustress_del2             =   6.7225341485521E-04
(PID.TID 0000.0001) %MON exf_vstress_max              =   2.0972995257471E-01
(PID.TID 0000.0001) %MON exf_vstress_min              =  -1.5952067901380E-01
(PID.TID 0000.0001) %MON exf_vstress_mean             =  -6.1843151964461E-03
(PID.TID 0000.0001) %MON exf_vstress_sd               =   4.5322533210743E-02
(PID.TID 0000.0001) %MON exf_vstress_del2             =   4.2176420141707E-04
(PID.TID 0000.0001) %MON exf_hflux_max                =   4.3060765075684E+02
(PID.TID 0000.0001) %MON exf_hflux_min                =  -1.8492475357056E+02
(PID.TID 0000.0001) %MON exf_hflux_mean               =  -1.6643901537186E+01
(PID.TID 0000.0001) %MON exf_hflux_sd                 =   1.1189943189448E+02
(PID.TID 0000.0001) %MON exf_hflux_del2               =   1.2190143271914E+00
(PID.TID 0000.0001) %MON exf_climsst_max              =   2.9489393043518E+01
(PID.TID 0000.0001) %MON exf_climsst_min              =  -1.9000000000000E+00
(PID.TID 0000.0001) %MON exf_climsst_mean             =   1.8400709572502E+01
(PID.TID 0000.0001) %MON exf_climsst_sd               =   9.1965819925044E+00
(PID.TID 0000.0001) %MON exf_climsst_del2             =   2.4313428025563E-02
(PID.TID 0000.0001) %MON exf_climsss_max              =   3.7458594131470E+01
(PID.TID 0000.0001) %MON exf_climsss_min              =   2.9688831424713E+01
(PID.TID 0000.0001) %MON exf_climsss_mean             =   3.4847704874304E+01
(PID.TID 0000.0001) %MON exf_climsss_sd               =   9.6523228851482E-01
(PID.TID 0000.0001) %MON exf_climsss_del2             =   7.0779946470543E-03
(PID.TID 0000.0001) // =======================================================
(PID.TID 0000.0001) // End MONITOR EXF statistics
(PID.TID 0000.0001) // =======================================================
 cg2d: Sum(rhs),rhsMax =  -3.96127575186256E-13  8.19596060700025E+00
(PID.TID 0000.0001)      cg2d_init_res =   1.21761134920664E+00
(PID.TID 0000.0001)      cg2d_iters(min,last) =      -1      25
(PID.TID 0000.0001)      cg2d_last_res =   8.67394471243496E-14
(PID.TID 0000.0001) // =======================================================
(PID.TID 0000.0001) // Begin MONITOR dynamic field statistics
(PID.TID 0000.0001) // =======================================================
(PID.TID 0000.0001) %MON time_tsnumber                =                    10
(PID.TID 0000.0001) %MON time_secondsf                =   4.3200000000000E+05
(PID.TID 0000.0001) %MON dynstat_eta_max              =   9.5253376817351E-01
(PID.TID 0000.0001) %MON dynstat_eta_min              =  -8.6109298326533E-01
(PID.TID 0000.0001) %MON dynstat_eta_mean             =   2.4859705071135E-16
(PID.TID 0000.0001) %MON dynstat_eta_sd               =   2.7473161510275E-01
(PID.TID 0000.0001) %MON dynstat_eta_del2             =   2.4169377797187E-03
(PID.TID 0000.0001) %MON dynstat_uvel_max             =   1.0462793993675E-01
(PID.TID 0000.0001) %MON dynstat_uvel_min             =  -1.1936333959182E-01
(PID.TID 0000.0001) %MON dynstat_uvel_mean            =  -7.7151920237352E-03
(PID.TID 0000.0001) %MON dynstat_uvel_sd              =   1.1336649929952E-02
(PID.TID 0000.0001) %MON dynstat_uvel_del2            =   9.1575618447009E-05
(PID.TID 0000.0001) %MON dynstat_vvel_max             =   9.3722509543415E-02
(PID.TID 0000.0001) %MON dynstat_vvel_min             =  -8.9007149331016E-02
(PID.TID 0000.0001) %MON dynstat_vvel_mean            =   4.8992254626073E-03
(PID.TID 0000.0001) %MON dynstat_vvel_sd              =   1.4944099169622E-02
(PID.TID 0000.0001) %MON dynstat_vvel_del2            =   1.1119368432268E-04
(PID.TID 0000.0001) %MON dynstat_wvel_max             =   2.6870738324383E-04
(PID.TID 0000.0001) %MON dynstat_wvel_min             =  -3.0314420297194E-04
(PID.TID 0000.0001) %MON dynstat_wvel_mean            =   1.3387823148508E-21
(PID.TID 0000.0001) %MON dynstat_wvel_sd              =   3.5196254577504E-05
(PID.TID 0000.0001) %MON dynstat_wvel_del2            =   3.8379452812727E-07
(PID.TID 0000.0001) %MON dynstat_theta_max            =   2.9626947838745E+01
(PID.TID 0000.0001) %MON dynstat_theta_min            =  -2.0434920189803E+00
(PID.TID 0000.0001) %MON dynstat_theta_mean           =   3.6056768406894E+00
(PID.TID 0000.0001) %MON dynstat_theta_sd             =   4.3866257379021E+00
(PID.TID 0000.0001) %MON dynstat_theta_del2           =   5.2246282676148E-03
(PID.TID 0000.0001) %MON dynstat_salt_max             =   3.7437815236955E+01
(PID.TID 0000.0001) %MON dynstat_salt_min             =   2.9781472599438E+01
(PID.TID 0000.0001) %MON dynstat_salt_mean            =   3.4716841301238E+01
(PID.TID 0000.0001) %MON dynstat_salt_sd              =   2.9614901395057E-01
(PID.TID 0000.0001) %MON dynstat_salt_del2            =   1.0085428594124E-03
(PID.TID 0000.0001) %MON forcing_qnet_max             =   4.3060765075684E+02
(PID.TID 0000.0001) %MON forcing_qnet_min             =  -1.8492475357056E+02
(PID.TID 0000.0001) %MON forcing_qnet_mean            =  -1.6643901537186E+01
(PID.TID 0000.0001) %MON forcing_qnet_sd              =   1.1189943189448E+02
(PID.TID 0000.0001) %MON forcing_qnet_del2            =   9.9686122184036E-01
(PID.TID 0000.0001) %MON forcing_qsw_max              =   0.0000000000000E+00
(PID.TID 0000.0001) %MON forcing_qsw_min              =   0.0000000000000E+00
(PID.TID 0000.0001) %MON forcing_qsw_mean             =   0.0000000000000E+00
(PID.TID 0000.0001) %MON forcing_qsw_sd               =   0.0000000000000E+00
(PID.TID 0000.0001) %MON forcing_qsw_del2             =   0.0000000000000E+00
(PID.TID 0000.0001) %MON forcing_empmr_max            =   0.0000000000000E+00
(PID.TID 0000.0001) %MON forcing_empmr_min            =   0.0000000000000E+00
(PID.TID 0000.0001) %MON forcing_empmr_mean           =   0.0000000000000E+00
(PID.TID 0000.0001) %MON forcing_empmr_sd             =   0.0000000000000E+00
(PID.TID 0000.0001) %MON forcing_empmr_del2           =   0.0000000000000E+00
(PID.TID 0000.0001) %MON forcing_fu_max               =   2.6844808435999E-01
(PID.TID 0000.0001) %MON forcing_fu_min               =  -1.6039777453989E-01
(PID.TID 0000.0001) %MON forcing_fu_mean              =   1.6133607023988E-02
(PID.TID 0000.0001) %MON forcing_fu_sd                =   8.9829490625536E-02
(PID.TID 0000.0001) %MON forcing_fu_del2              =   6.4032159915732E-04
(PID.TID 0000.0001) %MON forcing_fv_max               =   2.0543754237005E-01
(PID.TID 0000.0001) %MON forcing_fv_min               =  -1.5841474364861E-01
(PID.TID 0000.0001) %MON forcing_fv_mean              =  -5.8782642694042E-03
(PID.TID 0000.0001) %MON forcing_fv_sd                =   4.4285240060448E-02
(PID.TID 0000.0001) %MON forcing_fv_del2              =   3.4577839878144E-04
(PID.TID 0000.0001) %MON trAdv_CFL_u_max              =   1.6929702152226E-02
(PID.TID 0000.0001) %MON trAdv_CFL_v_max              =   1.3672372737689E-02
(PID.TID 0000.0001) %MON trAdv_CFL_w_max              =   1.0050677001183E-01
(PID.TID 0000.0001) %MON advcfl_uvel_max              =   1.5463765655994E-02
(PID.TID 0000.0001) %MON advcfl_vvel_max              =   9.1043902379737E-03
(PID.TID 0000.0001) %MON advcfl_wvel_max              =   1.8988689841069E-01
(PID.TID 0000.0001) %MON advcfl_W_hf_max              =   9.6085925045830E-02
(PID.TID 0000.0001) %MON pe_b_mean                    =   9.6582508013107E-05
(PID.TID 0000.0001) %MON ke_max                       =   5.6318423511305E-03
(PID.TID 0000.0001) %MON ke_mean                      =   1.9646776416659E-04
(PID.TID 0000.0001) %MON ke_vol                       =   1.3226782436723E+18
(PID.TID 0000.0001) %MON vort_r_min                   =  -3.2990911305384E-07
(PID.TID 0000.0001) %MON vort_r_max                   =   4.9285240495016E-07
(PID.TID 0000.0001) %MON vort_a_mean                  =  -2.5205769614295E-05
(PID.TID 0000.0001) %MON vort_a_sd                    =   7.3401813507678E-05
(PID.TID 0000.0001) %MON vort_p_mean                  =  -3.1758669835742E-05
(PID.TID 0000.0001) %MON vort_p_sd                    =   1.3126201471154E-04
(PID.TID 0000.0001) %MON surfExpan_theta_mean         =   1.5530383812551E-04
(PID.TID 0000.0001) %MON surfExpan_salt_mean          =   1.1921008437806E-05
(PID.TID 0000.0001) // =======================================================
(PID.TID 0000.0001) // End MONITOR dynamic field statistics
(PID.TID 0000.0001) // =======================================================
(PID.TID 0000.0001) EXF_SET_FLD: processing field "climsst",  file: lev_sst.bin
(PID.TID 0000.0001) EXF_SET_FLD:   myIter, count0, count1:        10     12      1
(PID.TID 0000.0001) EXF_SET_FLD:   first, changed, fac:   F   F    0.33333333333333331
(PID.TID 0000.0001) EXF_SET_FLD: processing field "climsss",  file: lev_sss.bin
(PID.TID 0000.0001) EXF_SET_FLD:   myIter, count0, count1:        10     12      1
(PID.TID 0000.0001) EXF_SET_FLD:   first, changed, fac:   F   F    0.33333333333333337
(PID.TID 0000.0001) EXF_SET_FLD: processing field "ustress",  file: trenberth_taux.bin
(PID.TID 0000.0001) EXF_SET_FLD:   myIter, count0, count1:        10     12      1
(PID.TID 0000.0001) EXF_SET_FLD:   first, changed, fac:   F   F    0.33333333333333337
(PID.TID 0000.0001) EXF_SET_FLD: processing field "vstress",  file: trenberth_tauy.bin
(PID.TID 0000.0001) EXF_SET_FLD:   myIter, count0, count1:        10     12      1
(PID.TID 0000.0001) EXF_SET_FLD:   first, changed, fac:   F   F    0.33333333333333337
(PID.TID 0000.0001) EXF_SET_FLD: processing field "hflux",  file: ncep_qnet.bin
(PID.TID 0000.0001) EXF_SET_FLD:   myIter, count0, count1:        10     12      1
(PID.TID 0000.0001) EXF_SET_FLD:   first, changed, fac:   F   F    0.33333333333333337
(PID.TID 0000.0001) // =======================================================
(PID.TID 0000.0001) // Begin MONITOR EXF statistics
(PID.TID 0000.0001) // =======================================================
(PID.TID 0000.0001) %MON exf_tsnumber                 =                    10
(PID.TID 0000.0001) %MON exf_time_sec                 =   4.3200000000000E+05
(PID.TID 0000.0001) %MON exf_ustress_max              =   2.7315838821232E-01
(PID.TID 0000.0001) %MON exf_ustress_min              =  -1.6143379360437E-01
(PID.TID 0000.0001) %MON exf_ustress_mean             =   1.5074488436174E-02
(PID.TID 0000.0001) %MON exf_ustress_sd               =   8.8621375007229E-02
(PID.TID 0000.0001) %MON exf_ustress_del2             =   6.7375575132107E-04
(PID.TID 0000.0001) %MON exf_vstress_max              =   2.1043385146186E-01
(PID.TID 0000.0001) %MON exf_vstress_min              =  -1.6045689210296E-01
(PID.TID 0000.0001) %MON exf_vstress_mean             =  -6.1503859556517E-03
(PID.TID 0000.0001) %MON exf_vstress_sd               =   4.5402970155046E-02
(PID.TID 0000.0001) %MON exf_vstress_del2             =   4.2235437815097E-04
(PID.TID 0000.0001) %MON exf_hflux_max                =   4.3113174438477E+02
(PID.TID 0000.0001) %MON exf_hflux_min                =  -1.8469117228190E+02
(PID.TID 0000.0001) %MON exf_hflux_mean               =  -1.6637645559275E+01
(PID.TID 0000.0001) %MON exf_hflux_sd                 =   1.1179629855085E+02
(PID.TID 0000.0001) %MON exf_hflux_del2               =   1.2195805155524E+00
(PID.TID 0000.0001) %MON exf_climsst_max              =   2.9481945037842E+01
(PID.TID 0000.0001) %MON exf_climsst_min              =  -1.9000000000000E+00
(PID.TID 0000.0001) %MON exf_climsst_mean             =   1.8404701171387E+01
(PID.TID 0000.0001) %MON exf_climsst_sd               =   9.1951509295328E+00
(PID.TID 0000.0001) %MON exf_climsst_del2             =   2.4363111524477E-02
(PID.TID 0000.0001) %MON exf_climsss_max              =   3.7459405263265E+01
(PID.TID 0000.0001) %MON exf_climsss_min              =   2.9691876093547E+01
(PID.TID 0000.0001) %MON exf_climsss_mean             =   3.4847810607681E+01
(PID.TID 0000.0001) %MON exf_climsss_sd               =   9.6492322322287E-01
(PID.TID 0000.0001) %MON exf_climsss_del2             =   7.0976444011018E-03
(PID.TID 0000.0001) // =======================================================
(PID.TID 0000.0001) // End MONITOR EXF statistics
(PID.TID 0000.0001) // =======================================================
 cg2d: Sum(rhs),rhsMax =  -5.87974113841483E-13  8.12920128409308E+00
(PID.TID 0000.0001)      cg2d_init_res =   1.18033152324843E+00
(PID.TID 0000.0001)      cg2d_iters(min,last) =      -1      25
(PID.TID 0000.0001)      cg2d_last_res =   8.23209419079535E-14
(PID.TID 0000.0001) // =======================================================
(PID.TID 0000.0001) // Begin MONITOR dynamic field statistics
(PID.TID 0000.0001) // =======================================================
(PID.TID 0000.0001) %MON time_tsnumber                =                    11
(PID.TID 0000.0001) %MON time_secondsf                =   4.7520000000000E+05
(PID.TID 0000.0001) %MON dynstat_eta_max              =   9.4976429794993E-01
(PID.TID 0000.0001) %MON dynstat_eta_min              =  -8.8801802155264E-01
(PID.TID 0000.0001) %MON dynstat_eta_mean             =   4.0436642310608E-16
(PID.TID 0000.0001) %MON dynstat_eta_sd               =   2.9439845514824E-01
(PID.TID 0000.0001) %MON dynstat_eta_del2             =   2.3475794741301E-03
(PID.TID 0000.0001) %MON dynstat_uvel_max             =   1.1254251844262E-01
(PID.TID 0000.0001) %MON dynstat_uvel_min             =  -1.2703080446354E-01
(PID.TID 0000.0001) %MON dynstat_uvel_mean            =  -8.4326555714872E-03
(PID.TID 0000.0001) %MON dynstat_uvel_sd              =   1.2433695506965E-02
(PID.TID 0000.0001) %MON dynstat_uvel_del2            =   9.6016612694568E-05
(PID.TID 0000.0001) %MON dynstat_vvel_max             =   1.0080128420206E-01
(PID.TID 0000.0001) %MON dynstat_vvel_min             =  -9.3861811028930E-02
(PID.TID 0000.0001) %MON dynstat_vvel_mean            =   4.7686715108797E-03
(PID.TID 0000.0001) %MON dynstat_vvel_sd              =   1.4856500645756E-02
(PID.TID 0000.0001) %MON dynstat_vvel_del2            =   1.1404284477646E-04
(PID.TID 0000.0001) %MON dynstat_wvel_max             =   2.6135296375847E-04
(PID.TID 0000.0001) %MON dynstat_wvel_min             =  -3.2209151498625E-04
(PID.TID 0000.0001) %MON dynstat_wvel_mean            =   5.8718522581177E-22
(PID.TID 0000.0001) %MON dynstat_wvel_sd              =   3.5117928292587E-05
(PID.TID 0000.0001) %MON dynstat_wvel_del2            =   3.8357570386234E-07
(PID.TID 0000.0001) %MON dynstat_theta_max            =   2.9584825851191E+01
(PID.TID 0000.0001) %MON dynstat_theta_min            =  -2.0283483591747E+00
(PID.TID 0000.0001) %MON dynstat_theta_mean           =   3.6040062812032E+00
(PID.TID 0000.0001) %MON dynstat_theta_sd             =   4.3825038899364E+00
(PID.TID 0000.0001) %MON dynstat_theta_del2           =   5.1920777282477E-03
(PID.TID 0000.0001) %MON dynstat_salt_max             =   3.7435628939260E+01
(PID.TID 0000.0001) %MON dynstat_salt_min             =   2.9783579774770E+01
(PID.TID 0000.0001) %MON dynstat_salt_mean            =   3.4716712416230E+01
(PID.TID 0000.0001) %MON dynstat_salt_sd              =   2.9613035740130E-01
(PID.TID 0000.0001) %MON dynstat_salt_del2            =   1.0073194009505E-03
(PID.TID 0000.0001) %MON forcing_qnet_max             =   4.3113174438477E+02
(PID.TID 0000.0001) %MON forcing_qnet_min             =  -1.8469117228190E+02
(PID.TID 0000.0001) %MON forcing_qnet_mean            =  -1.6637645559275E+01
(PID.TID 0000.0001) %MON forcing_qnet_sd              =   1.1179629855085E+02
(PID.TID 0000.0001) %MON forcing_qnet_del2            =   9.9775446314289E-01
(PID.TID 0000.0001) %MON forcing_qsw_max              =   0.0000000000000E+00
(PID.TID 0000.0001) %MON forcing_qsw_min              =   0.0000000000000E+00
(PID.TID 0000.0001) %MON forcing_qsw_mean             =   0.0000000000000E+00
(PID.TID 0000.0001) %MON forcing_qsw_sd               =   0.0000000000000E+00
(PID.TID 0000.0001) %MON forcing_qsw_del2             =   0.0000000000000E+00
(PID.TID 0000.0001) %MON forcing_empmr_max            =   0.0000000000000E+00
(PID.TID 0000.0001) %MON forcing_empmr_min            =   0.0000000000000E+00
(PID.TID 0000.0001) %MON forcing_empmr_mean           =   0.0000000000000E+00
(PID.TID 0000.0001) %MON forcing_empmr_sd             =   0.0000000000000E+00
(PID.TID 0000.0001) %MON forcing_empmr_del2           =   0.0000000000000E+00
(PID.TID 0000.0001) %MON forcing_fu_max               =   2.6853414345533E-01
(PID.TID 0000.0001) %MON forcing_fu_min               =  -1.6083150434618E-01
(PID.TID 0000.0001) %MON forcing_fu_mean              =   1.6129512134548E-02
(PID.TID 0000.0001) %MON forcing_fu_sd                =   8.9844519353175E-02
(PID.TID 0000.0001) %MON forcing_fu_del2              =   6.4190514015661E-04
(PID.TID 0000.0001) %MON forcing_fv_max               =   2.0641355146654E-01
(PID.TID 0000.0001) %MON forcing_fv_min               =  -1.5899155579973E-01
(PID.TID 0000.0001) %MON forcing_fv_mean              =  -5.8426633486415E-03
(PID.TID 0000.0001) %MON forcing_fv_sd                =   4.4367291043749E-02
(PID.TID 0000.0001) %MON forcing_fv_del2              =   3.4656524038430E-04
(PID.TID 0000.0001) %MON trAdv_CFL_u_max              =   1.5466906457397E-02
(PID.TID 0000.0001) %MON trAdv_CFL_v_max              =   1.3841182324249E-02
(PID.TID 0000.0001) %MON trAdv_CFL_w_max              =   9.6085925045830E-02
(PID.TID 0000.0001) %MON advcfl_uvel_max              =   1.6585843835800E-02
(PID.TID 0000.0001) %MON advcfl_vvel_max              =   9.7920364311129E-03
(PID.TID 0000.0001) %MON advcfl_wvel_max              =   1.8535721298500E-01
(PID.TID 0000.0001) %MON advcfl_W_hf_max              =   8.9017893705131E-02
(PID.TID 0000.0001) %MON pe_b_mean                    =   1.1090528791344E-04
(PID.TID 0000.0001) %MON ke_max                       =   6.5700531081834E-03
(PID.TID 0000.0001) %MON ke_mean                      =   2.1183986170908E-04
(PID.TID 0000.0001) %MON ke_vol                       =   1.3226782436723E+18
(PID.TID 0000.0001) %MON vort_r_min                   =  -3.2890755945104E-07
(PID.TID 0000.0001) %MON vort_r_max                   =   5.3411472883648E-07
(PID.TID 0000.0001) %MON vort_a_mean                  =  -2.5205769685418E-05
(PID.TID 0000.0001) %MON vort_a_sd                    =   7.3401674440241E-05
(PID.TID 0000.0001) %MON vort_p_mean                  =  -3.1758669925355E-05
(PID.TID 0000.0001) %MON vort_p_sd                    =   1.3126147684691E-04
(PID.TID 0000.0001) %MON surfExpan_theta_mean         =   1.4647514886710E-04
(PID.TID 0000.0001) %MON surfExpan_salt_mean          =   1.0884882908496E-05
(PID.TID 0000.0001) // =======================================================
(PID.TID 0000.0001) // End MONITOR dynamic field statistics
(PID.TID 0000.0001) // =======================================================
 Computing Diagnostic #    197  EXFtaux      Counter:       1   Parms: UM      U1      
 Computing Diagnostic #    198  EXFtauy      Counter:       1   Parms: VM      U1      
 Computing Diagnostic #    196  EXFqnet      Counter:       1   Parms: SM      U1      
 Computing Diagnostic #    209  EXFempmr     Counter:       1   Parms: SM      U1      
 Computing Diagnostic #     26  THETA        Counter:       1   Parms: SMR     MR      
 Computing Diagnostic #     27  SALT         Counter:       1   Parms: SMR     MR      
 Computing Diagnostic #     30  UVEL         Counter:       1   Parms: UUR     MR      
           Vector  Mate for  UVEL         Diagnostic #     31  VVEL     exists 
 Computing Diagnostic #     31  VVEL         Counter:       1   Parms: VVR     MR      
           Vector  Mate for  VVEL         Diagnostic #     30  UVEL     exists 
(PID.TID 0000.0001) EXF_SET_FLD: processing field "climsst",  file: lev_sst.bin
(PID.TID 0000.0001) EXF_SET_FLD:   myIter, count0, count1:        11     12      1
(PID.TID 0000.0001) EXF_SET_FLD:   first, changed, fac:   F   F    0.31666666666666665
(PID.TID 0000.0001) EXF_SET_FLD: processing field "climsss",  file: lev_sss.bin
(PID.TID 0000.0001) EXF_SET_FLD:   myIter, count0, count1:        11     12      1
(PID.TID 0000.0001) EXF_SET_FLD:   first, changed, fac:   F   F    0.31666666666666665
(PID.TID 0000.0001) EXF_SET_FLD: processing field "ustress",  file: trenberth_taux.bin
(PID.TID 0000.0001) EXF_SET_FLD:   myIter, count0, count1:        11     12      1
(PID.TID 0000.0001) EXF_SET_FLD:   first, changed, fac:   F   F    0.31666666666666665
(PID.TID 0000.0001) EXF_SET_FLD: processing field "vstress",  file: trenberth_tauy.bin
(PID.TID 0000.0001) EXF_SET_FLD:   myIter, count0, count1:        11     12      1
(PID.TID 0000.0001) EXF_SET_FLD:   first, changed, fac:   F   F    0.31666666666666665
(PID.TID 0000.0001) EXF_SET_FLD: processing field "hflux",  file: ncep_qnet.bin
(PID.TID 0000.0001) EXF_SET_FLD:   myIter, count0, count1:        11     12      1
(PID.TID 0000.0001) EXF_SET_FLD:   first, changed, fac:   F   F    0.31666666666666665
(PID.TID 0000.0001) // =======================================================
(PID.TID 0000.0001) // Begin MONITOR EXF statistics
(PID.TID 0000.0001) // =======================================================
(PID.TID 0000.0001) %MON exf_tsnumber                 =                    11
(PID.TID 0000.0001) %MON exf_time_sec                 =   4.7520000000000E+05
(PID.TID 0000.0001) %MON exf_ustress_max              =   2.7296948088333E-01
(PID.TID 0000.0001) %MON exf_ustress_min              =  -1.6173693658784E-01
(PID.TID 0000.0001) %MON exf_ustress_mean             =   1.5071991465489E-02
(PID.TID 0000.0001) %MON exf_ustress_sd               =   8.8639634904204E-02
(PID.TID 0000.0001) %MON exf_ustress_del2             =   6.7537361141564E-04
(PID.TID 0000.0001) %MON exf_vstress_max              =   2.1113775034901E-01
(PID.TID 0000.0001) %MON exf_vstress_min              =  -1.6139310519211E-01
(PID.TID 0000.0001) %MON exf_vstress_mean             =  -6.1164567148573E-03
(PID.TID 0000.0001) %MON exf_vstress_sd               =   4.5486978657649E-02
(PID.TID 0000.0001) %MON exf_vstress_del2             =   4.2303583641414E-04
(PID.TID 0000.0001) %MON exf_hflux_max                =   4.3165583801270E+02
(PID.TID 0000.0001) %MON exf_hflux_min                =  -1.8445759099325E+02
(PID.TID 0000.0001) %MON exf_hflux_mean               =  -1.6631389581363E+01
(PID.TID 0000.0001) %MON exf_hflux_sd                 =   1.1169381708650E+02
(PID.TID 0000.0001) %MON exf_hflux_del2               =   1.2201838149014E+00
(PID.TID 0000.0001) %MON exf_climsst_max              =   2.9480035209656E+01
(PID.TID 0000.0001) %MON exf_climsst_min              =  -1.9000000000000E+00
(PID.TID 0000.0001) %MON exf_climsst_mean             =   1.8408692770272E+01
(PID.TID 0000.0001) %MON exf_climsst_sd               =   9.1937843939190E+00
(PID.TID 0000.0001) %MON exf_climsst_del2             =   2.4422353548690E-02
(PID.TID 0000.0001) %MON exf_climsss_max              =   3.7460216395060E+01
(PID.TID 0000.0001) %MON exf_climsss_min              =   2.9694920762380E+01
(PID.TID 0000.0001) %MON exf_climsss_mean             =   3.4847916341057E+01
(PID.TID 0000.0001) %MON exf_climsss_sd               =   9.6463649203338E-01
(PID.TID 0000.0001) %MON exf_climsss_del2             =   7.1201964744154E-03
(PID.TID 0000.0001) // =======================================================
(PID.TID 0000.0001) // End MONITOR EXF statistics
(PID.TID 0000.0001) // =======================================================
 cg2d: Sum(rhs),rhsMax =  -6.36823926924990E-13  7.96973314341374E+00
(PID.TID 0000.0001)      cg2d_init_res =   1.15851935754725E+00
(PID.TID 0000.0001)      cg2d_iters(min,last) =      -1      25
(PID.TID 0000.0001)      cg2d_last_res =   7.91745154208067E-14
(PID.TID 0000.0001) // =======================================================
(PID.TID 0000.0001) // Begin MONITOR dynamic field statistics
(PID.TID 0000.0001) // =======================================================
(PID.TID 0000.0001) %MON time_tsnumber                =                    12
(PID.TID 0000.0001) %MON time_secondsf                =   5.1840000000000E+05
(PID.TID 0000.0001) %MON dynstat_eta_max              =   9.7688688622079E-01
(PID.TID 0000.0001) %MON dynstat_eta_min              =  -9.6499109783956E-01
(PID.TID 0000.0001) %MON dynstat_eta_mean             =   4.0798896665014E-16
(PID.TID 0000.0001) %MON dynstat_eta_sd               =   3.1187847127030E-01
(PID.TID 0000.0001) %MON dynstat_eta_del2             =   2.2813171900388E-03
(PID.TID 0000.0001) %MON dynstat_uvel_max             =   1.1979983666674E-01
(PID.TID 0000.0001) %MON dynstat_uvel_min             =  -1.3027629945240E-01
(PID.TID 0000.0001) %MON dynstat_uvel_mean            =  -9.0366263994543E-03
(PID.TID 0000.0001) %MON dynstat_uvel_sd              =   1.3436936797700E-02
(PID.TID 0000.0001) %MON dynstat_uvel_del2            =   9.9795969198127E-05
(PID.TID 0000.0001) %MON dynstat_vvel_max             =   1.0535150544100E-01
(PID.TID 0000.0001) %MON dynstat_vvel_min             =  -9.7047324951742E-02
(PID.TID 0000.0001) %MON dynstat_vvel_mean            =   4.5545734979995E-03
(PID.TID 0000.0001) %MON dynstat_vvel_sd              =   1.4647594423661E-02
(PID.TID 0000.0001) %MON dynstat_vvel_del2            =   1.1571263132412E-04
(PID.TID 0000.0001) %MON dynstat_wvel_max             =   2.5331621478339E-04
(PID.TID 0000.0001) %MON dynstat_wvel_min             =  -3.3599355836536E-04
(PID.TID 0000.0001) %MON dynstat_wvel_mean            =  -1.8789927225977E-22
(PID.TID 0000.0001) %MON dynstat_wvel_sd              =   3.4689015685700E-05
(PID.TID 0000.0001) %MON dynstat_wvel_del2            =   3.7814152689697E-07
(PID.TID 0000.0001) %MON dynstat_theta_max            =   2.9547337850313E+01
(PID.TID 0000.0001) %MON dynstat_theta_min            =  -2.0386334441587E+00
(PID.TID 0000.0001) %MON dynstat_theta_mean           =   3.6024525699771E+00
(PID.TID 0000.0001) %MON dynstat_theta_sd             =   4.3784701139739E+00
(PID.TID 0000.0001) %MON dynstat_theta_del2           =   5.1606508533706E-03
(PID.TID 0000.0001) %MON dynstat_salt_max             =   3.7433648152210E+01
(PID.TID 0000.0001) %MON dynstat_salt_min             =   2.9785262880552E+01
(PID.TID 0000.0001) %MON dynstat_salt_mean            =   3.4716596780193E+01
(PID.TID 0000.0001) %MON dynstat_salt_sd              =   2.9610498023089E-01
(PID.TID 0000.0001) %MON dynstat_salt_del2            =   1.0061352281453E-03
(PID.TID 0000.0001) %MON forcing_qnet_max             =   4.3165583801270E+02
(PID.TID 0000.0001) %MON forcing_qnet_min             =  -1.8445759099325E+02
(PID.TID 0000.0001) %MON forcing_qnet_mean            =  -1.6631389581363E+01
(PID.TID 0000.0001) %MON forcing_qnet_sd              =   1.1169381708650E+02
(PID.TID 0000.0001) %MON forcing_qnet_del2            =   9.9869124204146E-01
(PID.TID 0000.0001) %MON forcing_qsw_max              =   0.0000000000000E+00
(PID.TID 0000.0001) %MON forcing_qsw_min              =   0.0000000000000E+00
(PID.TID 0000.0001) %MON forcing_qsw_mean             =   0.0000000000000E+00
(PID.TID 0000.0001) %MON forcing_qsw_sd               =   0.0000000000000E+00
(PID.TID 0000.0001) %MON forcing_qsw_del2             =   0.0000000000000E+00
(PID.TID 0000.0001) %MON forcing_empmr_max            =   0.0000000000000E+00
(PID.TID 0000.0001) %MON forcing_empmr_min            =   0.0000000000000E+00
(PID.TID 0000.0001) %MON forcing_empmr_mean           =   0.0000000000000E+00
(PID.TID 0000.0001) %MON forcing_empmr_sd             =   0.0000000000000E+00
(PID.TID 0000.0001) %MON forcing_empmr_del2           =   0.0000000000000E+00
(PID.TID 0000.0001) %MON forcing_fu_max               =   2.6862020255066E-01
(PID.TID 0000.0001) %MON forcing_fu_min               =  -1.6126523415248E-01
(PID.TID 0000.0001) %MON forcing_fu_mean              =   1.6125417245108E-02
(PID.TID 0000.0001) %MON forcing_fu_sd                =   8.9862178896878E-02
(PID.TID 0000.0001) %MON forcing_fu_del2              =   6.4359850878124E-04
(PID.TID 0000.0001) %MON forcing_fv_max               =   2.0738956056302E-01
(PID.TID 0000.0001) %MON forcing_fv_min               =  -1.5956836795085E-01
(PID.TID 0000.0001) %MON forcing_fv_mean              =  -5.8070624278787E-03
(PID.TID 0000.0001) %MON forcing_fv_sd                =   4.4452747637466E-02
(PID.TID 0000.0001) %MON forcing_fv_del2              =   3.4743181910017E-04
(PID.TID 0000.0001) %MON trAdv_CFL_u_max              =   1.6589212539306E-02
(PID.TID 0000.0001) %MON trAdv_CFL_v_max              =   1.3634048686382E-02
(PID.TID 0000.0001) %MON trAdv_CFL_w_max              =   8.9461757583971E-02
(PID.TID 0000.0001) %MON advcfl_uvel_max              =   1.9464459406734E-02
(PID.TID 0000.0001) %MON advcfl_vvel_max              =   1.0234053936088E-02
(PID.TID 0000.0001) %MON advcfl_wvel_max              =   1.8848855087391E-01
(PID.TID 0000.0001) %MON advcfl_W_hf_max              =   8.2488346594628E-02
(PID.TID 0000.0001) %MON pe_b_mean                    =   1.2446636139640E-04
(PID.TID 0000.0001) %MON ke_max                       =   7.5142256703530E-03
(PID.TID 0000.0001) %MON ke_mean                      =   2.2476159099651E-04
(PID.TID 0000.0001) %MON ke_vol                       =   1.3226782436723E+18
(PID.TID 0000.0001) %MON vort_r_min                   =  -3.2447696945022E-07
(PID.TID 0000.0001) %MON vort_r_max                   =   5.6133478688746E-07
(PID.TID 0000.0001) %MON vort_a_mean                  =  -2.5205769737611E-05
(PID.TID 0000.0001) %MON vort_a_sd                    =   7.3401555178925E-05
(PID.TID 0000.0001) %MON vort_p_mean                  =  -3.1758669991117E-05
(PID.TID 0000.0001) %MON vort_p_sd                    =   1.3126099749859E-04
(PID.TID 0000.0001) %MON surfExpan_theta_mean         =   1.3574011054596E-04
(PID.TID 0000.0001) %MON surfExpan_salt_mean          =   9.6839830976433E-06
(PID.TID 0000.0001) // =======================================================
(PID.TID 0000.0001) // End MONITOR dynamic field statistics
(PID.TID 0000.0001) // =======================================================
(PID.TID 0000.0001) EXF_SET_FLD: processing field "climsst",  file: lev_sst.bin
(PID.TID 0000.0001) EXF_SET_FLD:   myIter, count0, count1:        12     12      1
(PID.TID 0000.0001) EXF_SET_FLD:   first, changed, fac:   F   F    0.29999999999999999
(PID.TID 0000.0001) EXF_SET_FLD: processing field "climsss",  file: lev_sss.bin
(PID.TID 0000.0001) EXF_SET_FLD:   myIter, count0, count1:        12     12      1
(PID.TID 0000.0001) EXF_SET_FLD:   first, changed, fac:   F   F    0.30000000000000004
(PID.TID 0000.0001) EXF_SET_FLD: processing field "ustress",  file: trenberth_taux.bin
(PID.TID 0000.0001) EXF_SET_FLD:   myIter, count0, count1:        12     12      1
(PID.TID 0000.0001) EXF_SET_FLD:   first, changed, fac:   F   F    0.30000000000000004
(PID.TID 0000.0001) EXF_SET_FLD: processing field "vstress",  file: trenberth_tauy.bin
(PID.TID 0000.0001) EXF_SET_FLD:   myIter, count0, count1:        12     12      1
(PID.TID 0000.0001) EXF_SET_FLD:   first, changed, fac:   F   F    0.30000000000000004
(PID.TID 0000.0001) EXF_SET_FLD: processing field "hflux",  file: ncep_qnet.bin
(PID.TID 0000.0001) EXF_SET_FLD:   myIter, count0, count1:        12     12      1
(PID.TID 0000.0001) EXF_SET_FLD:   first, changed, fac:   F   F    0.30000000000000004
(PID.TID 0000.0001) // =======================================================
(PID.TID 0000.0001) // Begin MONITOR EXF statistics
(PID.TID 0000.0001) // =======================================================
(PID.TID 0000.0001) %MON exf_tsnumber                 =                    12
(PID.TID 0000.0001) %MON exf_time_sec                 =   5.1840000000000E+05
(PID.TID 0000.0001) %MON exf_ustress_max              =   2.7278057355434E-01
(PID.TID 0000.0001) %MON exf_ustress_min              =  -1.6204007957131E-01
(PID.TID 0000.0001) %MON exf_ustress_mean             =   1.5069494494804E-02
(PID.TID 0000.0001) %MON exf_ustress_sd               =   8.8660550963165E-02
(PID.TID 0000.0001) %MON exf_ustress_del2             =   6.7710616705186E-04
(PID.TID 0000.0001) %MON exf_vstress_max              =   2.1184164923616E-01
(PID.TID 0000.0001) %MON exf_vstress_min              =  -1.6232931828126E-01
(PID.TID 0000.0001) %MON exf_vstress_mean             =  -6.0825274740630E-03
(PID.TID 0000.0001) %MON exf_vstress_sd               =   4.5574538967972E-02
(PID.TID 0000.0001) %MON exf_vstress_del2             =   4.2380813588099E-04
(PID.TID 0000.0001) %MON exf_hflux_max                =   4.3217993164062E+02
(PID.TID 0000.0001) %MON exf_hflux_min                =  -1.8422400970459E+02
(PID.TID 0000.0001) %MON exf_hflux_mean               =  -1.6625133603452E+01
(PID.TID 0000.0001) %MON exf_hflux_sd                 =   1.1159198929743E+02
(PID.TID 0000.0001) %MON exf_hflux_del2               =   1.2208241702206E+00
(PID.TID 0000.0001) %MON exf_climsst_max              =   2.9478125381470E+01
(PID.TID 0000.0001) %MON exf_climsst_min              =  -1.9000000000000E+00
(PID.TID 0000.0001) %MON exf_climsst_mean             =   1.8412684369156E+01
(PID.TID 0000.0001) %MON exf_climsst_sd               =   9.1924824144406E+00
(PID.TID 0000.0001) %MON exf_climsst_del2             =   2.4491084734316E-02
(PID.TID 0000.0001) %MON exf_climsss_max              =   3.7461027526855E+01
(PID.TID 0000.0001) %MON exf_climsss_min              =   2.9697965431213E+01
(PID.TID 0000.0001) %MON exf_climsss_mean             =   3.4848022074433E+01
(PID.TID 0000.0001) %MON exf_climsss_sd               =   9.6437211486778E-01
(PID.TID 0000.0001) %MON exf_climsss_del2             =   7.1456233872971E-03
(PID.TID 0000.0001) // =======================================================
(PID.TID 0000.0001) // End MONITOR EXF statistics
(PID.TID 0000.0001) // =======================================================
 cg2d: Sum(rhs),rhsMax =  -8.14459610865015E-13  8.38089351465696E+00
(PID.TID 0000.0001)      cg2d_init_res =   1.06188559150236E+00
(PID.TID 0000.0001)      cg2d_iters(min,last) =      -1      25
(PID.TID 0000.0001)      cg2d_last_res =   7.02710139982488E-14
(PID.TID 0000.0001) // =======================================================
(PID.TID 0000.0001) // Begin MONITOR dynamic field statistics
(PID.TID 0000.0001) // =======================================================
(PID.TID 0000.0001) %MON time_tsnumber                =                    13
(PID.TID 0000.0001) %MON time_secondsf                =   5.6160000000000E+05
(PID.TID 0000.0001) %MON dynstat_eta_max              =   1.0261905389978E+00
(PID.TID 0000.0001) %MON dynstat_eta_min              =  -1.0380883077541E+00
(PID.TID 0000.0001) %MON dynstat_eta_mean             =   4.6730811718418E-16
(PID.TID 0000.0001) %MON dynstat_eta_sd               =   3.2705327157100E-01
(PID.TID 0000.0001) %MON dynstat_eta_del2             =   2.2209217632646E-03
(PID.TID 0000.0001) %MON dynstat_uvel_max             =   1.2637824827979E-01
(PID.TID 0000.0001) %MON dynstat_uvel_min             =  -1.2936449697762E-01
(PID.TID 0000.0001) %MON dynstat_uvel_mean            =  -9.5126047282237E-03
(PID.TID 0000.0001) %MON dynstat_uvel_sd              =   1.4335168173621E-02
(PID.TID 0000.0001) %MON dynstat_uvel_del2            =   1.0293975670450E-04
(PID.TID 0000.0001) %MON dynstat_vvel_max             =   1.0913720760201E-01
(PID.TID 0000.0001) %MON dynstat_vvel_min             =  -9.8414431702809E-02
(PID.TID 0000.0001) %MON dynstat_vvel_mean            =   4.2769577249625E-03
(PID.TID 0000.0001) %MON dynstat_vvel_sd              =   1.4365908842979E-02
(PID.TID 0000.0001) %MON dynstat_vvel_del2            =   1.1632978691141E-04
(PID.TID 0000.0001) %MON dynstat_wvel_max             =   2.5432590716183E-04
(PID.TID 0000.0001) %MON dynstat_wvel_min             =  -3.4375881030051E-04
(PID.TID 0000.0001) %MON dynstat_wvel_mean            =  -6.1067263484424E-22
(PID.TID 0000.0001) %MON dynstat_wvel_sd              =   3.3980204634865E-05
(PID.TID 0000.0001) %MON dynstat_wvel_del2            =   3.6858651040792E-07
(PID.TID 0000.0001) %MON dynstat_theta_max            =   2.9557024426984E+01
(PID.TID 0000.0001) %MON dynstat_theta_min            =  -2.0188246848551E+00
(PID.TID 0000.0001) %MON dynstat_theta_mean           =   3.6010331879220E+00
(PID.TID 0000.0001) %MON dynstat_theta_sd             =   4.3745910429358E+00
(PID.TID 0000.0001) %MON dynstat_theta_del2           =   5.1303529672303E-03
(PID.TID 0000.0001) %MON dynstat_salt_max             =   3.7431812830460E+01
(PID.TID 0000.0001) %MON dynstat_salt_min             =   2.9786528031252E+01
(PID.TID 0000.0001) %MON dynstat_salt_mean            =   3.4716495795203E+01
(PID.TID 0000.0001) %MON dynstat_salt_sd              =   2.9607638934429E-01
(PID.TID 0000.0001) %MON dynstat_salt_del2            =   1.0051981704471E-03
(PID.TID 0000.0001) %MON forcing_qnet_max             =   4.3217993164062E+02
(PID.TID 0000.0001) %MON forcing_qnet_min             =  -1.8422400970459E+02
(PID.TID 0000.0001) %MON forcing_qnet_mean            =  -1.6625133603452E+01
(PID.TID 0000.0001) %MON forcing_qnet_sd              =   1.1159198929743E+02
(PID.TID 0000.0001) %MON forcing_qnet_del2            =   9.9967143614056E-01
(PID.TID 0000.0001) %MON forcing_qsw_max              =   0.0000000000000E+00
(PID.TID 0000.0001) %MON forcing_qsw_min              =   0.0000000000000E+00
(PID.TID 0000.0001) %MON forcing_qsw_mean             =   0.0000000000000E+00
(PID.TID 0000.0001) %MON forcing_qsw_sd               =   0.0000000000000E+00
(PID.TID 0000.0001) %MON forcing_qsw_del2             =   0.0000000000000E+00
(PID.TID 0000.0001) %MON forcing_empmr_max            =   0.0000000000000E+00
(PID.TID 0000.0001) %MON forcing_empmr_min            =   0.0000000000000E+00
(PID.TID 0000.0001) %MON forcing_empmr_mean           =   0.0000000000000E+00
(PID.TID 0000.0001) %MON forcing_empmr_sd             =   0.0000000000000E+00
(PID.TID 0000.0001) %MON forcing_empmr_del2           =   0.0000000000000E+00
(PID.TID 0000.0001) %MON forcing_fu_max               =   2.6870626164600E-01
(PID.TID 0000.0001) %MON forcing_fu_min               =  -1.6169896395877E-01
(PID.TID 0000.0001) %MON forcing_fu_mean              =   1.6121322355668E-02
(PID.TID 0000.0001) %MON forcing_fu_sd                =   8.9882467705987E-02
(PID.TID 0000.0001) %MON forcing_fu_del2              =   6.4540084055204E-04
(PID.TID 0000.0001) %MON forcing_fv_max               =   2.0836556965951E-01
(PID.TID 0000.0001) %MON forcing_fv_min               =  -1.6014518010197E-01
(PID.TID 0000.0001) %MON forcing_fv_mean              =  -5.7714615071160E-03
(PID.TID 0000.0001) %MON forcing_fv_sd                =   4.4541590239798E-02
(PID.TID 0000.0001) %MON forcing_fv_del2              =   3.4837753989848E-04
(PID.TID 0000.0001) %MON trAdv_CFL_u_max              =   1.9468412777652E-02
(PID.TID 0000.0001) %MON trAdv_CFL_v_max              =   1.2992875847379E-02
(PID.TID 0000.0001) %MON trAdv_CFL_w_max              =   8.1883181953042E-02
(PID.TID 0000.0001) %MON advcfl_uvel_max              =   2.2473429464852E-02
(PID.TID 0000.0001) %MON advcfl_vvel_max              =   1.0601804543349E-02
(PID.TID 0000.0001) %MON advcfl_wvel_max              =   1.8874064859664E-01
(PID.TID 0000.0001) %MON advcfl_W_hf_max              =   8.2526990644115E-02
(PID.TID 0000.0001) %MON pe_b_mean                    =   1.3687312906349E-04
(PID.TID 0000.0001) %MON ke_max                       =   8.4431500594441E-03
(PID.TID 0000.0001) %MON ke_mean                      =   2.3533621242490E-04
(PID.TID 0000.0001) %MON ke_vol                       =   1.3226782436723E+18
(PID.TID 0000.0001) %MON vort_r_min                   =  -3.1712279609546E-07
(PID.TID 0000.0001) %MON vort_r_max                   =   5.7359977262715E-07
(PID.TID 0000.0001) %MON vort_a_mean                  =  -2.5205769766068E-05
(PID.TID 0000.0001) %MON vort_a_sd                    =   7.3401458536912E-05
(PID.TID 0000.0001) %MON vort_p_mean                  =  -3.1758670026972E-05
(PID.TID 0000.0001) %MON vort_p_sd                    =   1.3126059717336E-04
(PID.TID 0000.0001) %MON surfExpan_theta_mean         =   1.2364187435860E-04
(PID.TID 0000.0001) %MON surfExpan_salt_mean          =   8.3832631372474E-06
(PID.TID 0000.0001) // =======================================================
(PID.TID 0000.0001) // End MONITOR dynamic field statistics
(PID.TID 0000.0001) // =======================================================
(PID.TID 0000.0001) EXF_SET_FLD: processing field "climsst",  file: lev_sst.bin
(PID.TID 0000.0001) EXF_SET_FLD:   myIter, count0, count1:        13     12      1
(PID.TID 0000.0001) EXF_SET_FLD:   first, changed, fac:   F   F    0.28333333333333333
(PID.TID 0000.0001) EXF_SET_FLD: processing field "climsss",  file: lev_sss.bin
(PID.TID 0000.0001) EXF_SET_FLD:   myIter, count0, count1:        13     12      1
(PID.TID 0000.0001) EXF_SET_FLD:   first, changed, fac:   F   F    0.28333333333333333
(PID.TID 0000.0001) EXF_SET_FLD: processing field "ustress",  file: trenberth_taux.bin
(PID.TID 0000.0001) EXF_SET_FLD:   myIter, count0, count1:        13     12      1
(PID.TID 0000.0001) EXF_SET_FLD:   first, changed, fac:   F   F    0.28333333333333333
(PID.TID 0000.0001) EXF_SET_FLD: processing field "vstress",  file: trenberth_tauy.bin
(PID.TID 0000.0001) EXF_SET_FLD:   myIter, count0, count1:        13     12      1
(PID.TID 0000.0001) EXF_SET_FLD:   first, changed, fac:   F   F    0.28333333333333333
(PID.TID 0000.0001) EXF_SET_FLD: processing field "hflux",  file: ncep_qnet.bin
(PID.TID 0000.0001) EXF_SET_FLD:   myIter, count0, count1:        13     12      1
(PID.TID 0000.0001) EXF_SET_FLD:   first, changed, fac:   F   F    0.28333333333333333
(PID.TID 0000.0001) // =======================================================
(PID.TID 0000.0001) // Begin MONITOR EXF statistics
(PID.TID 0000.0001) // =======================================================
(PID.TID 0000.0001) %MON exf_tsnumber                 =                    13
(PID.TID 0000.0001) %MON exf_time_sec                 =   5.6160000000000E+05
(PID.TID 0000.0001) %MON exf_ustress_max              =   2.7259166622534E-01
(PID.TID 0000.0001) %MON exf_ustress_min              =  -1.6234322255477E-01
(PID.TID 0000.0001) %MON exf_ustress_mean             =   1.5066997524119E-02
(PID.TID 0000.0001) %MON exf_ustress_sd               =   8.8684121304751E-02
(PID.TID 0000.0001) %MON exf_ustress_del2             =   6.7895254018773E-04
(PID.TID 0000.0001) %MON exf_vstress_max              =   2.1254554812331E-01
(PID.TID 0000.0001) %MON exf_vstress_min              =  -1.6326553137042E-01
(PID.TID 0000.0001) %MON exf_vstress_mean             =  -6.0485982332686E-03
(PID.TID 0000.0001) %MON exf_vstress_sd               =   4.5665630655071E-02
(PID.TID 0000.0001) %MON exf_vstress_del2             =   4.2467078094477E-04
(PID.TID 0000.0001) %MON exf_hflux_max                =   4.3270402526855E+02
(PID.TID 0000.0001) %MON exf_hflux_min                =  -1.8399042841593E+02
(PID.TID 0000.0001) %MON exf_hflux_mean               =  -1.6618877625540E+01
(PID.TID 0000.0001) %MON exf_hflux_sd                 =   1.1149081697469E+02
(PID.TID 0000.0001) %MON exf_hflux_del2               =   1.2215015232316E+00
(PID.TID 0000.0001) %MON exf_climsst_max              =   2.9476215553284E+01
(PID.TID 0000.0001) %MON exf_climsst_min              =  -1.9000000000000E+00
(PID.TID 0000.0001) %MON exf_climsst_mean             =   1.8416675968041E+01
(PID.TID 0000.0001) %MON exf_climsst_sd               =   9.1912450185316E+00
(PID.TID 0000.0001) %MON exf_climsst_del2             =   2.4569225445114E-02
(PID.TID 0000.0001) %MON exf_climsss_max              =   3.7461838658651E+01
(PID.TID 0000.0001) %MON exf_climsss_min              =   2.9701010100047E+01
(PID.TID 0000.0001) %MON exf_climsss_mean             =   3.4848127807810E+01
(PID.TID 0000.0001) %MON exf_climsss_sd               =   9.6413011011535E-01
(PID.TID 0000.0001) %MON exf_climsss_del2             =   7.1738945713551E-03
(PID.TID 0000.0001) // =======================================================
(PID.TID 0000.0001) // End MONITOR EXF statistics
(PID.TID 0000.0001) // =======================================================
 cg2d: Sum(rhs),rhsMax =  -8.61533067109121E-13  9.04747251601617E+00
(PID.TID 0000.0001)      cg2d_init_res =   9.50981263754211E-01
(PID.TID 0000.0001)      cg2d_iters(min,last) =      -1      25
(PID.TID 0000.0001)      cg2d_last_res =   5.98888296335442E-14
(PID.TID 0000.0001) // =======================================================
(PID.TID 0000.0001) // Begin MONITOR dynamic field statistics
(PID.TID 0000.0001) // =======================================================
(PID.TID 0000.0001) %MON time_tsnumber                =                    14
(PID.TID 0000.0001) %MON time_secondsf                =   6.0480000000000E+05
(PID.TID 0000.0001) %MON dynstat_eta_max              =   1.0934383896444E+00
(PID.TID 0000.0001) %MON dynstat_eta_min              =  -1.1027990440506E+00
(PID.TID 0000.0001) %MON dynstat_eta_mean             =   4.8225110930344E-16
(PID.TID 0000.0001) %MON dynstat_eta_sd               =   3.3988084548475E-01
(PID.TID 0000.0001) %MON dynstat_eta_del2             =   2.1681752590172E-03
(PID.TID 0000.0001) %MON dynstat_uvel_max             =   1.3289028003206E-01
(PID.TID 0000.0001) %MON dynstat_uvel_min             =  -1.2479310697294E-01
(PID.TID 0000.0001) %MON dynstat_uvel_mean            =  -9.8516682091578E-03
(PID.TID 0000.0001) %MON dynstat_uvel_sd              =   1.5122463640200E-02
(PID.TID 0000.0001) %MON dynstat_uvel_del2            =   1.0549070480267E-04
(PID.TID 0000.0001) %MON dynstat_vvel_max             =   1.2006425495645E-01
(PID.TID 0000.0001) %MON dynstat_vvel_min             =  -9.8994121544522E-02
(PID.TID 0000.0001) %MON dynstat_vvel_mean            =   3.9575685198323E-03
(PID.TID 0000.0001) %MON dynstat_vvel_sd              =   1.4056121607233E-02
(PID.TID 0000.0001) %MON dynstat_vvel_del2            =   1.1606184659100E-04
(PID.TID 0000.0001) %MON dynstat_wvel_max             =   2.5190784848728E-04
(PID.TID 0000.0001) %MON dynstat_wvel_min             =  -3.4522184835490E-04
(PID.TID 0000.0001) %MON dynstat_wvel_mean            =   4.9323558968189E-22
(PID.TID 0000.0001) %MON dynstat_wvel_sd              =   3.3065899654159E-05
(PID.TID 0000.0001) %MON dynstat_wvel_del2            =   3.5591658180272E-07
(PID.TID 0000.0001) %MON dynstat_theta_max            =   2.9558011435686E+01
(PID.TID 0000.0001) %MON dynstat_theta_min            =  -2.0291598771000E+00
(PID.TID 0000.0001) %MON dynstat_theta_mean           =   3.5997597766330E+00
(PID.TID 0000.0001) %MON dynstat_theta_sd             =   4.3708920795004E+00
(PID.TID 0000.0001) %MON dynstat_theta_del2           =   5.1012142639414E-03
(PID.TID 0000.0001) %MON dynstat_salt_max             =   3.7430071525868E+01
(PID.TID 0000.0001) %MON dynstat_salt_min             =   2.9787404369012E+01
(PID.TID 0000.0001) %MON dynstat_salt_mean            =   3.4716410141370E+01
(PID.TID 0000.0001) %MON dynstat_salt_sd              =   2.9604476241443E-01
(PID.TID 0000.0001) %MON dynstat_salt_del2            =   1.0043496602168E-03
(PID.TID 0000.0001) %MON forcing_qnet_max             =   4.3270402526855E+02
(PID.TID 0000.0001) %MON forcing_qnet_min             =  -1.8399042841593E+02
(PID.TID 0000.0001) %MON forcing_qnet_mean            =  -1.6618877625540E+01
(PID.TID 0000.0001) %MON forcing_qnet_sd              =   1.1149081697469E+02
(PID.TID 0000.0001) %MON forcing_qnet_del2            =   1.0006949178629E+00
(PID.TID 0000.0001) %MON forcing_qsw_max              =   0.0000000000000E+00
(PID.TID 0000.0001) %MON forcing_qsw_min              =   0.0000000000000E+00
(PID.TID 0000.0001) %MON forcing_qsw_mean             =   0.0000000000000E+00
(PID.TID 0000.0001) %MON forcing_qsw_sd               =   0.0000000000000E+00
(PID.TID 0000.0001) %MON forcing_qsw_del2             =   0.0000000000000E+00
(PID.TID 0000.0001) %MON forcing_empmr_max            =   0.0000000000000E+00
(PID.TID 0000.0001) %MON forcing_empmr_min            =   0.0000000000000E+00
(PID.TID 0000.0001) %MON forcing_empmr_mean           =   0.0000000000000E+00
(PID.TID 0000.0001) %MON forcing_empmr_sd             =   0.0000000000000E+00
(PID.TID 0000.0001) %MON forcing_empmr_del2           =   0.0000000000000E+00
(PID.TID 0000.0001) %MON forcing_fu_max               =   2.6879232074134E-01
(PID.TID 0000.0001) %MON forcing_fu_min               =  -1.6213269376506E-01
(PID.TID 0000.0001) %MON forcing_fu_mean              =   1.6117227466228E-02
(PID.TID 0000.0001) %MON forcing_fu_sd                =   8.9905384000475E-02
(PID.TID 0000.0001) %MON forcing_fu_del2              =   6.4731122529971E-04
(PID.TID 0000.0001) %MON forcing_fv_max               =   2.0934157875599E-01
(PID.TID 0000.0001) %MON forcing_fv_min               =  -1.6072199225309E-01
(PID.TID 0000.0001) %MON forcing_fv_mean              =  -5.7358605863532E-03
(PID.TID 0000.0001) %MON forcing_fv_sd                =   4.4633798631419E-02
(PID.TID 0000.0001) %MON forcing_fv_del2              =   3.4940176014157E-04
(PID.TID 0000.0001) %MON trAdv_CFL_u_max              =   2.2477993979109E-02
(PID.TID 0000.0001) %MON trAdv_CFL_v_max              =   1.1931891800029E-02
(PID.TID 0000.0001) %MON trAdv_CFL_w_max              =   8.2526990644115E-02
(PID.TID 0000.0001) %MON advcfl_uvel_max              =   2.4555918607802E-02
(PID.TID 0000.0001) %MON advcfl_vvel_max              =   1.1663279569448E-02
(PID.TID 0000.0001) %MON advcfl_wvel_max              =   1.7490778231291E-01
(PID.TID 0000.0001) %MON advcfl_W_hf_max              =   7.6864607368276E-02
(PID.TID 0000.0001) %MON pe_b_mean                    =   1.4782047041933E-04
(PID.TID 0000.0001) %MON ke_max                       =   9.3350638327139E-03
(PID.TID 0000.0001) %MON ke_mean                      =   2.4372194676249E-04
(PID.TID 0000.0001) %MON ke_vol                       =   1.3226782436723E+18
(PID.TID 0000.0001) %MON vort_r_min                   =  -3.2818621327677E-07
(PID.TID 0000.0001) %MON vort_r_max                   =   5.7078812899147E-07
(PID.TID 0000.0001) %MON vort_a_mean                  =  -2.5205769769592E-05
(PID.TID 0000.0001) %MON vort_a_sd                    =   7.3401386409307E-05
(PID.TID 0000.0001) %MON vort_p_mean                  =  -3.1758670031412E-05
(PID.TID 0000.0001) %MON vort_p_sd                    =   1.3126029172980E-04
(PID.TID 0000.0001) %MON surfExpan_theta_mean         =   1.1064938407070E-04
(PID.TID 0000.0001) %MON surfExpan_salt_mean          =   7.0366812837354E-06
(PID.TID 0000.0001) // =======================================================
(PID.TID 0000.0001) // End MONITOR dynamic field statistics
(PID.TID 0000.0001) // =======================================================
(PID.TID 0000.0001) EXF_SET_FLD: processing field "climsst",  file: lev_sst.bin
(PID.TID 0000.0001) EXF_SET_FLD:   myIter, count0, count1:        14     12      1
(PID.TID 0000.0001) EXF_SET_FLD:   first, changed, fac:   F   F    0.26666666666666666
(PID.TID 0000.0001) EXF_SET_FLD: processing field "climsss",  file: lev_sss.bin
(PID.TID 0000.0001) EXF_SET_FLD:   myIter, count0, count1:        14     12      1
(PID.TID 0000.0001) EXF_SET_FLD:   first, changed, fac:   F   F    0.26666666666666672
(PID.TID 0000.0001) EXF_SET_FLD: processing field "ustress",  file: trenberth_taux.bin
(PID.TID 0000.0001) EXF_SET_FLD:   myIter, count0, count1:        14     12      1
(PID.TID 0000.0001) EXF_SET_FLD:   first, changed, fac:   F   F    0.26666666666666672
(PID.TID 0000.0001) EXF_SET_FLD: processing field "vstress",  file: trenberth_tauy.bin
(PID.TID 0000.0001) EXF_SET_FLD:   myIter, count0, count1:        14     12      1
(PID.TID 0000.0001) EXF_SET_FLD:   first, changed, fac:   F   F    0.26666666666666672
(PID.TID 0000.0001) EXF_SET_FLD: processing field "hflux",  file: ncep_qnet.bin
(PID.TID 0000.0001) EXF_SET_FLD:   myIter, count0, count1:        14     12      1
(PID.TID 0000.0001) EXF_SET_FLD:   first, changed, fac:   F   F    0.26666666666666672
(PID.TID 0000.0001) // =======================================================
(PID.TID 0000.0001) // Begin MONITOR EXF statistics
(PID.TID 0000.0001) // =======================================================
(PID.TID 0000.0001) %MON exf_tsnumber                 =                    14
(PID.TID 0000.0001) %MON exf_time_sec                 =   6.0480000000000E+05
(PID.TID 0000.0001) %MON exf_ustress_max              =   2.7240275889635E-01
(PID.TID 0000.0001) %MON exf_ustress_min              =  -1.6264636553824E-01
(PID.TID 0000.0001) %MON exf_ustress_mean             =   1.5064500553434E-02
(PID.TID 0000.0001) %MON exf_ustress_sd               =   8.8710343813233E-02
(PID.TID 0000.0001) %MON exf_ustress_del2             =   6.8091180493493E-04
(PID.TID 0000.0001) %MON exf_vstress_max              =   2.1324944701046E-01
(PID.TID 0000.0001) %MON exf_vstress_min              =  -1.6420174445957E-01
(PID.TID 0000.0001) %MON exf_vstress_mean             =  -6.0146689924742E-03
(PID.TID 0000.0001) %MON exf_vstress_sd               =   4.5760232629959E-02
(PID.TID 0000.0001) %MON exf_vstress_del2             =   4.2562322227360E-04
(PID.TID 0000.0001) %MON exf_hflux_max                =   4.3322811889648E+02
(PID.TID 0000.0001) %MON exf_hflux_min                =  -1.8375684712728E+02
(PID.TID 0000.0001) %MON exf_hflux_mean               =  -1.6612621647628E+01
(PID.TID 0000.0001) %MON exf_hflux_sd                 =   1.1139030190430E+02
(PID.TID 0000.0001) %MON exf_hflux_del2               =   1.2222158124220E+00
(PID.TID 0000.0001) %MON exf_climsst_max              =   2.9474305725098E+01
(PID.TID 0000.0001) %MON exf_climsst_min              =  -1.9000000000000E+00
(PID.TID 0000.0001) %MON exf_climsst_mean             =   1.8420667566925E+01
(PID.TID 0000.0001) %MON exf_climsst_sd               =   9.1900722322793E+00
(PID.TID 0000.0001) %MON exf_climsst_del2             =   2.4656686220686E-02
(PID.TID 0000.0001) %MON exf_climsss_max              =   3.7462649790446E+01
(PID.TID 0000.0001) %MON exf_climsss_min              =   2.9704054768880E+01
(PID.TID 0000.0001) %MON exf_climsss_mean             =   3.4848233541186E+01
(PID.TID 0000.0001) %MON exf_climsss_sd               =   9.6391049462693E-01
(PID.TID 0000.0001) %MON exf_climsss_del2             =   7.2049765452619E-03
(PID.TID 0000.0001) // =======================================================
(PID.TID 0000.0001) // End MONITOR EXF statistics
(PID.TID 0000.0001) // =======================================================
 cg2d: Sum(rhs),rhsMax =  -7.99360577730113E-13  9.52422654462504E+00
(PID.TID 0000.0001)      cg2d_init_res =   8.76857469229895E-01
(PID.TID 0000.0001)      cg2d_iters(min,last) =      -1      25
(PID.TID 0000.0001)      cg2d_last_res =   5.15511958714129E-14
(PID.TID 0000.0001) // =======================================================
(PID.TID 0000.0001) // Begin MONITOR dynamic field statistics
(PID.TID 0000.0001) // =======================================================
(PID.TID 0000.0001) %MON time_tsnumber                =                    15
(PID.TID 0000.0001) %MON time_secondsf                =   6.4800000000000E+05
(PID.TID 0000.0001) %MON dynstat_eta_max              =   1.1492937262996E+00
(PID.TID 0000.0001) %MON dynstat_eta_min              =  -1.1385613990033E+00
(PID.TID 0000.0001) %MON dynstat_eta_mean             =   4.6594966335516E-16
(PID.TID 0000.0001) %MON dynstat_eta_sd               =   3.5039611761804E-01
(PID.TID 0000.0001) %MON dynstat_eta_del2             =   2.1232379344456E-03
(PID.TID 0000.0001) %MON dynstat_uvel_max             =   1.4184093714309E-01
(PID.TID 0000.0001) %MON dynstat_uvel_min             =  -1.2602345462500E-01
(PID.TID 0000.0001) %MON dynstat_uvel_mean            =  -1.0050659440839E-02
(PID.TID 0000.0001) %MON dynstat_uvel_sd              =   1.5797498238311E-02
(PID.TID 0000.0001) %MON dynstat_uvel_del2            =   1.0750851996816E-04
(PID.TID 0000.0001) %MON dynstat_vvel_max             =   1.3260797995344E-01
(PID.TID 0000.0001) %MON dynstat_vvel_min             =  -1.0126543769371E-01
(PID.TID 0000.0001) %MON dynstat_vvel_mean            =   3.6185689341860E-03
(PID.TID 0000.0001) %MON dynstat_vvel_sd              =   1.3755820529613E-02
(PID.TID 0000.0001) %MON dynstat_vvel_del2            =   1.1511891644662E-04
(PID.TID 0000.0001) %MON dynstat_wvel_max             =   2.4649307621899E-04
(PID.TID 0000.0001) %MON dynstat_wvel_min             =  -3.4096304445551E-04
(PID.TID 0000.0001) %MON dynstat_wvel_mean            =   2.4661779484094E-22
(PID.TID 0000.0001) %MON dynstat_wvel_sd              =   3.2017323673420E-05
(PID.TID 0000.0001) %MON dynstat_wvel_del2            =   3.4114717172204E-07
(PID.TID 0000.0001) %MON dynstat_theta_max            =   2.9547910496008E+01
(PID.TID 0000.0001) %MON dynstat_theta_min            =  -2.0155758062678E+00
(PID.TID 0000.0001) %MON dynstat_theta_mean           =   3.5986392297315E+00
(PID.TID 0000.0001) %MON dynstat_theta_sd             =   4.3674132348138E+00
(PID.TID 0000.0001) %MON dynstat_theta_del2           =   5.0737334293383E-03
(PID.TID 0000.0001) %MON dynstat_salt_max             =   3.7428394957720E+01
(PID.TID 0000.0001) %MON dynstat_salt_min             =   2.9787941009979E+01
(PID.TID 0000.0001) %MON dynstat_salt_mean            =   3.4716339967284E+01
(PID.TID 0000.0001) %MON dynstat_salt_sd              =   2.9601120561330E-01
(PID.TID 0000.0001) %MON dynstat_salt_del2            =   1.0037559851221E-03
(PID.TID 0000.0001) %MON forcing_qnet_max             =   4.3322811889648E+02
(PID.TID 0000.0001) %MON forcing_qnet_min             =  -1.8375684712728E+02
(PID.TID 0000.0001) %MON forcing_qnet_mean            =  -1.6612621647628E+01
(PID.TID 0000.0001) %MON forcing_qnet_sd              =   1.1139030190430E+02
(PID.TID 0000.0001) %MON forcing_qnet_del2            =   1.0017615545299E+00
(PID.TID 0000.0001) %MON forcing_qsw_max              =   0.0000000000000E+00
(PID.TID 0000.0001) %MON forcing_qsw_min              =   0.0000000000000E+00
(PID.TID 0000.0001) %MON forcing_qsw_mean             =   0.0000000000000E+00
(PID.TID 0000.0001) %MON forcing_qsw_sd               =   0.0000000000000E+00
(PID.TID 0000.0001) %MON forcing_qsw_del2             =   0.0000000000000E+00
(PID.TID 0000.0001) %MON forcing_empmr_max            =   0.0000000000000E+00
(PID.TID 0000.0001) %MON forcing_empmr_min            =   0.0000000000000E+00
(PID.TID 0000.0001) %MON forcing_empmr_mean           =   0.0000000000000E+00
(PID.TID 0000.0001) %MON forcing_empmr_sd             =   0.0000000000000E+00
(PID.TID 0000.0001) %MON forcing_empmr_del2           =   0.0000000000000E+00
(PID.TID 0000.0001) %MON forcing_fu_max               =   2.6887837983668E-01
(PID.TID 0000.0001) %MON forcing_fu_min               =  -1.6256642357136E-01
(PID.TID 0000.0001) %MON forcing_fu_mean              =   1.6113132576787E-02
(PID.TID 0000.0001) %MON forcing_fu_sd                =   8.9930925771726E-02
(PID.TID 0000.0001) %MON forcing_fu_del2              =   6.4932870931958E-04
(PID.TID 0000.0001) %MON forcing_fv_max               =   2.1031758785248E-01
(PID.TID 0000.0001) %MON forcing_fv_min               =  -1.6129880440421E-01
(PID.TID 0000.0001) %MON forcing_fv_mean              =  -5.7002596655905E-03
(PID.TID 0000.0001) %MON forcing_fv_sd                =   4.4729351996876E-02
(PID.TID 0000.0001) %MON forcing_fv_del2              =   3.5050379167162E-04
(PID.TID 0000.0001) %MON trAdv_CFL_u_max              =   2.4560906090498E-02
(PID.TID 0000.0001) %MON trAdv_CFL_v_max              =   1.1253613221300E-02
(PID.TID 0000.0001) %MON trAdv_CFL_w_max              =   7.6864607368276E-02
(PID.TID 0000.0001) %MON advcfl_uvel_max              =   2.5424442809883E-02
(PID.TID 0000.0001) %MON advcfl_vvel_max              =   1.2881801864324E-02
(PID.TID 0000.0001) %MON advcfl_wvel_max              =   1.4843432819570E-01
(PID.TID 0000.0001) %MON advcfl_W_hf_max              =   6.7070856028415E-02
(PID.TID 0000.0001) %MON pe_b_mean                    =   1.5710853222220E-04
(PID.TID 0000.0001) %MON ke_max                       =   1.0171359940080E-02
(PID.TID 0000.0001) %MON ke_mean                      =   2.5010111157726E-04
(PID.TID 0000.0001) %MON ke_vol                       =   1.3226782436723E+18
(PID.TID 0000.0001) %MON vort_r_min                   =  -3.5032781501997E-07
(PID.TID 0000.0001) %MON vort_r_max                   =   5.5349716074618E-07
(PID.TID 0000.0001) %MON vort_a_mean                  =  -2.5205769750292E-05
(PID.TID 0000.0001) %MON vort_a_sd                    =   7.3401339698647E-05
(PID.TID 0000.0001) %MON vort_p_mean                  =  -3.1758670007095E-05
(PID.TID 0000.0001) %MON vort_p_sd                    =   1.3126008993635E-04
(PID.TID 0000.0001) %MON surfExpan_theta_mean         =   9.7183928832205E-05
(PID.TID 0000.0001) %MON surfExpan_salt_mean          =   5.6902935269052E-06
(PID.TID 0000.0001) // =======================================================
(PID.TID 0000.0001) // End MONITOR dynamic field statistics
(PID.TID 0000.0001) // =======================================================
(PID.TID 0000.0001) EXF_SET_FLD: processing field "climsst",  file: lev_sst.bin
(PID.TID 0000.0001) EXF_SET_FLD:   myIter, count0, count1:        15     12      1
(PID.TID 0000.0001) EXF_SET_FLD:   first, changed, fac:   F   F    0.25000000000000000
(PID.TID 0000.0001) EXF_SET_FLD: processing field "climsss",  file: lev_sss.bin
(PID.TID 0000.0001) EXF_SET_FLD:   myIter, count0, count1:        15     12      1
(PID.TID 0000.0001) EXF_SET_FLD:   first, changed, fac:   F   F    0.25000000000000000
(PID.TID 0000.0001) EXF_SET_FLD: processing field "ustress",  file: trenberth_taux.bin
(PID.TID 0000.0001) EXF_SET_FLD:   myIter, count0, count1:        15     12      1
(PID.TID 0000.0001) EXF_SET_FLD:   first, changed, fac:   F   F    0.25000000000000000
(PID.TID 0000.0001) EXF_SET_FLD: processing field "vstress",  file: trenberth_tauy.bin
(PID.TID 0000.0001) EXF_SET_FLD:   myIter, count0, count1:        15     12      1
(PID.TID 0000.0001) EXF_SET_FLD:   first, changed, fac:   F   F    0.25000000000000000
(PID.TID 0000.0001) EXF_SET_FLD: processing field "hflux",  file: ncep_qnet.bin
(PID.TID 0000.0001) EXF_SET_FLD:   myIter, count0, count1:        15     12      1
(PID.TID 0000.0001) EXF_SET_FLD:   first, changed, fac:   F   F    0.25000000000000000
(PID.TID 0000.0001) // =======================================================
(PID.TID 0000.0001) // Begin MONITOR EXF statistics
(PID.TID 0000.0001) // =======================================================
(PID.TID 0000.0001) %MON exf_tsnumber                 =                    15
(PID.TID 0000.0001) %MON exf_time_sec                 =   6.4800000000000E+05
(PID.TID 0000.0001) %MON exf_ustress_max              =   2.7221385156736E-01
(PID.TID 0000.0001) %MON exf_ustress_min              =  -1.6305079823360E-01
(PID.TID 0000.0001) %MON exf_ustress_mean             =   1.5062003582749E-02
(PID.TID 0000.0001) %MON exf_ustress_sd               =   8.8739216137460E-02
(PID.TID 0000.0001) %MON exf_ustress_del2             =   6.8298298974190E-04
(PID.TID 0000.0001) %MON exf_vstress_max              =   2.1395334589761E-01
(PID.TID 0000.0001) %MON exf_vstress_min              =  -1.6513795754872E-01
(PID.TID 0000.0001) %MON exf_vstress_mean             =  -5.9807397516799E-03
(PID.TID 0000.0001) %MON exf_vstress_sd               =   4.5858323168329E-02
(PID.TID 0000.0001) %MON exf_vstress_del2             =   4.2666485851295E-04
(PID.TID 0000.0001) %MON exf_hflux_max                =   4.3375221252441E+02
(PID.TID 0000.0001) %MON exf_hflux_min                =  -1.8352326583862E+02
(PID.TID 0000.0001) %MON exf_hflux_mean               =  -1.6606365669717E+01
(PID.TID 0000.0001) %MON exf_hflux_sd                 =   1.1129044586711E+02
(PID.TID 0000.0001) %MON exf_hflux_del2               =   1.2229669730727E+00
(PID.TID 0000.0001) %MON exf_climsst_max              =   2.9472395896912E+01
(PID.TID 0000.0001) %MON exf_climsst_min              =  -1.9000000000000E+00
(PID.TID 0000.0001) %MON exf_climsst_mean             =   1.8424659165810E+01
(PID.TID 0000.0001) %MON exf_climsst_sd               =   9.1889640804223E+00
(PID.TID 0000.0001) %MON exf_climsst_del2             =   2.4753368269815E-02
(PID.TID 0000.0001) %MON exf_climsss_max              =   3.7463460922241E+01
(PID.TID 0000.0001) %MON exf_climsss_min              =   2.9707099437714E+01
(PID.TID 0000.0001) %MON exf_climsss_mean             =   3.4848339274562E+01
(PID.TID 0000.0001) %MON exf_climsss_sd               =   9.6371328370904E-01
(PID.TID 0000.0001) %MON exf_climsss_del2             =   7.2388331023482E-03
(PID.TID 0000.0001) // =======================================================
(PID.TID 0000.0001) // End MONITOR EXF statistics
(PID.TID 0000.0001) // =======================================================
 cg2d: Sum(rhs),rhsMax =  -8.18900502963515E-13  9.79846944473942E+00
(PID.TID 0000.0001)      cg2d_init_res =   8.30578546501825E-01
(PID.TID 0000.0001)      cg2d_iters(min,last) =      -1      25
(PID.TID 0000.0001)      cg2d_last_res =   4.44751644137386E-14
(PID.TID 0000.0001) // =======================================================
(PID.TID 0000.0001) // Begin MONITOR dynamic field statistics
(PID.TID 0000.0001) // =======================================================
(PID.TID 0000.0001) %MON time_tsnumber                =                    16
(PID.TID 0000.0001) %MON time_secondsf                =   6.9120000000000E+05
(PID.TID 0000.0001) %MON dynstat_eta_max              =   1.1814567587416E+00
(PID.TID 0000.0001) %MON dynstat_eta_min              =  -1.1369175598498E+00
(PID.TID 0000.0001) %MON dynstat_eta_mean             =   5.2889135743326E-16
(PID.TID 0000.0001) %MON dynstat_eta_sd               =   3.5870395089677E-01
(PID.TID 0000.0001) %MON dynstat_eta_del2             =   2.0852760901796E-03
(PID.TID 0000.0001) %MON dynstat_uvel_max             =   1.4994541969568E-01
(PID.TID 0000.0001) %MON dynstat_uvel_min             =  -1.2682753888236E-01
(PID.TID 0000.0001) %MON dynstat_uvel_mean            =  -1.0111909016052E-02
(PID.TID 0000.0001) %MON dynstat_uvel_sd              =   1.6362776221268E-02
(PID.TID 0000.0001) %MON dynstat_uvel_del2            =   1.0906335740435E-04
(PID.TID 0000.0001) %MON dynstat_vvel_max             =   1.4210620242213E-01
(PID.TID 0000.0001) %MON dynstat_vvel_min             =  -1.0243117112264E-01
(PID.TID 0000.0001) %MON dynstat_vvel_mean            =   3.2811931450237E-03
(PID.TID 0000.0001) %MON dynstat_vvel_sd              =   1.3492911976146E-02
(PID.TID 0000.0001) %MON dynstat_vvel_del2            =   1.1374257353807E-04
(PID.TID 0000.0001) %MON dynstat_wvel_max             =   2.5157023665733E-04
(PID.TID 0000.0001) %MON dynstat_wvel_min             =  -3.3471813133398E-04
(PID.TID 0000.0001) %MON dynstat_wvel_mean            =  -5.8131337355366E-22
(PID.TID 0000.0001) %MON dynstat_wvel_sd              =   3.0900235156945E-05
(PID.TID 0000.0001) %MON dynstat_wvel_del2            =   3.2536262086432E-07
(PID.TID 0000.0001) %MON dynstat_theta_max            =   2.9525364239492E+01
(PID.TID 0000.0001) %MON dynstat_theta_min            =  -2.0119895509581E+00
(PID.TID 0000.0001) %MON dynstat_theta_mean           =   3.5976739622774E+00
(PID.TID 0000.0001) %MON dynstat_theta_sd             =   4.3641880221657E+00
(PID.TID 0000.0001) %MON dynstat_theta_del2           =   5.0482371269786E-03
(PID.TID 0000.0001) %MON dynstat_salt_max             =   3.7426778350897E+01
(PID.TID 0000.0001) %MON dynstat_salt_min             =   2.9788203213899E+01
(PID.TID 0000.0001) %MON dynstat_salt_mean            =   3.4716284951873E+01
(PID.TID 0000.0001) %MON dynstat_salt_sd              =   2.9597695998216E-01
(PID.TID 0000.0001) %MON dynstat_salt_del2            =   1.0035220428430E-03
(PID.TID 0000.0001) %MON forcing_qnet_max             =   4.3375221252441E+02
(PID.TID 0000.0001) %MON forcing_qnet_min             =  -1.8352326583862E+02
(PID.TID 0000.0001) %MON forcing_qnet_mean            =  -1.6606365669717E+01
(PID.TID 0000.0001) %MON forcing_qnet_sd              =   1.1129044586711E+02
(PID.TID 0000.0001) %MON forcing_qnet_del2            =   1.0028712084450E+00
(PID.TID 0000.0001) %MON forcing_qsw_max              =   0.0000000000000E+00
(PID.TID 0000.0001) %MON forcing_qsw_min              =   0.0000000000000E+00
(PID.TID 0000.0001) %MON forcing_qsw_mean             =   0.0000000000000E+00
(PID.TID 0000.0001) %MON forcing_qsw_sd               =   0.0000000000000E+00
(PID.TID 0000.0001) %MON forcing_qsw_del2             =   0.0000000000000E+00
(PID.TID 0000.0001) %MON forcing_empmr_max            =   0.0000000000000E+00
(PID.TID 0000.0001) %MON forcing_empmr_min            =   0.0000000000000E+00
(PID.TID 0000.0001) %MON forcing_empmr_mean           =   0.0000000000000E+00
(PID.TID 0000.0001) %MON forcing_empmr_sd             =   0.0000000000000E+00
(PID.TID 0000.0001) %MON forcing_empmr_del2           =   0.0000000000000E+00
(PID.TID 0000.0001) %MON forcing_fu_max               =   2.6896443893202E-01
(PID.TID 0000.0001) %MON forcing_fu_min               =  -1.6300015337765E-01
(PID.TID 0000.0001) %MON forcing_fu_mean              =   1.6109037687347E-02
(PID.TID 0000.0001) %MON forcing_fu_sd                =   8.9959090783413E-02
(PID.TID 0000.0001) %MON forcing_fu_del2              =   6.5145229758450E-04
(PID.TID 0000.0001) %MON forcing_fv_max               =   2.1129359694896E-01
(PID.TID 0000.0001) %MON forcing_fv_min               =  -1.6187561655534E-01
(PID.TID 0000.0001) %MON forcing_fv_mean              =  -5.6646587448277E-03
(PID.TID 0000.0001) %MON forcing_fv_sd                =   4.4828228946290E-02
(PID.TID 0000.0001) %MON forcing_fv_del2              =   3.5168290300239E-04
(PID.TID 0000.0001) %MON trAdv_CFL_u_max              =   2.5429606696057E-02
(PID.TID 0000.0001) %MON trAdv_CFL_v_max              =   1.2256717470301E-02
(PID.TID 0000.0001) %MON trAdv_CFL_w_max              =   7.4217164097851E-02
(PID.TID 0000.0001) %MON advcfl_uvel_max              =   2.4888982761540E-02
(PID.TID 0000.0001) %MON advcfl_vvel_max              =   1.3804478010570E-02
(PID.TID 0000.0001) %MON advcfl_wvel_max              =   1.6028494096097E-01
(PID.TID 0000.0001) %MON advcfl_W_hf_max              =   6.5695220497220E-02
(PID.TID 0000.0001) %MON pe_b_mean                    =   1.6464688573716E-04
(PID.TID 0000.0001) %MON ke_max                       =   1.0938930263238E-02
(PID.TID 0000.0001) %MON ke_mean                      =   2.5466013006201E-04
(PID.TID 0000.0001) %MON ke_vol                       =   1.3226782436723E+18
(PID.TID 0000.0001) %MON vort_r_min                   =  -3.6925340365796E-07
(PID.TID 0000.0001) %MON vort_r_max                   =   5.2293419508276E-07
(PID.TID 0000.0001) %MON vort_a_mean                  =  -2.5205769712936E-05
(PID.TID 0000.0001) %MON vort_a_sd                    =   7.3401318341117E-05
(PID.TID 0000.0001) %MON vort_p_mean                  =  -3.1758669960027E-05
(PID.TID 0000.0001) %MON vort_p_sd                    =   1.3125999419265E-04
(PID.TID 0000.0001) %MON surfExpan_theta_mean         =   8.3608536841474E-05
(PID.TID 0000.0001) %MON surfExpan_salt_mean          =   4.3787769008049E-06
(PID.TID 0000.0001) // =======================================================
(PID.TID 0000.0001) // End MONITOR dynamic field statistics
(PID.TID 0000.0001) // =======================================================
(PID.TID 0000.0001) EXF_SET_FLD: processing field "climsst",  file: lev_sst.bin
(PID.TID 0000.0001) EXF_SET_FLD:   myIter, count0, count1:        16     12      1
(PID.TID 0000.0001) EXF_SET_FLD:   first, changed, fac:   F   F    0.23333333333333334
(PID.TID 0000.0001) EXF_SET_FLD: processing field "climsss",  file: lev_sss.bin
(PID.TID 0000.0001) EXF_SET_FLD:   myIter, count0, count1:        16     12      1
(PID.TID 0000.0001) EXF_SET_FLD:   first, changed, fac:   F   F    0.23333333333333328
(PID.TID 0000.0001) EXF_SET_FLD: processing field "ustress",  file: trenberth_taux.bin
(PID.TID 0000.0001) EXF_SET_FLD:   myIter, count0, count1:        16     12      1
(PID.TID 0000.0001) EXF_SET_FLD:   first, changed, fac:   F   F    0.23333333333333328
(PID.TID 0000.0001) EXF_SET_FLD: processing field "vstress",  file: trenberth_tauy.bin
(PID.TID 0000.0001) EXF_SET_FLD:   myIter, count0, count1:        16     12      1
(PID.TID 0000.0001) EXF_SET_FLD:   first, changed, fac:   F   F    0.23333333333333328
(PID.TID 0000.0001) EXF_SET_FLD: processing field "hflux",  file: ncep_qnet.bin
(PID.TID 0000.0001) EXF_SET_FLD:   myIter, count0, count1:        16     12      1
(PID.TID 0000.0001) EXF_SET_FLD:   first, changed, fac:   F   F    0.23333333333333328
(PID.TID 0000.0001) // =======================================================
(PID.TID 0000.0001) // Begin MONITOR EXF statistics
(PID.TID 0000.0001) // =======================================================
(PID.TID 0000.0001) %MON exf_tsnumber                 =                    16
(PID.TID 0000.0001) %MON exf_time_sec                 =   6.9120000000000E+05
(PID.TID 0000.0001) %MON exf_ustress_max              =   2.7202494423836E-01
(PID.TID 0000.0001) %MON exf_ustress_min              =  -1.6361511486272E-01
(PID.TID 0000.0001) %MON exf_ustress_mean             =   1.5059506612064E-02
(PID.TID 0000.0001) %MON exf_ustress_sd               =   8.8770735691906E-02
(PID.TID 0000.0001) %MON exf_ustress_del2             =   6.8516507964029E-04
(PID.TID 0000.0001) %MON exf_vstress_max              =   2.1465724478476E-01
(PID.TID 0000.0001) %MON exf_vstress_min              =  -1.6607417063788E-01
(PID.TID 0000.0001) %MON exf_vstress_mean             =  -5.9468105108855E-03
(PID.TID 0000.0001) %MON exf_vstress_sd               =   4.5959879933635E-02
(PID.TID 0000.0001) %MON exf_vstress_del2             =   4.2779503812246E-04
(PID.TID 0000.0001) %MON exf_hflux_max                =   4.3427630615234E+02
(PID.TID 0000.0001) %MON exf_hflux_min                =  -1.8328968454997E+02
(PID.TID 0000.0001) %MON exf_hflux_mean               =  -1.6600109691805E+01
(PID.TID 0000.0001) %MON exf_hflux_sd                 =   1.1119125063866E+02
(PID.TID 0000.0001) %MON exf_hflux_del2               =   1.2237549372869E+00
(PID.TID 0000.0001) %MON exf_climsst_max              =   2.9470486068726E+01
(PID.TID 0000.0001) %MON exf_climsst_min              =  -1.9000000000000E+00
(PID.TID 0000.0001) %MON exf_climsst_mean             =   1.8428653351222E+01
(PID.TID 0000.0001) %MON exf_climsst_sd               =   9.1879148612416E+00
(PID.TID 0000.0001) %MON exf_climsst_del2             =   2.4859380519662E-02
(PID.TID 0000.0001) %MON exf_climsss_max              =   3.7464272054036E+01
(PID.TID 0000.0001) %MON exf_climsss_min              =   2.9710144106547E+01
(PID.TID 0000.0001) %MON exf_climsss_mean             =   3.4848445007939E+01
(PID.TID 0000.0001) %MON exf_climsss_sd               =   9.6353849111854E-01
(PID.TID 0000.0001) %MON exf_climsss_del2             =   7.2754255077318E-03
(PID.TID 0000.0001) // =======================================================
(PID.TID 0000.0001) // End MONITOR EXF statistics
(PID.TID 0000.0001) // =======================================================
 cg2d: Sum(rhs),rhsMax =  -8.19788681383216E-13  9.86914019339258E+00
(PID.TID 0000.0001)      cg2d_init_res =   8.05960702955224E-01
(PID.TID 0000.0001)      cg2d_iters(min,last) =      -1      25
(PID.TID 0000.0001)      cg2d_last_res =   3.50753346315362E-14
(PID.TID 0000.0001) // =======================================================
(PID.TID 0000.0001) // Begin MONITOR dynamic field statistics
(PID.TID 0000.0001) // =======================================================
(PID.TID 0000.0001) %MON time_tsnumber                =                    17
(PID.TID 0000.0001) %MON time_secondsf                =   7.3440000000000E+05
(PID.TID 0000.0001) %MON dynstat_eta_max              =   1.1899232858129E+00
(PID.TID 0000.0001) %MON dynstat_eta_min              =  -1.1012163145772E+00
(PID.TID 0000.0001) %MON dynstat_eta_mean             =   4.2293195876941E-16
(PID.TID 0000.0001) %MON dynstat_eta_sd               =   3.6496671500466E-01
(PID.TID 0000.0001) %MON dynstat_eta_del2             =   2.0532190762044E-03
(PID.TID 0000.0001) %MON dynstat_uvel_max             =   1.5706219159327E-01
(PID.TID 0000.0001) %MON dynstat_uvel_min             =  -1.2514072592925E-01
(PID.TID 0000.0001) %MON dynstat_uvel_mean            =  -1.0042596520029E-02
(PID.TID 0000.0001) %MON dynstat_uvel_sd              =   1.6823831079602E-02
(PID.TID 0000.0001) %MON dynstat_uvel_del2            =   1.1023285240137E-04
(PID.TID 0000.0001) %MON dynstat_vvel_max             =   1.4781173826824E-01
(PID.TID 0000.0001) %MON dynstat_vvel_min             =  -1.0246817391643E-01
(PID.TID 0000.0001) %MON dynstat_vvel_mean            =   2.9645642666149E-03
(PID.TID 0000.0001) %MON dynstat_vvel_sd              =   1.3284235057454E-02
(PID.TID 0000.0001) %MON dynstat_vvel_del2            =   1.1218479782449E-04
(PID.TID 0000.0001) %MON dynstat_wvel_max             =   2.5710511583492E-04
(PID.TID 0000.0001) %MON dynstat_wvel_min             =  -3.2542983859044E-04
(PID.TID 0000.0001) %MON dynstat_wvel_mean            =   1.0818887785582E-21
(PID.TID 0000.0001) %MON dynstat_wvel_sd              =   2.9774317021768E-05
(PID.TID 0000.0001) %MON dynstat_wvel_del2            =   3.0967230518581E-07
(PID.TID 0000.0001) %MON dynstat_theta_max            =   2.9490250389092E+01
(PID.TID 0000.0001) %MON dynstat_theta_min            =  -2.0079452387806E+00
(PID.TID 0000.0001) %MON dynstat_theta_mean           =   3.5968627190137E+00
(PID.TID 0000.0001) %MON dynstat_theta_sd             =   4.3612450773634E+00
(PID.TID 0000.0001) %MON dynstat_theta_del2           =   5.0244657287891E-03
(PID.TID 0000.0001) %MON dynstat_salt_max             =   3.7425229484186E+01
(PID.TID 0000.0001) %MON dynstat_salt_min             =   2.9788268028040E+01
(PID.TID 0000.0001) %MON dynstat_salt_mean            =   3.4716244461544E+01
(PID.TID 0000.0001) %MON dynstat_salt_sd              =   2.9594362219270E-01
(PID.TID 0000.0001) %MON dynstat_salt_del2            =   1.0032588813679E-03
(PID.TID 0000.0001) %MON forcing_qnet_max             =   4.3427630615234E+02
(PID.TID 0000.0001) %MON forcing_qnet_min             =  -1.8328968454997E+02
(PID.TID 0000.0001) %MON forcing_qnet_mean            =  -1.6600109691805E+01
(PID.TID 0000.0001) %MON forcing_qnet_sd              =   1.1119125063866E+02
(PID.TID 0000.0001) %MON forcing_qnet_del2            =   1.0040237369794E+00
(PID.TID 0000.0001) %MON forcing_qsw_max              =   0.0000000000000E+00
(PID.TID 0000.0001) %MON forcing_qsw_min              =   0.0000000000000E+00
(PID.TID 0000.0001) %MON forcing_qsw_mean             =   0.0000000000000E+00
(PID.TID 0000.0001) %MON forcing_qsw_sd               =   0.0000000000000E+00
(PID.TID 0000.0001) %MON forcing_qsw_del2             =   0.0000000000000E+00
(PID.TID 0000.0001) %MON forcing_empmr_max            =   0.0000000000000E+00
(PID.TID 0000.0001) %MON forcing_empmr_min            =   0.0000000000000E+00
(PID.TID 0000.0001) %MON forcing_empmr_mean           =   0.0000000000000E+00
(PID.TID 0000.0001) %MON forcing_empmr_sd             =   0.0000000000000E+00
(PID.TID 0000.0001) %MON forcing_empmr_del2           =   0.0000000000000E+00
(PID.TID 0000.0001) %MON forcing_fu_max               =   2.6905049802735E-01
(PID.TID 0000.0001) %MON forcing_fu_min               =  -1.6343388318395E-01
(PID.TID 0000.0001) %MON forcing_fu_mean              =   1.6104942797907E-02
(PID.TID 0000.0001) %MON forcing_fu_sd                =   8.9989876572472E-02
(PID.TID 0000.0001) %MON forcing_fu_del2              =   6.5368095600492E-04
(PID.TID 0000.0001) %MON forcing_fv_max               =   2.1226960604545E-01
(PID.TID 0000.0001) %MON forcing_fv_min               =  -1.6245242870646E-01
(PID.TID 0000.0001) %MON forcing_fv_mean              =  -5.6290578240650E-03
(PID.TID 0000.0001) %MON forcing_fv_sd                =   4.4930407537345E-02
(PID.TID 0000.0001) %MON forcing_fv_del2              =   3.5293832160030E-04
(PID.TID 0000.0001) %MON trAdv_CFL_u_max              =   2.4894037891947E-02
(PID.TID 0000.0001) %MON trAdv_CFL_v_max              =   1.3141827338333E-02
(PID.TID 0000.0001) %MON trAdv_CFL_w_max              =   8.0142470480487E-02
(PID.TID 0000.0001) %MON advcfl_uvel_max              =   2.2884178714777E-02
(PID.TID 0000.0001) %MON advcfl_vvel_max              =   1.4358725065123E-02
(PID.TID 0000.0001) %MON advcfl_wvel_max              =   1.6783772372129E-01
(PID.TID 0000.0001) %MON advcfl_W_hf_max              =   6.9050260289324E-02
(PID.TID 0000.0001) %MON pe_b_mean                    =   1.7044635462474E-04
(PID.TID 0000.0001) %MON ke_max                       =   1.1630885212006E-02
(PID.TID 0000.0001) %MON ke_mean                      =   2.5758045486025E-04
(PID.TID 0000.0001) %MON ke_vol                       =   1.3226782436723E+18
(PID.TID 0000.0001) %MON vort_r_min                   =  -3.9807720928300E-07
(PID.TID 0000.0001) %MON vort_r_max                   =   4.8080344991424E-07
(PID.TID 0000.0001) %MON vort_a_mean                  =  -2.5205769663768E-05
(PID.TID 0000.0001) %MON vort_a_sd                    =   7.3401321396725E-05
(PID.TID 0000.0001) %MON vort_p_mean                  =  -3.1758669898077E-05
(PID.TID 0000.0001) %MON vort_p_sd                    =   1.3125999979387E-04
(PID.TID 0000.0001) %MON surfExpan_theta_mean         =   7.0239403129251E-05
(PID.TID 0000.0001) %MON surfExpan_salt_mean          =   3.1270053185959E-06
(PID.TID 0000.0001) // =======================================================
(PID.TID 0000.0001) // End MONITOR dynamic field statistics
(PID.TID 0000.0001) // =======================================================
(PID.TID 0000.0001) EXF_SET_FLD: processing field "climsst",  file: lev_sst.bin
(PID.TID 0000.0001) EXF_SET_FLD:   myIter, count0, count1:        17     12      1
(PID.TID 0000.0001) EXF_SET_FLD:   first, changed, fac:   F   F    0.21666666666666667
(PID.TID 0000.0001) EXF_SET_FLD: processing field "climsss",  file: lev_sss.bin
(PID.TID 0000.0001) EXF_SET_FLD:   myIter, count0, count1:        17     12      1
(PID.TID 0000.0001) EXF_SET_FLD:   first, changed, fac:   F   F    0.21666666666666667
(PID.TID 0000.0001) EXF_SET_FLD: processing field "ustress",  file: trenberth_taux.bin
(PID.TID 0000.0001) EXF_SET_FLD:   myIter, count0, count1:        17     12      1
(PID.TID 0000.0001) EXF_SET_FLD:   first, changed, fac:   F   F    0.21666666666666667
(PID.TID 0000.0001) EXF_SET_FLD: processing field "vstress",  file: trenberth_tauy.bin
(PID.TID 0000.0001) EXF_SET_FLD:   myIter, count0, count1:        17     12      1
(PID.TID 0000.0001) EXF_SET_FLD:   first, changed, fac:   F   F    0.21666666666666667
(PID.TID 0000.0001) EXF_SET_FLD: processing field "hflux",  file: ncep_qnet.bin
(PID.TID 0000.0001) EXF_SET_FLD:   myIter, count0, count1:        17     12      1
(PID.TID 0000.0001) EXF_SET_FLD:   first, changed, fac:   F   F    0.21666666666666667
(PID.TID 0000.0001) // =======================================================
(PID.TID 0000.0001) // Begin MONITOR EXF statistics
(PID.TID 0000.0001) // =======================================================
(PID.TID 0000.0001) %MON exf_tsnumber                 =                    17
(PID.TID 0000.0001) %MON exf_time_sec                 =   7.3440000000000E+05
(PID.TID 0000.0001) %MON exf_ustress_max              =   2.7183603690937E-01
(PID.TID 0000.0001) %MON exf_ustress_min              =  -1.6417943149184E-01
(PID.TID 0000.0001) %MON exf_ustress_mean             =   1.5057009641379E-02
(PID.TID 0000.0001) %MON exf_ustress_sd               =   8.8804899657824E-02
(PID.TID 0000.0001) %MON exf_ustress_del2             =   6.8745701854360E-04
(PID.TID 0000.0001) %MON exf_vstress_max              =   2.1536114367191E-01
(PID.TID 0000.0001) %MON exf_vstress_min              =  -1.6701038372703E-01
(PID.TID 0000.0001) %MON exf_vstress_mean             =  -5.9128812700911E-03
(PID.TID 0000.0001) %MON exf_vstress_sd               =   4.6064880000471E-02
(PID.TID 0000.0001) %MON exf_vstress_del2             =   4.2901306133441E-04
(PID.TID 0000.0001) %MON exf_hflux_max                =   4.3480039978027E+02
(PID.TID 0000.0001) %MON exf_hflux_min                =  -1.8305610326131E+02
(PID.TID 0000.0001) %MON exf_hflux_mean               =  -1.6593853713894E+01
(PID.TID 0000.0001) %MON exf_hflux_sd                 =   1.1109271798907E+02
(PID.TID 0000.0001) %MON exf_hflux_del2               =   1.2245796340199E+00
(PID.TID 0000.0001) %MON exf_climsst_max              =   2.9468576240540E+01
(PID.TID 0000.0001) %MON exf_climsst_min              =  -1.9000000000000E+00
(PID.TID 0000.0001) %MON exf_climsst_mean             =   1.8432650504627E+01
(PID.TID 0000.0001) %MON exf_climsst_sd               =   9.1869237374455E+00
(PID.TID 0000.0001) %MON exf_climsst_del2             =   2.4974459915961E-02
(PID.TID 0000.0001) %MON exf_climsss_max              =   3.7465083185832E+01
(PID.TID 0000.0001) %MON exf_climsss_min              =   2.9713188775380E+01
(PID.TID 0000.0001) %MON exf_climsss_mean             =   3.4848550741315E+01
(PID.TID 0000.0001) %MON exf_climsss_sd               =   9.6338612905788E-01
(PID.TID 0000.0001) %MON exf_climsss_del2             =   7.3147127026616E-03
(PID.TID 0000.0001) // =======================================================
(PID.TID 0000.0001) // End MONITOR EXF statistics
(PID.TID 0000.0001) // =======================================================
 cg2d: Sum(rhs),rhsMax =  -7.57616192004207E-13  9.74754111102039E+00
(PID.TID 0000.0001)      cg2d_init_res =   7.98639407262942E-01
(PID.TID 0000.0001)      cg2d_iters(min,last) =      -1      25
(PID.TID 0000.0001)      cg2d_last_res =   2.87974527279929E-14
(PID.TID 0000.0001) // =======================================================
(PID.TID 0000.0001) // Begin MONITOR dynamic field statistics
(PID.TID 0000.0001) // =======================================================
(PID.TID 0000.0001) %MON time_tsnumber                =                    18
(PID.TID 0000.0001) %MON time_secondsf                =   7.7760000000000E+05
(PID.TID 0000.0001) %MON dynstat_eta_max              =   1.1761168465330E+00
(PID.TID 0000.0001) %MON dynstat_eta_min              =  -1.1115812626399E+00
(PID.TID 0000.0001) %MON dynstat_eta_mean             =   5.5787170578577E-16
(PID.TID 0000.0001) %MON dynstat_eta_sd               =   3.6938943771786E-01
(PID.TID 0000.0001) %MON dynstat_eta_del2             =   2.0260938106680E-03
(PID.TID 0000.0001) %MON dynstat_uvel_max             =   1.6306962512737E-01
(PID.TID 0000.0001) %MON dynstat_uvel_min             =  -1.3108763190570E-01
(PID.TID 0000.0001) %MON dynstat_uvel_mean            =  -9.8538601190049E-03
(PID.TID 0000.0001) %MON dynstat_uvel_sd              =   1.7188280373180E-02
(PID.TID 0000.0001) %MON dynstat_uvel_del2            =   1.1109939067500E-04
(PID.TID 0000.0001) %MON dynstat_vvel_max             =   1.4915410407661E-01
(PID.TID 0000.0001) %MON dynstat_vvel_min             =  -1.1329378598140E-01
(PID.TID 0000.0001) %MON dynstat_vvel_mean            =   2.6847827590104E-03
(PID.TID 0000.0001) %MON dynstat_vvel_sd              =   1.3135887913689E-02
(PID.TID 0000.0001) %MON dynstat_vvel_del2            =   1.1068074763735E-04
(PID.TID 0000.0001) %MON dynstat_wvel_max             =   2.6056040582090E-04
(PID.TID 0000.0001) %MON dynstat_wvel_min             =  -3.1324475393076E-04
(PID.TID 0000.0001) %MON dynstat_wvel_mean            =   1.0569334064612E-22
(PID.TID 0000.0001) %MON dynstat_wvel_sd              =   2.8692918842007E-05
(PID.TID 0000.0001) %MON dynstat_wvel_del2            =   2.9511926239091E-07
(PID.TID 0000.0001) %MON dynstat_theta_max            =   2.9451777651183E+01
(PID.TID 0000.0001) %MON dynstat_theta_min            =  -2.0039742154247E+00
(PID.TID 0000.0001) %MON dynstat_theta_mean           =   3.5962010488378E+00
(PID.TID 0000.0001) %MON dynstat_theta_sd             =   4.3586113791707E+00
(PID.TID 0000.0001) %MON dynstat_theta_del2           =   5.0026595168035E-03
(PID.TID 0000.0001) %MON dynstat_salt_max             =   3.7423753698792E+01
(PID.TID 0000.0001) %MON dynstat_salt_min             =   2.9788219662103E+01
(PID.TID 0000.0001) %MON dynstat_salt_mean            =   3.4716217654716E+01
(PID.TID 0000.0001) %MON dynstat_salt_sd              =   2.9591220342276E-01
(PID.TID 0000.0001) %MON dynstat_salt_del2            =   1.0030596304928E-03
(PID.TID 0000.0001) %MON forcing_qnet_max             =   4.3480039978027E+02
(PID.TID 0000.0001) %MON forcing_qnet_min             =  -1.8305610326131E+02
(PID.TID 0000.0001) %MON forcing_qnet_mean            =  -1.6593853713894E+01
(PID.TID 0000.0001) %MON forcing_qnet_sd              =   1.1109271798907E+02
(PID.TID 0000.0001) %MON forcing_qnet_del2            =   1.0052189926600E+00
(PID.TID 0000.0001) %MON forcing_qsw_max              =   0.0000000000000E+00
(PID.TID 0000.0001) %MON forcing_qsw_min              =   0.0000000000000E+00
(PID.TID 0000.0001) %MON forcing_qsw_mean             =   0.0000000000000E+00
(PID.TID 0000.0001) %MON forcing_qsw_sd               =   0.0000000000000E+00
(PID.TID 0000.0001) %MON forcing_qsw_del2             =   0.0000000000000E+00
(PID.TID 0000.0001) %MON forcing_empmr_max            =   0.0000000000000E+00
(PID.TID 0000.0001) %MON forcing_empmr_min            =   0.0000000000000E+00
(PID.TID 0000.0001) %MON forcing_empmr_mean           =   0.0000000000000E+00
(PID.TID 0000.0001) %MON forcing_empmr_sd             =   0.0000000000000E+00
(PID.TID 0000.0001) %MON forcing_empmr_del2           =   0.0000000000000E+00
(PID.TID 0000.0001) %MON forcing_fu_max               =   2.6913655712269E-01
(PID.TID 0000.0001) %MON forcing_fu_min               =  -1.6386761299024E-01
(PID.TID 0000.0001) %MON forcing_fu_mean              =   1.6100847908467E-02
(PID.TID 0000.0001) %MON forcing_fu_sd                =   9.0023280450175E-02
(PID.TID 0000.0001) %MON forcing_fu_del2              =   6.5601361372519E-04
(PID.TID 0000.0001) %MON forcing_fv_max               =   2.1324561514193E-01
(PID.TID 0000.0001) %MON forcing_fv_min               =  -1.6302924085758E-01
(PID.TID 0000.0001) %MON forcing_fv_mean              =  -5.5934569033022E-03
(PID.TID 0000.0001) %MON forcing_fv_sd                =   4.5035865297484E-02
(PID.TID 0000.0001) %MON forcing_fv_del2              =   3.5426923623951E-04
(PID.TID 0000.0001) %MON trAdv_CFL_u_max              =   2.2888826655145E-02
(PID.TID 0000.0001) %MON trAdv_CFL_v_max              =   1.3660900584617E-02
(PID.TID 0000.0001) %MON trAdv_CFL_w_max              =   8.3918861860647E-02
(PID.TID 0000.0001) %MON advcfl_uvel_max              =   2.2803880430431E-02
(PID.TID 0000.0001) %MON advcfl_vvel_max              =   1.4489125138927E-02
(PID.TID 0000.0001) %MON advcfl_wvel_max              =   1.7029184422032E-01
(PID.TID 0000.0001) %MON advcfl_W_hf_max              =   6.9634507515465E-02
(PID.TID 0000.0001) %MON pe_b_mean                    =   1.7460237482528E-04
(PID.TID 0000.0001) %MON ke_max                       =   1.2246010114804E-02
(PID.TID 0000.0001) %MON ke_mean                      =   2.5903680586173E-04
(PID.TID 0000.0001) %MON ke_vol                       =   1.3226782436723E+18
(PID.TID 0000.0001) %MON vort_r_min                   =  -4.2790508677071E-07
(PID.TID 0000.0001) %MON vort_r_max                   =   4.2919062280177E-07
(PID.TID 0000.0001) %MON vort_a_mean                  =  -2.5205769609575E-05
(PID.TID 0000.0001) %MON vort_a_sd                    =   7.3401347193684E-05
(PID.TID 0000.0001) %MON vort_p_mean                  =  -3.1758669829795E-05
(PID.TID 0000.0001) %MON vort_p_sd                    =   1.3126009660430E-04
(PID.TID 0000.0001) %MON surfExpan_theta_mean         =   5.7371402247951E-05
(PID.TID 0000.0001) %MON surfExpan_salt_mean          =   1.9581636486828E-06
(PID.TID 0000.0001) // =======================================================
(PID.TID 0000.0001) // End MONITOR dynamic field statistics
(PID.TID 0000.0001) // =======================================================
(PID.TID 0000.0001) EXF_SET_FLD: processing field "climsst",  file: lev_sst.bin
(PID.TID 0000.0001) EXF_SET_FLD:   myIter, count0, count1:        18     12      1
(PID.TID 0000.0001) EXF_SET_FLD:   first, changed, fac:   F   F    0.20000000000000001
(PID.TID 0000.0001) EXF_SET_FLD: processing field "climsss",  file: lev_sss.bin
(PID.TID 0000.0001) EXF_SET_FLD:   myIter, count0, count1:        18     12      1
(PID.TID 0000.0001) EXF_SET_FLD:   first, changed, fac:   F   F    0.19999999999999996
(PID.TID 0000.0001) EXF_SET_FLD: processing field "ustress",  file: trenberth_taux.bin
(PID.TID 0000.0001) EXF_SET_FLD:   myIter, count0, count1:        18     12      1
(PID.TID 0000.0001) EXF_SET_FLD:   first, changed, fac:   F   F    0.19999999999999996
(PID.TID 0000.0001) EXF_SET_FLD: processing field "vstress",  file: trenberth_tauy.bin
(PID.TID 0000.0001) EXF_SET_FLD:   myIter, count0, count1:        18     12      1
(PID.TID 0000.0001) EXF_SET_FLD:   first, changed, fac:   F   F    0.19999999999999996
(PID.TID 0000.0001) EXF_SET_FLD: processing field "hflux",  file: ncep_qnet.bin
(PID.TID 0000.0001) EXF_SET_FLD:   myIter, count0, count1:        18     12      1
(PID.TID 0000.0001) EXF_SET_FLD:   first, changed, fac:   F   F    0.19999999999999996
(PID.TID 0000.0001) // =======================================================
(PID.TID 0000.0001) // Begin MONITOR EXF statistics
(PID.TID 0000.0001) // =======================================================
(PID.TID 0000.0001) %MON exf_tsnumber                 =                    18
(PID.TID 0000.0001) %MON exf_time_sec                 =   7.7760000000000E+05
(PID.TID 0000.0001) %MON exf_ustress_max              =   2.7164712958038E-01
(PID.TID 0000.0001) %MON exf_ustress_min              =  -1.6474374812096E-01
(PID.TID 0000.0001) %MON exf_ustress_mean             =   1.5054512670694E-02
(PID.TID 0000.0001) %MON exf_ustress_sd               =   8.8841704984498E-02
(PID.TID 0000.0001) %MON exf_ustress_del2             =   6.8985771158688E-04
(PID.TID 0000.0001) %MON exf_vstress_max              =   2.1606504255906E-01
(PID.TID 0000.0001) %MON exf_vstress_min              =  -1.6794659681618E-01
(PID.TID 0000.0001) %MON exf_vstress_mean             =  -5.8789520292968E-03
(PID.TID 0000.0001) %MON exf_vstress_sd               =   4.6173299878196E-02
(PID.TID 0000.0001) %MON exf_vstress_del2             =   4.3031818222083E-04
(PID.TID 0000.0001) %MON exf_hflux_max                =   4.3532449340820E+02
(PID.TID 0000.0001) %MON exf_hflux_min                =  -1.8282252197266E+02
(PID.TID 0000.0001) %MON exf_hflux_mean               =  -1.6587597735982E+01
(PID.TID 0000.0001) %MON exf_hflux_sd                 =   1.1099484968290E+02
(PID.TID 0000.0001) %MON exf_hflux_del2               =   1.2254409891111E+00
(PID.TID 0000.0001) %MON exf_climsst_max              =   2.9466666412354E+01
(PID.TID 0000.0001) %MON exf_climsst_min              =  -1.9000000000000E+00
(PID.TID 0000.0001) %MON exf_climsst_mean             =   1.8436651633338E+01
(PID.TID 0000.0001) %MON exf_climsst_sd               =   9.1859885022659E+00
(PID.TID 0000.0001) %MON exf_climsst_del2             =   2.5098071293118E-02
(PID.TID 0000.0001) %MON exf_climsss_max              =   3.7465894317627E+01
(PID.TID 0000.0001) %MON exf_climsss_min              =   2.9716233444214E+01
(PID.TID 0000.0001) %MON exf_climsss_mean             =   3.4848656474691E+01
(PID.TID 0000.0001) %MON exf_climsss_sd               =   9.6325620817085E-01
(PID.TID 0000.0001) %MON exf_climsss_del2             =   7.3566515137953E-03
(PID.TID 0000.0001) // =======================================================
(PID.TID 0000.0001) // End MONITOR EXF statistics
(PID.TID 0000.0001) // =======================================================
 cg2d: Sum(rhs),rhsMax =  -8.52651282912120E-13  9.45674093120062E+00
(PID.TID 0000.0001)      cg2d_init_res =   8.05540183661238E-01
(PID.TID 0000.0001)      cg2d_iters(min,last) =      -1      25
(PID.TID 0000.0001)      cg2d_last_res =   2.84084237184973E-14
(PID.TID 0000.0001) // =======================================================
(PID.TID 0000.0001) // Begin MONITOR dynamic field statistics
(PID.TID 0000.0001) // =======================================================
(PID.TID 0000.0001) %MON time_tsnumber                =                    19
(PID.TID 0000.0001) %MON time_secondsf                =   8.2080000000000E+05
(PID.TID 0000.0001) %MON dynstat_eta_max              =   1.1427653177558E+00
(PID.TID 0000.0001) %MON dynstat_eta_min              =  -1.0924938704429E+00
(PID.TID 0000.0001) %MON dynstat_eta_mean             =   4.6504402746914E-16
(PID.TID 0000.0001) %MON dynstat_eta_sd               =   3.7220467357686E-01
(PID.TID 0000.0001) %MON dynstat_eta_del2             =   2.0030146635639E-03
(PID.TID 0000.0001) %MON dynstat_uvel_max             =   1.6786998757894E-01
(PID.TID 0000.0001) %MON dynstat_uvel_min             =  -1.3657547263231E-01
(PID.TID 0000.0001) %MON dynstat_uvel_mean            =  -9.5597846232667E-03
(PID.TID 0000.0001) %MON dynstat_uvel_sd              =   1.7464776305356E-02
(PID.TID 0000.0001) %MON dynstat_uvel_del2            =   1.1174538156084E-04
(PID.TID 0000.0001) %MON dynstat_vvel_max             =   1.4578335338987E-01
(PID.TID 0000.0001) %MON dynstat_vvel_min             =  -1.2602300214892E-01
(PID.TID 0000.0001) %MON dynstat_vvel_mean            =   2.4543242440383E-03
(PID.TID 0000.0001) %MON dynstat_vvel_sd              =   1.3045282069854E-02
(PID.TID 0000.0001) %MON dynstat_vvel_del2            =   1.0942205706899E-04
(PID.TID 0000.0001) %MON dynstat_wvel_max             =   2.6205284775505E-04
(PID.TID 0000.0001) %MON dynstat_wvel_min             =  -2.9873242378420E-04
(PID.TID 0000.0001) %MON dynstat_wvel_mean            =   1.1978578606560E-21
(PID.TID 0000.0001) %MON dynstat_wvel_sd              =   2.7701724419402E-05
(PID.TID 0000.0001) %MON dynstat_wvel_del2            =   2.8259854913231E-07
(PID.TID 0000.0001) %MON dynstat_theta_max            =   2.9442918971052E+01
(PID.TID 0000.0001) %MON dynstat_theta_min            =  -2.0004778837943E+00
(PID.TID 0000.0001) %MON dynstat_theta_mean           =   3.5956812779922E+00
(PID.TID 0000.0001) %MON dynstat_theta_sd             =   4.3563056767709E+00
(PID.TID 0000.0001) %MON dynstat_theta_del2           =   4.9829797101775E-03
(PID.TID 0000.0001) %MON dynstat_salt_max             =   3.7422347302350E+01
(PID.TID 0000.0001) %MON dynstat_salt_min             =   2.9788144843797E+01
(PID.TID 0000.0001) %MON dynstat_salt_mean            =   3.4716203436771E+01
(PID.TID 0000.0001) %MON dynstat_salt_sd              =   2.9588344514276E-01
(PID.TID 0000.0001) %MON dynstat_salt_del2            =   1.0029273560872E-03
(PID.TID 0000.0001) %MON forcing_qnet_max             =   4.3532449340820E+02
(PID.TID 0000.0001) %MON forcing_qnet_min             =  -1.8282252197266E+02
(PID.TID 0000.0001) %MON forcing_qnet_mean            =  -1.6587597735982E+01
(PID.TID 0000.0001) %MON forcing_qnet_sd              =   1.1099484968290E+02
(PID.TID 0000.0001) %MON forcing_qnet_del2            =   1.0064568232602E+00
(PID.TID 0000.0001) %MON forcing_qsw_max              =   0.0000000000000E+00
(PID.TID 0000.0001) %MON forcing_qsw_min              =   0.0000000000000E+00
(PID.TID 0000.0001) %MON forcing_qsw_mean             =   0.0000000000000E+00
(PID.TID 0000.0001) %MON forcing_qsw_sd               =   0.0000000000000E+00
(PID.TID 0000.0001) %MON forcing_qsw_del2             =   0.0000000000000E+00
(PID.TID 0000.0001) %MON forcing_empmr_max            =   0.0000000000000E+00
(PID.TID 0000.0001) %MON forcing_empmr_min            =   0.0000000000000E+00
(PID.TID 0000.0001) %MON forcing_empmr_mean           =   0.0000000000000E+00
(PID.TID 0000.0001) %MON forcing_empmr_sd             =   0.0000000000000E+00
(PID.TID 0000.0001) %MON forcing_empmr_del2           =   0.0000000000000E+00
(PID.TID 0000.0001) %MON forcing_fu_max               =   2.6922261621803E-01
(PID.TID 0000.0001) %MON forcing_fu_min               =  -1.6430134279653E-01
(PID.TID 0000.0001) %MON forcing_fu_mean              =   1.6096753019027E-02
(PID.TID 0000.0001) %MON forcing_fu_sd                =   9.0059299503299E-02
(PID.TID 0000.0001) %MON forcing_fu_del2              =   6.5844916544554E-04
(PID.TID 0000.0001) %MON forcing_fv_max               =   2.1422162423842E-01
(PID.TID 0000.0001) %MON forcing_fv_min               =  -1.6360605300870E-01
(PID.TID 0000.0001) %MON forcing_fv_mean              =  -5.5578559825394E-03
(PID.TID 0000.0001) %MON forcing_fv_sd                =   4.5144579246290E-02
(PID.TID 0000.0001) %MON forcing_fv_del2              =   3.5567479941551E-04
(PID.TID 0000.0001) %MON trAdv_CFL_u_max              =   2.2808512061642E-02
(PID.TID 0000.0001) %MON trAdv_CFL_v_max              =   1.3758072341734E-02
(PID.TID 0000.0001) %MON trAdv_CFL_w_max              =   8.5145922110162E-02
(PID.TID 0000.0001) %MON advcfl_uvel_max              =   2.3475169711208E-02
(PID.TID 0000.0001) %MON advcfl_vvel_max              =   1.4161683739881E-02
(PID.TID 0000.0001) %MON advcfl_wvel_max              =   1.6708442525460E-01
(PID.TID 0000.0001) %MON advcfl_W_hf_max              =   6.8982818359369E-02
(PID.TID 0000.0001) %MON pe_b_mean                    =   1.7727391837674E-04
(PID.TID 0000.0001) %MON ke_max                       =   1.2795160282213E-02
(PID.TID 0000.0001) %MON ke_mean                      =   2.5919939713147E-04
(PID.TID 0000.0001) %MON ke_vol                       =   1.3226782436723E+18
(PID.TID 0000.0001) %MON vort_r_min                   =  -4.4695114571517E-07
(PID.TID 0000.0001) %MON vort_r_max                   =   3.7947639097182E-07
(PID.TID 0000.0001) %MON vort_a_mean                  =  -2.5205769556634E-05
(PID.TID 0000.0001) %MON vort_a_sd                    =   7.3401393497676E-05
(PID.TID 0000.0001) %MON vort_p_mean                  =  -3.1758669763091E-05
(PID.TID 0000.0001) %MON vort_p_sd                    =   1.3126027071366E-04
(PID.TID 0000.0001) %MON surfExpan_theta_mean         =   4.5264288406026E-05
(PID.TID 0000.0001) %MON surfExpan_salt_mean          =   8.9086594574854E-07
(PID.TID 0000.0001) // =======================================================
(PID.TID 0000.0001) // End MONITOR dynamic field statistics
(PID.TID 0000.0001) // =======================================================
(PID.TID 0000.0001) EXF_SET_FLD: processing field "climsst",  file: lev_sst.bin
(PID.TID 0000.0001) EXF_SET_FLD:   myIter, count0, count1:        19     12      1
(PID.TID 0000.0001) EXF_SET_FLD:   first, changed, fac:   F   F    0.18333333333333332
(PID.TID 0000.0001) EXF_SET_FLD: processing field "climsss",  file: lev_sss.bin
(PID.TID 0000.0001) EXF_SET_FLD:   myIter, count0, count1:        19     12      1
(PID.TID 0000.0001) EXF_SET_FLD:   first, changed, fac:   F   F    0.18333333333333335
(PID.TID 0000.0001) EXF_SET_FLD: processing field "ustress",  file: trenberth_taux.bin
(PID.TID 0000.0001) EXF_SET_FLD:   myIter, count0, count1:        19     12      1
(PID.TID 0000.0001) EXF_SET_FLD:   first, changed, fac:   F   F    0.18333333333333335
(PID.TID 0000.0001) EXF_SET_FLD: processing field "vstress",  file: trenberth_tauy.bin
(PID.TID 0000.0001) EXF_SET_FLD:   myIter, count0, count1:        19     12      1
(PID.TID 0000.0001) EXF_SET_FLD:   first, changed, fac:   F   F    0.18333333333333335
(PID.TID 0000.0001) EXF_SET_FLD: processing field "hflux",  file: ncep_qnet.bin
(PID.TID 0000.0001) EXF_SET_FLD:   myIter, count0, count1:        19     12      1
(PID.TID 0000.0001) EXF_SET_FLD:   first, changed, fac:   F   F    0.18333333333333335
(PID.TID 0000.0001) // =======================================================
(PID.TID 0000.0001) // Begin MONITOR EXF statistics
(PID.TID 0000.0001) // =======================================================
(PID.TID 0000.0001) %MON exf_tsnumber                 =                    19
(PID.TID 0000.0001) %MON exf_time_sec                 =   8.2080000000000E+05
(PID.TID 0000.0001) %MON exf_ustress_max              =   2.7145822225139E-01
(PID.TID 0000.0001) %MON exf_ustress_min              =  -1.6530806475009E-01
(PID.TID 0000.0001) %MON exf_ustress_mean             =   1.5052015700009E-02
(PID.TID 0000.0001) %MON exf_ustress_sd               =   8.8881148390597E-02
(PID.TID 0000.0001) %MON exf_ustress_del2             =   6.9236602749671E-04
(PID.TID 0000.0001) %MON exf_vstress_max              =   2.1676894144621E-01
(PID.TID 0000.0001) %MON exf_vstress_min              =  -1.6888280990534E-01
(PID.TID 0000.0001) %MON exf_vstress_mean             =  -5.8450227885024E-03
(PID.TID 0000.0001) %MON exf_vstress_sd               =   4.6285115534762E-02
(PID.TID 0000.0001) %MON exf_vstress_del2             =   4.3170961085568E-04
(PID.TID 0000.0001) %MON exf_hflux_max                =   4.3584858703613E+02
(PID.TID 0000.0001) %MON exf_hflux_min                =  -1.8258894068400E+02
(PID.TID 0000.0001) %MON exf_hflux_mean               =  -1.6581341758071E+01
(PID.TID 0000.0001) %MON exf_hflux_sd                 =   1.1089764747903E+02
(PID.TID 0000.0001) %MON exf_hflux_del2               =   1.2263389253164E+00
(PID.TID 0000.0001) %MON exf_climsst_max              =   2.9464756584167E+01
(PID.TID 0000.0001) %MON exf_climsst_min              =  -1.9000000000000E+00
(PID.TID 0000.0001) %MON exf_climsst_mean             =   1.8440652762048E+01
(PID.TID 0000.0001) %MON exf_climsst_sd               =   9.1851179753778E+00
(PID.TID 0000.0001) %MON exf_climsst_del2             =   2.5230409614922E-02
(PID.TID 0000.0001) %MON exf_climsss_max              =   3.7466705449422E+01
(PID.TID 0000.0001) %MON exf_climsss_min              =   2.9719278113047E+01
(PID.TID 0000.0001) %MON exf_climsss_mean             =   3.4848762208067E+01
(PID.TID 0000.0001) %MON exf_climsss_sd               =   9.6314873753884E-01
(PID.TID 0000.0001) %MON exf_climsss_del2             =   7.4011968651968E-03
(PID.TID 0000.0001) // =======================================================
(PID.TID 0000.0001) // End MONITOR EXF statistics
(PID.TID 0000.0001) // =======================================================
 cg2d: Sum(rhs),rhsMax =  -9.07718344933528E-13  9.19886329519791E+00
(PID.TID 0000.0001)      cg2d_init_res =   8.09162166183495E-01
(PID.TID 0000.0001)      cg2d_iters(min,last) =      -1      25
(PID.TID 0000.0001)      cg2d_last_res =   3.17529389562820E-14
(PID.TID 0000.0001) // =======================================================
(PID.TID 0000.0001) // Begin MONITOR dynamic field statistics
(PID.TID 0000.0001) // =======================================================
(PID.TID 0000.0001) %MON time_tsnumber                =                    20
(PID.TID 0000.0001) %MON time_secondsf                =   8.6400000000000E+05
(PID.TID 0000.0001) %MON dynstat_eta_max              =   1.1037017559396E+00
(PID.TID 0000.0001) %MON dynstat_eta_min              =  -1.0465084673507E+00
(PID.TID 0000.0001) %MON dynstat_eta_mean             =   5.6330552110186E-16
(PID.TID 0000.0001) %MON dynstat_eta_sd               =   3.7365802848440E-01
(PID.TID 0000.0001) %MON dynstat_eta_del2             =   1.9832639096680E-03
(PID.TID 0000.0001) %MON dynstat_uvel_max             =   1.7139155758869E-01
(PID.TID 0000.0001) %MON dynstat_uvel_min             =  -1.4158185303967E-01
(PID.TID 0000.0001) %MON dynstat_uvel_mean            =  -9.1764036589335E-03
(PID.TID 0000.0001) %MON dynstat_uvel_sd              =   1.7662018849417E-02
(PID.TID 0000.0001) %MON dynstat_uvel_del2            =   1.1224566296940E-04
(PID.TID 0000.0001) %MON dynstat_vvel_max             =   1.3759863045589E-01
(PID.TID 0000.0001) %MON dynstat_vvel_min             =  -1.3632385716043E-01
(PID.TID 0000.0001) %MON dynstat_vvel_mean            =   2.2817809591120E-03
(PID.TID 0000.0001) %MON dynstat_vvel_sd              =   1.3004338106673E-02
(PID.TID 0000.0001) %MON dynstat_vvel_del2            =   1.0853668023677E-04
(PID.TID 0000.0001) %MON dynstat_wvel_max             =   2.6182364847357E-04
(PID.TID 0000.0001) %MON dynstat_wvel_min             =  -2.8228683107436E-04
(PID.TID 0000.0001) %MON dynstat_wvel_mean            =   1.8789927225977E-22
(PID.TID 0000.0001) %MON dynstat_wvel_sd              =   2.6835538446042E-05
(PID.TID 0000.0001) %MON dynstat_wvel_del2            =   2.7276210733939E-07
(PID.TID 0000.0001) %MON dynstat_theta_max            =   2.9431123495356E+01
(PID.TID 0000.0001) %MON dynstat_theta_min            =  -1.9977203168666E+00
(PID.TID 0000.0001) %MON dynstat_theta_mean           =   3.5952930535434E+00
(PID.TID 0000.0001) %MON dynstat_theta_sd             =   4.3543399154783E+00
(PID.TID 0000.0001) %MON dynstat_theta_del2           =   4.9655290678471E-03
(PID.TID 0000.0001) %MON dynstat_salt_max             =   3.7421236169870E+01
(PID.TID 0000.0001) %MON dynstat_salt_min             =   2.9788128386841E+01
(PID.TID 0000.0001) %MON dynstat_salt_mean            =   3.4716200535715E+01
(PID.TID 0000.0001) %MON dynstat_salt_sd              =   2.9585770425370E-01
(PID.TID 0000.0001) %MON dynstat_salt_del2            =   1.0028773522527E-03
(PID.TID 0000.0001) %MON forcing_qnet_max             =   4.3584858703613E+02
(PID.TID 0000.0001) %MON forcing_qnet_min             =  -1.8258894068400E+02
(PID.TID 0000.0001) %MON forcing_qnet_mean            =  -1.6581341758071E+01
(PID.TID 0000.0001) %MON forcing_qnet_sd              =   1.1089764747903E+02
(PID.TID 0000.0001) %MON forcing_qnet_del2            =   1.0077370718922E+00
(PID.TID 0000.0001) %MON forcing_qsw_max              =   0.0000000000000E+00
(PID.TID 0000.0001) %MON forcing_qsw_min              =   0.0000000000000E+00
(PID.TID 0000.0001) %MON forcing_qsw_mean             =   0.0000000000000E+00
(PID.TID 0000.0001) %MON forcing_qsw_sd               =   0.0000000000000E+00
(PID.TID 0000.0001) %MON forcing_qsw_del2             =   0.0000000000000E+00
(PID.TID 0000.0001) %MON forcing_empmr_max            =   0.0000000000000E+00
(PID.TID 0000.0001) %MON forcing_empmr_min            =   0.0000000000000E+00
(PID.TID 0000.0001) %MON forcing_empmr_mean           =   0.0000000000000E+00
(PID.TID 0000.0001) %MON forcing_empmr_sd             =   0.0000000000000E+00
(PID.TID 0000.0001) %MON forcing_empmr_del2           =   0.0000000000000E+00
(PID.TID 0000.0001) %MON forcing_fu_max               =   2.6930867531337E-01
(PID.TID 0000.0001) %MON forcing_fu_min               =  -1.6473507260283E-01
(PID.TID 0000.0001) %MON forcing_fu_mean              =   1.6092658129587E-02
(PID.TID 0000.0001) %MON forcing_fu_sd                =   9.0097930595384E-02
(PID.TID 0000.0001) %MON forcing_fu_del2              =   6.6098647375946E-04
(PID.TID 0000.0001) %MON forcing_fv_max               =   2.1519763333490E-01
(PID.TID 0000.0001) %MON forcing_fv_min               =  -1.6418286515982E-01
(PID.TID 0000.0001) %MON forcing_fv_mean              =  -5.5222550617767E-03
(PID.TID 0000.0001) %MON forcing_fv_sd                =   4.5256525917996E-02
(PID.TID 0000.0001) %MON forcing_fv_del2              =   3.5715412980204E-04
(PID.TID 0000.0001) %MON trAdv_CFL_u_max              =   2.3479937686073E-02
(PID.TID 0000.0001) %MON trAdv_CFL_v_max              =   1.3398908903334E-02
(PID.TID 0000.0001) %MON trAdv_CFL_w_max              =   8.3542212627301E-02
(PID.TID 0000.0001) %MON advcfl_uvel_max              =   2.3967630899899E-02
(PID.TID 0000.0001) %MON advcfl_vvel_max              =   1.3366603540432E-02
(PID.TID 0000.0001) %MON advcfl_wvel_max              =   1.5793691659341E-01
(PID.TID 0000.0001) %MON advcfl_W_hf_max              =   6.6212081858132E-02
(PID.TID 0000.0001) %MON pe_b_mean                    =   1.7866103115265E-04
(PID.TID 0000.0001) %MON ke_max                       =   1.3451825407325E-02
(PID.TID 0000.0001) %MON ke_mean                      =   2.5823802724878E-04
(PID.TID 0000.0001) %MON ke_vol                       =   1.3226782436723E+18
(PID.TID 0000.0001) %MON vort_r_min                   =  -4.5416730269236E-07
(PID.TID 0000.0001) %MON vort_r_max                   =   3.8743417833731E-07
(PID.TID 0000.0001) %MON vort_a_mean                  =  -2.5205769510090E-05
(PID.TID 0000.0001) %MON vort_a_sd                    =   7.3401457680967E-05
(PID.TID 0000.0001) %MON vort_p_mean                  =  -3.1758669704447E-05
(PID.TID 0000.0001) %MON vort_p_sd                    =   1.3126050616342E-04
(PID.TID 0000.0001) %MON surfExpan_theta_mean         =   3.4146229006552E-05
(PID.TID 0000.0001) %MON surfExpan_salt_mean          =  -5.8518537285656E-08
(PID.TID 0000.0001) // =======================================================
(PID.TID 0000.0001) // End MONITOR dynamic field statistics
(PID.TID 0000.0001) // =======================================================
(PID.TID 0000.0001) // Time-average data written, t-step        20
(PID.TID 0000.0001) 
 Computing Diagnostic #    241  FrzForcT     Counter:      20   Parms: SM      MR      
(PID.TID 0000.0001) %CHECKPOINT        20 ckptA
(PID.TID 0000.0001)   Seconds in section "ALL                    [THE_MODEL_MAIN]":
(PID.TID 0000.0001)           User time:   11.913317218422890
(PID.TID 0000.0001)         System time:  0.10142699629068375
(PID.TID 0000.0001)     Wall clock time:   12.027832031250000
(PID.TID 0000.0001)          No. starts:           1
(PID.TID 0000.0001)           No. stops:           1
(PID.TID 0000.0001)   Seconds in section "INITIALISE_FIXED       [THE_MODEL_MAIN]":
(PID.TID 0000.0001)           User time:   7.7159998938441277E-002
(PID.TID 0000.0001)         System time:   2.1324999630451202E-002
(PID.TID 0000.0001)     Wall clock time:  0.10881805419921875
(PID.TID 0000.0001)          No. starts:           1
(PID.TID 0000.0001)           No. stops:           1
(PID.TID 0000.0001)   Seconds in section "THE_MAIN_LOOP          [THE_MODEL_MAIN]":
(PID.TID 0000.0001)           User time:   11.836125545203686
(PID.TID 0000.0001)         System time:   8.0083996057510376E-002
(PID.TID 0000.0001)     Wall clock time:   11.918972969055176
(PID.TID 0000.0001)          No. starts:           1
(PID.TID 0000.0001)           No. stops:           1
(PID.TID 0000.0001)   Seconds in section "INITIALISE_VARIA    [THE_MAIN_LOOP]":
(PID.TID 0000.0001)           User time:  0.16741400212049484
(PID.TID 0000.0001)         System time:   4.7830004245042801E-002
(PID.TID 0000.0001)     Wall clock time:  0.21524786949157715
(PID.TID 0000.0001)          No. starts:           1
(PID.TID 0000.0001)           No. stops:           1
(PID.TID 0000.0001)   Seconds in section "MAIN LOOP           [THE_MAIN_LOOP]":
(PID.TID 0000.0001)           User time:   11.668687880039215
(PID.TID 0000.0001)         System time:   3.2247997820377350E-002
(PID.TID 0000.0001)     Wall clock time:   11.703698158264160
(PID.TID 0000.0001)          No. starts:           1
(PID.TID 0000.0001)           No. stops:           1
(PID.TID 0000.0001)   Seconds in section "MAIN_DO_LOOP        [THE_MAIN_LOOP]":
(PID.TID 0000.0001)           User time:   11.668520599603653
(PID.TID 0000.0001)         System time:   3.2245993614196777E-002
(PID.TID 0000.0001)     Wall clock time:   11.703527212142944
(PID.TID 0000.0001)          No. starts:          20
(PID.TID 0000.0001)           No. stops:          20
(PID.TID 0000.0001)   Seconds in section "FORWARD_STEP        [MAIN_DO_LOOP]":
(PID.TID 0000.0001)           User time:   11.668175339698792
(PID.TID 0000.0001)         System time:   3.2242998480796814E-002
(PID.TID 0000.0001)     Wall clock time:   11.703181743621826
(PID.TID 0000.0001)          No. starts:          20
(PID.TID 0000.0001)           No. stops:          20
(PID.TID 0000.0001)   Seconds in section "DO_STATEVARS_DIAGS  [FORWARD_STEP]":
(PID.TID 0000.0001)           User time:   4.6112835407257080E-003
(PID.TID 0000.0001)         System time:   1.0997056961059570E-005
(PID.TID 0000.0001)     Wall clock time:   4.6329498291015625E-003
(PID.TID 0000.0001)          No. starts:          40
(PID.TID 0000.0001)           No. stops:          40
(PID.TID 0000.0001)   Seconds in section "LOAD_FIELDS_DRIVER  [FORWARD_STEP]":
(PID.TID 0000.0001)           User time:  0.16371941566467285
(PID.TID 0000.0001)         System time:   3.1300634145736694E-004
(PID.TID 0000.0001)     Wall clock time:  0.16435670852661133
(PID.TID 0000.0001)          No. starts:          20
(PID.TID 0000.0001)           No. stops:          20
(PID.TID 0000.0001)   Seconds in section "EXF_GETFORCING     [LOAD_FLDS_DRIVER]":
(PID.TID 0000.0001)           User time:  0.16298761963844299
(PID.TID 0000.0001)         System time:   3.0099600553512573E-004
(PID.TID 0000.0001)     Wall clock time:  0.16364979743957520
(PID.TID 0000.0001)          No. starts:          20
(PID.TID 0000.0001)           No. stops:          20
(PID.TID 0000.0001)   Seconds in section "EXTERNAL_FLDS_LOAD [LOAD_FLDS_DRIVER]":
(PID.TID 0000.0001)           User time:   1.8841028213500977E-004
(PID.TID 0000.0001)         System time:   4.9993395805358887E-006
(PID.TID 0000.0001)     Wall clock time:   1.9407272338867188E-004
(PID.TID 0000.0001)          No. starts:          20
(PID.TID 0000.0001)           No. stops:          20
(PID.TID 0000.0001)   Seconds in section "DO_ATMOSPHERIC_PHYS [FORWARD_STEP]":
(PID.TID 0000.0001)           User time:   1.8242001533508301E-004
(PID.TID 0000.0001)         System time:   4.0009617805480957E-006
(PID.TID 0000.0001)     Wall clock time:   1.8334388732910156E-004
(PID.TID 0000.0001)          No. starts:          20
(PID.TID 0000.0001)           No. stops:          20
(PID.TID 0000.0001)   Seconds in section "DO_OCEANIC_PHYS     [FORWARD_STEP]":
(PID.TID 0000.0001)           User time:   1.4692734479904175
(PID.TID 0000.0001)         System time:   2.6500225067138672E-004
(PID.TID 0000.0001)     Wall clock time:   1.4699239730834961
(PID.TID 0000.0001)          No. starts:          20
(PID.TID 0000.0001)           No. stops:          20
(PID.TID 0000.0001)   Seconds in section "THERMODYNAMICS      [FORWARD_STEP]":
(PID.TID 0000.0001)           User time:   3.1866263747215271
(PID.TID 0000.0001)         System time:   7.4959993362426758E-003
(PID.TID 0000.0001)     Wall clock time:   3.1949636936187744
(PID.TID 0000.0001)          No. starts:          20
(PID.TID 0000.0001)           No. stops:          20
(PID.TID 0000.0001)   Seconds in section "DYNAMICS            [FORWARD_STEP]":
(PID.TID 0000.0001)           User time:   3.8039957880973816
(PID.TID 0000.0001)         System time:   2.2800266742706299E-004
(PID.TID 0000.0001)     Wall clock time:   3.8052768707275391
(PID.TID 0000.0001)          No. starts:          20
(PID.TID 0000.0001)           No. stops:          20
(PID.TID 0000.0001)   Seconds in section "SOLVE_FOR_PRESSURE  [FORWARD_STEP]":
(PID.TID 0000.0001)           User time:  0.75884687900543213
(PID.TID 0000.0001)         System time:   0.0000000000000000
(PID.TID 0000.0001)     Wall clock time:  0.75894260406494141
(PID.TID 0000.0001)          No. starts:          20
(PID.TID 0000.0001)           No. stops:          20
(PID.TID 0000.0001)   Seconds in section "MOM_CORRECTION_STEP [FORWARD_STEP]":
(PID.TID 0000.0001)           User time:  0.10891371965408325
(PID.TID 0000.0001)         System time:   0.0000000000000000
(PID.TID 0000.0001)     Wall clock time:  0.10919880867004395
(PID.TID 0000.0001)          No. starts:          20
(PID.TID 0000.0001)           No. stops:          20
(PID.TID 0000.0001)   Seconds in section "INTEGR_CONTINUITY   [FORWARD_STEP]":
(PID.TID 0000.0001)           User time:  0.13614207506179810
(PID.TID 0000.0001)         System time:   4.1000545024871826E-005
(PID.TID 0000.0001)     Wall clock time:  0.13621520996093750
(PID.TID 0000.0001)          No. starts:          20
(PID.TID 0000.0001)           No. stops:          20
(PID.TID 0000.0001)   Seconds in section "TRC_CORRECTION_STEP [FORWARD_STEP]":
(PID.TID 0000.0001)           User time:   1.7648935317993164E-004
(PID.TID 0000.0001)         System time:   9.9837779998779297E-007
(PID.TID 0000.0001)     Wall clock time:   1.8119812011718750E-004
(PID.TID 0000.0001)          No. starts:          20
(PID.TID 0000.0001)           No. stops:          20
(PID.TID 0000.0001)   Seconds in section "BLOCKING_EXCHANGES  [FORWARD_STEP]":
(PID.TID 0000.0001)           User time:  0.10163623094558716
(PID.TID 0000.0001)         System time:   0.0000000000000000
(PID.TID 0000.0001)     Wall clock time:  0.10167574882507324
(PID.TID 0000.0001)          No. starts:          20
(PID.TID 0000.0001)           No. stops:          20
(PID.TID 0000.0001)   Seconds in section "DO_STATEVARS_TAVE   [FORWARD_STEP]":
(PID.TID 0000.0001)           User time:  0.56435382366180420
(PID.TID 0000.0001)         System time:   0.0000000000000000
(PID.TID 0000.0001)     Wall clock time:  0.56444668769836426
(PID.TID 0000.0001)          No. starts:          20
(PID.TID 0000.0001)           No. stops:          20
(PID.TID 0000.0001)   Seconds in section "MONITOR             [FORWARD_STEP]":
(PID.TID 0000.0001)           User time:   1.2089668512344360
(PID.TID 0000.0001)         System time:   0.0000000000000000
(PID.TID 0000.0001)     Wall clock time:   1.2091517448425293
(PID.TID 0000.0001)          No. starts:          20
(PID.TID 0000.0001)           No. stops:          20
(PID.TID 0000.0001)   Seconds in section "DO_THE_MODEL_IO     [FORWARD_STEP]":
(PID.TID 0000.0001)           User time:  0.12876230478286743
(PID.TID 0000.0001)         System time:   1.1861003935337067E-002
(PID.TID 0000.0001)     Wall clock time:  0.14062952995300293
(PID.TID 0000.0001)          No. starts:          20
(PID.TID 0000.0001)           No. stops:          20
(PID.TID 0000.0001)   Seconds in section "DO_WRITE_PICKUP     [FORWARD_STEP]":
(PID.TID 0000.0001)           User time:   2.8207480907440186E-002
(PID.TID 0000.0001)         System time:   1.2000992894172668E-002
(PID.TID 0000.0001)     Wall clock time:   4.0210008621215820E-002
(PID.TID 0000.0001)          No. starts:          20
(PID.TID 0000.0001)           No. stops:          20
(PID.TID 0000.0001) // ======================================================
(PID.TID 0000.0001) // Tile <-> Tile communication statistics
(PID.TID 0000.0001) // ======================================================
(PID.TID 0000.0001) // o Tile number: 000001
(PID.TID 0000.0001) //         No. X exchanges =              0
(PID.TID 0000.0001) //            Max. X spins =              0
(PID.TID 0000.0001) //            Min. X spins =     1000000000
(PID.TID 0000.0001) //          Total. X spins =              0
(PID.TID 0000.0001) //            Avg. X spins =       0.00E+00
(PID.TID 0000.0001) //         No. Y exchanges =              0
(PID.TID 0000.0001) //            Max. Y spins =              0
(PID.TID 0000.0001) //            Min. Y spins =     1000000000
(PID.TID 0000.0001) //          Total. Y spins =              0
(PID.TID 0000.0001) //            Avg. Y spins =       0.00E+00
(PID.TID 0000.0001) // o Tile number: 000002
(PID.TID 0000.0001) //         No. X exchanges =              0
(PID.TID 0000.0001) //            Max. X spins =              0
(PID.TID 0000.0001) //            Min. X spins =     1000000000
(PID.TID 0000.0001) //          Total. X spins =              0
(PID.TID 0000.0001) //            Avg. X spins =       0.00E+00
(PID.TID 0000.0001) //         No. Y exchanges =              0
(PID.TID 0000.0001) //            Max. Y spins =              0
(PID.TID 0000.0001) //            Min. Y spins =     1000000000
(PID.TID 0000.0001) //          Total. Y spins =              0
(PID.TID 0000.0001) //            Avg. Y spins =       0.00E+00
(PID.TID 0000.0001) // o Tile number: 000003
(PID.TID 0000.0001) //         No. X exchanges =              0
(PID.TID 0000.0001) //            Max. X spins =              0
(PID.TID 0000.0001) //            Min. X spins =     1000000000
(PID.TID 0000.0001) //          Total. X spins =              0
(PID.TID 0000.0001) //            Avg. X spins =       0.00E+00
(PID.TID 0000.0001) //         No. Y exchanges =              0
(PID.TID 0000.0001) //            Max. Y spins =              0
(PID.TID 0000.0001) //            Min. Y spins =     1000000000
(PID.TID 0000.0001) //          Total. Y spins =              0
(PID.TID 0000.0001) //            Avg. Y spins =       0.00E+00
(PID.TID 0000.0001) // o Tile number: 000004
(PID.TID 0000.0001) //         No. X exchanges =              0
(PID.TID 0000.0001) //            Max. X spins =              0
(PID.TID 0000.0001) //            Min. X spins =     1000000000
(PID.TID 0000.0001) //          Total. X spins =              0
(PID.TID 0000.0001) //            Avg. X spins =       0.00E+00
(PID.TID 0000.0001) //         No. Y exchanges =              0
(PID.TID 0000.0001) //            Max. Y spins =              0
(PID.TID 0000.0001) //            Min. Y spins =     1000000000
(PID.TID 0000.0001) //          Total. Y spins =              0
(PID.TID 0000.0001) //            Avg. Y spins =       0.00E+00
(PID.TID 0000.0001) // o Tile number: 000005
(PID.TID 0000.0001) //         No. X exchanges =              0
(PID.TID 0000.0001) //            Max. X spins =              0
(PID.TID 0000.0001) //            Min. X spins =     1000000000
(PID.TID 0000.0001) //          Total. X spins =              0
(PID.TID 0000.0001) //            Avg. X spins =       0.00E+00
(PID.TID 0000.0001) //         No. Y exchanges =              0
(PID.TID 0000.0001) //            Max. Y spins =              0
(PID.TID 0000.0001) //            Min. Y spins =     1000000000
(PID.TID 0000.0001) //          Total. Y spins =              0
(PID.TID 0000.0001) //            Avg. Y spins =       0.00E+00
(PID.TID 0000.0001) // o Tile number: 000006
(PID.TID 0000.0001) //         No. X exchanges =              0
(PID.TID 0000.0001) //            Max. X spins =              0
(PID.TID 0000.0001) //            Min. X spins =     1000000000
(PID.TID 0000.0001) //          Total. X spins =              0
(PID.TID 0000.0001) //            Avg. X spins =       0.00E+00
(PID.TID 0000.0001) //         No. Y exchanges =              0
(PID.TID 0000.0001) //            Max. Y spins =              0
(PID.TID 0000.0001) //            Min. Y spins =     1000000000
(PID.TID 0000.0001) //          Total. Y spins =              0
(PID.TID 0000.0001) //            Avg. Y spins =       0.00E+00
(PID.TID 0000.0001) // o Thread number: 000001
(PID.TID 0000.0001) //            No. barriers =           8104
(PID.TID 0000.0001) //      Max. barrier spins =              1
(PID.TID 0000.0001) //      Min. barrier spins =              1
(PID.TID 0000.0001) //     Total barrier spins =           8104
(PID.TID 0000.0001) //      Avg. barrier spins =       1.00E+00
PROGRAM MAIN: Execution ended Normally
