(PID.TID 0000.0001) 
(PID.TID 0000.0001) // ======================================================
(PID.TID 0000.0001) //                      MITgcm UV
(PID.TID 0000.0001) //                      =========
(PID.TID 0000.0001) // ======================================================
(PID.TID 0000.0001) // execution environment starting up...
(PID.TID 0000.0001) 
(PID.TID 0000.0001) // MITgcmUV version:  checkpoint63f
(PID.TID 0000.0001) // Build user:        jmc
(PID.TID 0000.0001) // Build host:        baudelaire
(PID.TID 0000.0001) // Build date:        Mon Dec  5 17:44:04 EST 2011
(PID.TID 0000.0001) 
(PID.TID 0000.0001) // =======================================================
(PID.TID 0000.0001) // Execution Environment parameter file "eedata"
(PID.TID 0000.0001) // =======================================================
(PID.TID 0000.0001) ># Example "eedata" file
(PID.TID 0000.0001) ># Lines beginning "#" are comments
(PID.TID 0000.0001) ># nTx - No. threads per process in X
(PID.TID 0000.0001) ># nTy - No. threads per process in Y
(PID.TID 0000.0001) > &EEPARMS
(PID.TID 0000.0001) > nTx=1,
(PID.TID 0000.0001) > nTy=1,
(PID.TID 0000.0001) > /
(PID.TID 0000.0001) ># Note: Some systems use & as the namelist terminator (as shown here).
(PID.TID 0000.0001) >#       Other systems use a / character.
(PID.TID 0000.0001) 
(PID.TID 0000.0001) // =======================================================
(PID.TID 0000.0001) // Computational Grid Specification ( see files "SIZE.h" )
(PID.TID 0000.0001) //                                  ( and "eedata"       )
(PID.TID 0000.0001) // =======================================================
(PID.TID 0000.0001)      nPx =    1 ; /* No. processes in X */
(PID.TID 0000.0001)      nPy =    1 ; /* No. processes in Y */
(PID.TID 0000.0001)      nSx =    2 ; /* No. tiles in X per process */
(PID.TID 0000.0001)      nSy =    1 ; /* No. tiles in Y per process */
(PID.TID 0000.0001)      sNx =   10 ; /* Tile size in X */
(PID.TID 0000.0001)      sNy =    1 ; /* Tile size in Y */
(PID.TID 0000.0001)      OLx =    3 ; /* Tile overlap distance in X */
(PID.TID 0000.0001)      OLy =    3 ; /* Tile overlap distance in Y */
(PID.TID 0000.0001)      nTx =    1 ; /* No. threads in X per process */
(PID.TID 0000.0001)      nTy =    1 ; /* No. threads in Y per process */
(PID.TID 0000.0001)       Nr =   20 ; /* No. levels in the vertical   */
(PID.TID 0000.0001)       Nx =   20 ; /* Total domain size in X ( = nPx*nSx*sNx ) */
(PID.TID 0000.0001)       Ny =    1 ; /* Total domain size in Y ( = nPy*nSy*sNy ) */
(PID.TID 0000.0001)   nTiles =    2 ; /* Total no. tiles per process ( = nSx*nSy ) */
(PID.TID 0000.0001)   nProcs =    1 ; /* Total no. processes ( = nPx*nPy ) */
(PID.TID 0000.0001) nThreads =    1 ; /* Total no. threads per process ( = nTx*nTy ) */
(PID.TID 0000.0001) usingMPI =    F ; /* Flag used to control whether MPI is in use */
(PID.TID 0000.0001)                   /*  note: To execute a program with MPI calls */
(PID.TID 0000.0001)                   /*  it must be launched appropriately e.g     */
(PID.TID 0000.0001)                   /*  "mpirun -np 64 ......"                    */
(PID.TID 0000.0001) useCoupler=    F ;/* Flag used to control communications with   */
(PID.TID 0000.0001)                   /*  other model components, through a coupler */
(PID.TID 0000.0001) debugMode =    F ; /* print debug msg. (sequence of S/R calls)  */
(PID.TID 0000.0001) printMapIncludesZeros=    F ; /* print zeros in Std.Output maps */
(PID.TID 0000.0001) maxLengthPrt1D=   65 /* maxLength of 1D array printed to StdOut */
(PID.TID 0000.0001) 
(PID.TID 0000.0001) // ======================================================
(PID.TID 0000.0001) // Mapping of tiles to threads
(PID.TID 0000.0001) // ======================================================
(PID.TID 0000.0001) // -o- Thread   1, tiles (   1:   2,   1:   1)
(PID.TID 0000.0001) 
(PID.TID 0000.0001) // ======================================================
(PID.TID 0000.0001) // Tile <-> Tile connectvity table
(PID.TID 0000.0001) // ======================================================
(PID.TID 0000.0001) // Tile number: 000001 (process no. = 000001)
(PID.TID 0000.0001) //        WEST: Tile = 000002, Process = 000001, Comm = put
(PID.TID 0000.0001) //                bi = 000002, bj = 000001
(PID.TID 0000.0001) //        EAST: Tile = 000002, Process = 000001, Comm = put
(PID.TID 0000.0001) //                bi = 000002, bj = 000001
(PID.TID 0000.0001) //       SOUTH: Tile = 000001, Process = 000001, Comm = put
(PID.TID 0000.0001) //                bi = 000001, bj = 000001
(PID.TID 0000.0001) //       NORTH: Tile = 000001, Process = 000001, Comm = put
(PID.TID 0000.0001) //                bi = 000001, bj = 000001
(PID.TID 0000.0001) // Tile number: 000002 (process no. = 000001)
(PID.TID 0000.0001) //        WEST: Tile = 000001, Process = 000001, Comm = put
(PID.TID 0000.0001) //                bi = 000001, bj = 000001
(PID.TID 0000.0001) //        EAST: Tile = 000001, Process = 000001, Comm = put
(PID.TID 0000.0001) //                bi = 000001, bj = 000001
(PID.TID 0000.0001) //       SOUTH: Tile = 000002, Process = 000001, Comm = put
(PID.TID 0000.0001) //                bi = 000002, bj = 000001
(PID.TID 0000.0001) //       NORTH: Tile = 000002, Process = 000001, Comm = put
(PID.TID 0000.0001) //                bi = 000002, bj = 000001
(PID.TID 0000.0001) 
(PID.TID 0000.0001)  INI_PARMS: opening model parameter file "data"
(PID.TID 0000.0001)  OPEN_COPY_DATA_FILE: opening file data
(PID.TID 0000.0001) // =======================================================
(PID.TID 0000.0001) // Parameter file "data"
(PID.TID 0000.0001) // =======================================================
(PID.TID 0000.0001) ># ====================
(PID.TID 0000.0001) ># | Model parameters |
(PID.TID 0000.0001) ># ====================
(PID.TID 0000.0001) >#
(PID.TID 0000.0001) ># Continuous equation parameters
(PID.TID 0000.0001) > &PARM01
(PID.TID 0000.0001) > rigidLid=.FALSE.,
(PID.TID 0000.0001) > implicitFreeSurface=.TRUE.,
(PID.TID 0000.0001) > exactConserv=.TRUE.,
(PID.TID 0000.0001) > select_rStar=2,
(PID.TID 0000.0001) > nonlinFreeSurf=4,
(PID.TID 0000.0001) >#linFSConserveTr=.TRUE.,
(PID.TID 0000.0001) > hFacInf=0.2,
(PID.TID 0000.0001) > hFacSup=2.0,
(PID.TID 0000.0001) > tAlpha=0.,
(PID.TID 0000.0001) > sBeta= 0.,
(PID.TID 0000.0001) > momStepping=.FALSE.,
(PID.TID 0000.0001) > hFacMin=0.1,
(PID.TID 0000.0001) > staggerTimeStep=.TRUE.,
(PID.TID 0000.0001) > tempAdvScheme=77,
(PID.TID 0000.0001) > saltAdvScheme=3,
(PID.TID 0000.0001) > diffKhS=1.E+2,
(PID.TID 0000.0001) > diffKrS=1.E-2,
(PID.TID 0000.0001) > tempImplVertAdv=.TRUE.,
(PID.TID 0000.0001) > saltImplVertAdv=.TRUE.,
(PID.TID 0000.0001) > implicitDiffusion=.TRUE.,
(PID.TID 0000.0001) > readBinaryPrec=64,
(PID.TID 0000.0001) > writeBinaryPrec=64,
(PID.TID 0000.0001) > /
(PID.TID 0000.0001) >
(PID.TID 0000.0001) ># Elliptic solver parameters
(PID.TID 0000.0001) > &PARM02
(PID.TID 0000.0001) > cg2dMaxIters=100,
(PID.TID 0000.0001) > cg2dTargetResidual=1.E-13,
(PID.TID 0000.0001) > /
(PID.TID 0000.0001) >
(PID.TID 0000.0001) ># Time stepping parameters
(PID.TID 0000.0001) > &PARM03
(PID.TID 0000.0001) > startTime=0.,
(PID.TID 0000.0001) > endTime=240000.,
(PID.TID 0000.0001) > deltaT=1200.,
(PID.TID 0000.0001) > abEps=0.1,
(PID.TID 0000.0001) > pChkptFreq=0.,
(PID.TID 0000.0001) > chkptFreq= 0.,
(PID.TID 0000.0001) > dumpFreq =24000.,
(PID.TID 0000.0001) > monitorSelect=1,
(PID.TID 0000.0001) > monitorFreq=12000.,
(PID.TID 0000.0001) > /
(PID.TID 0000.0001) >
(PID.TID 0000.0001) ># Gridding parameters
(PID.TID 0000.0001) > &PARM04
(PID.TID 0000.0001) > usingCartesianGrid=.TRUE.,
(PID.TID 0000.0001) > delR=20*100.,
(PID.TID 0000.0001) > dXspacing=10.E3,
(PID.TID 0000.0001) > dYspacing=10.E3,
(PID.TID 0000.0001) > /
(PID.TID 0000.0001) >
(PID.TID 0000.0001) ># Input datasets
(PID.TID 0000.0001) > &PARM05
(PID.TID 0000.0001) > bathyFile='bathy_slope.bin',
(PID.TID 0000.0001) >#uVelInitFile='Uvel.bin',
(PID.TID 0000.0001) > uVelInitFile='Udiv.bin',
(PID.TID 0000.0001) > hydrogThetaFile='Tini_G.bin',
(PID.TID 0000.0001) > hydrogSaltFile ='Tini_G.bin',
(PID.TID 0000.0001) > /
(PID.TID 0000.0001) 
(PID.TID 0000.0001)  INI_PARMS ; starts to read PARM01
(PID.TID 0000.0001)  INI_PARMS ; read PARM01 : OK
(PID.TID 0000.0001)  INI_PARMS ; starts to read PARM02
(PID.TID 0000.0001)  INI_PARMS ; read PARM02 : OK
(PID.TID 0000.0001)  INI_PARMS ; starts to read PARM03
(PID.TID 0000.0001)  INI_PARMS ; read PARM03 : OK
(PID.TID 0000.0001)  INI_PARMS ; starts to read PARM04
(PID.TID 0000.0001)  INI_PARMS ; read PARM04 : OK
(PID.TID 0000.0001)  INI_PARMS ; starts to read PARM05
(PID.TID 0000.0001)  INI_PARMS ; read PARM05 : OK
(PID.TID 0000.0001)  INI_PARMS: finished reading file "data"
(PID.TID 0000.0001)  PACKAGES_BOOT: opening data.pkg
(PID.TID 0000.0001)  OPEN_COPY_DATA_FILE: opening file data.pkg
(PID.TID 0000.0001) // =======================================================
(PID.TID 0000.0001) // Parameter file "data.pkg"
(PID.TID 0000.0001) // =======================================================
(PID.TID 0000.0001) ># Packages
(PID.TID 0000.0001) > &PACKAGES
(PID.TID 0000.0001) > useDiagnostics=.TRUE.,
(PID.TID 0000.0001) > /
(PID.TID 0000.0001) 
(PID.TID 0000.0001)  PACKAGES_BOOT: finished reading data.pkg
(PID.TID 0000.0001)  DIAGNOSTICS_READPARMS: opening data.diagnostics
(PID.TID 0000.0001)  OPEN_COPY_DATA_FILE: opening file data.diagnostics
(PID.TID 0000.0001) // =======================================================
(PID.TID 0000.0001) // Parameter file "data.diagnostics"
(PID.TID 0000.0001) // =======================================================
(PID.TID 0000.0001) ># Diagnostic Package Choices
(PID.TID 0000.0001) >#-----------------
(PID.TID 0000.0001) ># for each output-stream:
(PID.TID 0000.0001) >#  filename(n) : prefix of the output file name (only 8.c long) for outp.stream n
(PID.TID 0000.0001) >#  frequency(n):< 0 : write snap-shot output every |frequency| seconds
(PID.TID 0000.0001) >#               > 0 : write time-average output every frequency seconds
(PID.TID 0000.0001) >#  timePhase(n)     : write at time = timePhase + multiple of |frequency|
(PID.TID 0000.0001) >#  levels(:,n) : list of levels to write to file (Notes: declared as REAL)
(PID.TID 0000.0001) >#                 when this entry is missing, select all common levels of this list
(PID.TID 0000.0001) >#  fields(:,n) : list of diagnostics fields (8.c) (see "available_diagnostics.log"
(PID.TID 0000.0001) >#                 file for the list of all available diag. in this particular config)
(PID.TID 0000.0001) >#-----------------
(PID.TID 0000.0001) > &diagnostics_list
(PID.TID 0000.0001) ># diag_mnc     = .FALSE.,
(PID.TID 0000.0001) >  frequency(1) = 24000.,
(PID.TID 0000.0001) >   filename(1) = 'flxDiag',
(PID.TID 0000.0001) >  fields(1:4,1) = 'ADVx_TH ',
(PID.TID 0000.0001) >                  'ADVr_TH ',
(PID.TID 0000.0001) >                  'ADVx_SLT',
(PID.TID 0000.0001) >                  'ADVr_SLT',
(PID.TID 0000.0001) > /
(PID.TID 0000.0001) >
(PID.TID 0000.0001) ># Parameter for Diagnostics of per level statistics:
(PID.TID 0000.0001) >#-----------------
(PID.TID 0000.0001) ># for each output-stream:
(PID.TID 0000.0001) >#  stat_fname(n) : prefix of the output file name (only 8.c long) for outp.stream n
(PID.TID 0000.0001) >#  stat_freq(n):< 0 : write snap-shot output every |stat_freq| seconds
(PID.TID 0000.0001) >#               > 0 : write time-average output every stat_freq seconds
(PID.TID 0000.0001) >#  stat_phase(n)    : write at time = stat_phase + multiple of |stat_freq|
(PID.TID 0000.0001) >#  stat_region(:,n) : list of "regions" (default: 1 region only=global)
(PID.TID 0000.0001) >#  stat_fields(:,n) : list of diagnostics fields (8.c) (see "available_diagnostics.log"
(PID.TID 0000.0001) >#                 file for the list of all available diag. in this particular config)
(PID.TID 0000.0001) >#-----------------
(PID.TID 0000.0001) > &DIAG_STATIS_PARMS
(PID.TID 0000.0001) > stat_fields(1:11,1)= 'UVEL    ','WVEL    ','THETA   ','SALT    ',
(PID.TID 0000.0001) >                      'ETAN    ','RSURF   ',
(PID.TID 0000.0001) >                      'ADVx_TH ','ADVr_TH ','ADVx_SLT','ADVr_SLT',
(PID.TID 0000.0001) >                      'gSinAB  ',
(PID.TID 0000.0001) >    stat_fname(1)= 'dynStDiag',
(PID.TID 0000.0001) >     stat_freq(1)= -6000.,
(PID.TID 0000.0001) >#    stat_freq(1)= -1200.,
(PID.TID 0000.0001) >    stat_phase(1)= 0.,
(PID.TID 0000.0001) > stat_fields(1:1,2) = 'AB_gS   ',
(PID.TID 0000.0001) >#   stat_fname(2)= 'flxStDiag',
(PID.TID 0000.0001) >     stat_freq(2)=  6000.,
(PID.TID 0000.0001) >    stat_phase(2)= -1000.,
(PID.TID 0000.0001) > /
(PID.TID 0000.0001) >
(PID.TID 0000.0001) 
(PID.TID 0000.0001) S/R DIAGNOSTICS_READPARMS, read namelist "diagnostics_list": start
(PID.TID 0000.0001) S/R DIAGNOSTICS_READPARMS, read namelist "diagnostics_list": OK
(PID.TID 0000.0001) S/R DIAGNOSTICS_READPARMS, read namelist "DIAG_STATIS_PARMS": start
(PID.TID 0000.0001) S/R DIAGNOSTICS_READPARMS, read namelist "DIAG_STATIS_PARMS": OK
(PID.TID 0000.0001)  DIAGNOSTICS_READPARMS: global parameter summary:
(PID.TID 0000.0001)  dumpAtLast = /* always write time-ave diags at the end */
(PID.TID 0000.0001)                   F
(PID.TID 0000.0001)     ;
(PID.TID 0000.0001)  diag_mnc =   /* write NetCDF output files */
(PID.TID 0000.0001)                   F
(PID.TID 0000.0001)     ;
(PID.TID 0000.0001)  useMissingValue = /* put MissingValue where mask = 0 */
(PID.TID 0000.0001)                   F
(PID.TID 0000.0001)     ;
(PID.TID 0000.0001)  diagCG_maxIters = /* max number of iters in diag_cg2d */
(PID.TID 0000.0001)                     100
(PID.TID 0000.0001)     ;
(PID.TID 0000.0001)  diagCG_resTarget = /* residual target for diag_cg2d */
(PID.TID 0000.0001)                 1.000000000000000E-13
(PID.TID 0000.0001)     ;
(PID.TID 0000.0001) -----------------------------------------------------
(PID.TID 0000.0001)  DIAGNOSTICS_READPARMS: active diagnostics summary:
(PID.TID 0000.0001) -----------------------------------------------------
(PID.TID 0000.0001) Creating Output Stream: flxDiag
(PID.TID 0000.0001) Output Frequency:      24000.000000 ; Phase:           0.000000
(PID.TID 0000.0001)  Averaging Freq.:      24000.000000 , Phase:           0.000000 , Cycle:   1
(PID.TID 0000.0001)  missing value:  1.234567000000E+05 ; for integers:   123456789
(PID.TID 0000.0001)  Levels:    will be set later
(PID.TID 0000.0001)  Fields:    ADVx_TH  ADVr_TH  ADVx_SLT ADVr_SLT
(PID.TID 0000.0001) -----------------------------------------------------
(PID.TID 0000.0001)  DIAGNOSTICS_READPARMS: statistics diags. summary:
(PID.TID 0000.0001) Creating Stats. Output Stream: dynStDiag
(PID.TID 0000.0001) Output Frequency:      -6000.000000 ; Phase:           0.000000
(PID.TID 0000.0001)  Regions:   0
(PID.TID 0000.0001)  Fields:    UVEL     WVEL     THETA    SALT     ETAN     RSURF    ADVx_TH  ADVr_TH  ADVx_SLT ADVr_SLT
(PID.TID 0000.0001)  Fields:    gSinAB
(PID.TID 0000.0001) -----------------------------------------------------
(PID.TID 0000.0001) 
(PID.TID 0000.0001) SET_PARMS: done
(PID.TID 0000.0001) Enter INI_VERTICAL_GRID: setInterFDr=    T ; setCenterDr=    F
(PID.TID 0000.0001) %MON XC_max                       =   1.9500000000000E+05
(PID.TID 0000.0001) %MON XC_min                       =   5.0000000000000E+03
(PID.TID 0000.0001) %MON XC_mean                      =   1.0000000000000E+05
(PID.TID 0000.0001) %MON XC_sd                        =   5.7662812973354E+04
(PID.TID 0000.0001) %MON XG_max                       =   1.9000000000000E+05
(PID.TID 0000.0001) %MON XG_min                       =   0.0000000000000E+00
(PID.TID 0000.0001) %MON XG_mean                      =   9.5000000000000E+04
(PID.TID 0000.0001) %MON XG_sd                        =   5.7662812973354E+04
(PID.TID 0000.0001) %MON DXC_max                      =   1.0000000000000E+04
(PID.TID 0000.0001) %MON DXC_min                      =   1.0000000000000E+04
(PID.TID 0000.0001) %MON DXC_mean                     =   1.0000000000000E+04
(PID.TID 0000.0001) %MON DXC_sd                       =   0.0000000000000E+00
(PID.TID 0000.0001) %MON DXF_max                      =   1.0000000000000E+04
(PID.TID 0000.0001) %MON DXF_min                      =   1.0000000000000E+04
(PID.TID 0000.0001) %MON DXF_mean                     =   1.0000000000000E+04
(PID.TID 0000.0001) %MON DXF_sd                       =   0.0000000000000E+00
(PID.TID 0000.0001) %MON DXG_max                      =   1.0000000000000E+04
(PID.TID 0000.0001) %MON DXG_min                      =   1.0000000000000E+04
(PID.TID 0000.0001) %MON DXG_mean                     =   1.0000000000000E+04
(PID.TID 0000.0001) %MON DXG_sd                       =   0.0000000000000E+00
(PID.TID 0000.0001) %MON DXV_max                      =   1.0000000000000E+04
(PID.TID 0000.0001) %MON DXV_min                      =   1.0000000000000E+04
(PID.TID 0000.0001) %MON DXV_mean                     =   1.0000000000000E+04
(PID.TID 0000.0001) %MON DXV_sd                       =   0.0000000000000E+00
(PID.TID 0000.0001) %MON YC_max                       =   5.0000000000000E+03
(PID.TID 0000.0001) %MON YC_min                       =   5.0000000000000E+03
(PID.TID 0000.0001) %MON YC_mean                      =   5.0000000000000E+03
(PID.TID 0000.0001) %MON YC_sd                        =   0.0000000000000E+00
(PID.TID 0000.0001) %MON YG_max                       =   0.0000000000000E+00
(PID.TID 0000.0001) %MON YG_min                       =   0.0000000000000E+00
(PID.TID 0000.0001) %MON YG_mean                      =   0.0000000000000E+00
(PID.TID 0000.0001) %MON YG_sd                        =   0.0000000000000E+00
(PID.TID 0000.0001) %MON DYC_max                      =   1.0000000000000E+04
(PID.TID 0000.0001) %MON DYC_min                      =   1.0000000000000E+04
(PID.TID 0000.0001) %MON DYC_mean                     =   1.0000000000000E+04
(PID.TID 0000.0001) %MON DYC_sd                       =   0.0000000000000E+00
(PID.TID 0000.0001) %MON DYF_max                      =   1.0000000000000E+04
(PID.TID 0000.0001) %MON DYF_min                      =   1.0000000000000E+04
(PID.TID 0000.0001) %MON DYF_mean                     =   1.0000000000000E+04
(PID.TID 0000.0001) %MON DYF_sd                       =   0.0000000000000E+00
(PID.TID 0000.0001) %MON DYG_max                      =   1.0000000000000E+04
(PID.TID 0000.0001) %MON DYG_min                      =   1.0000000000000E+04
(PID.TID 0000.0001) %MON DYG_mean                     =   1.0000000000000E+04
(PID.TID 0000.0001) %MON DYG_sd                       =   0.0000000000000E+00
(PID.TID 0000.0001) %MON DYU_max                      =   1.0000000000000E+04
(PID.TID 0000.0001) %MON DYU_min                      =   1.0000000000000E+04
(PID.TID 0000.0001) %MON DYU_mean                     =   1.0000000000000E+04
(PID.TID 0000.0001) %MON DYU_sd                       =   0.0000000000000E+00
(PID.TID 0000.0001) %MON RA_max                       =   1.0000000000000E+08
(PID.TID 0000.0001) %MON RA_min                       =   1.0000000000000E+08
(PID.TID 0000.0001) %MON RA_mean                      =   1.0000000000000E+08
(PID.TID 0000.0001) %MON RA_sd                        =   0.0000000000000E+00
(PID.TID 0000.0001) %MON RAW_max                      =   1.0000000000000E+08
(PID.TID 0000.0001) %MON RAW_min                      =   1.0000000000000E+08
(PID.TID 0000.0001) %MON RAW_mean                     =   1.0000000000000E+08
(PID.TID 0000.0001) %MON RAW_sd                       =   0.0000000000000E+00
(PID.TID 0000.0001) %MON RAS_max                      =   1.0000000000000E+08
(PID.TID 0000.0001) %MON RAS_min                      =   1.0000000000000E+08
(PID.TID 0000.0001) %MON RAS_mean                     =   1.0000000000000E+08
(PID.TID 0000.0001) %MON RAS_sd                       =   0.0000000000000E+00
(PID.TID 0000.0001) %MON RAZ_max                      =   1.0000000000000E+08
(PID.TID 0000.0001) %MON RAZ_min                      =   1.0000000000000E+08
(PID.TID 0000.0001) %MON RAZ_mean                     =   1.0000000000000E+08
(PID.TID 0000.0001) %MON RAZ_sd                       =   0.0000000000000E+00
(PID.TID 0000.0001) %MON AngleCS_max                  =   1.0000000000000E+00
(PID.TID 0000.0001) %MON AngleCS_min                  =   1.0000000000000E+00
(PID.TID 0000.0001) %MON AngleCS_mean                 =   1.0000000000000E+00
(PID.TID 0000.0001) %MON AngleCS_sd                   =   0.0000000000000E+00
(PID.TID 0000.0001) %MON AngleSN_max                  =   0.0000000000000E+00
(PID.TID 0000.0001) %MON AngleSN_min                  =   0.0000000000000E+00
(PID.TID 0000.0001) %MON AngleSN_mean                 =   0.0000000000000E+00
(PID.TID 0000.0001) %MON AngleSN_sd                   =   0.0000000000000E+00
(PID.TID 0000.0001)  MDS_READ_FIELD: opening global file: bathy_slope.bin
(PID.TID 0000.0001) // =======================================================
(PID.TID 0000.0001) // Field Model R_low (ini_masks_etc)
(PID.TID 0000.0001) // CMIN =         -1.975000000000000E+03
(PID.TID 0000.0001) // CMAX =         -1.025000000000000E+03
(PID.TID 0000.0001) // CINT =          3.518518518518518E+01
(PID.TID 0000.0001) // SYMBOLS (CMIN->CMAX): -abcdefghijklmnopqrstuvwxyz+
(PID.TID 0000.0001) //                  0.0: .
(PID.TID 0000.0001) // RANGE I (Lo:Hi:Step):(    -2:    23:     1)
(PID.TID 0000.0001) // RANGE J (Lo:Hi:Step):(     4:    -2:    -1)
(PID.TID 0000.0001) // RANGE K (Lo:Hi:Step):(   1:   1:   1)
(PID.TID 0000.0001) // =======================================================
(PID.TID 0000.0001) K =   1
(PID.TID 0000.0001) //                I=7       I=11      I=21
(PID.TID 0000.0001) // |--J--|210123456|890123890|234567890|23
(PID.TID 0000.0001) //      4 xz+-acdfgijkmnpqjkmnpqrtuwxz+-ac
(PID.TID 0000.0001) //      3 xz+-acdfgijkmnpqjkmnpqrtuwxz+-ac
(PID.TID 0000.0001) //      2 xz+-acdfgijkmnpqjkmnpqrtuwxz+-ac
(PID.TID 0000.0001) //      1 xz+-acdfgijkmnpqjkmnpqrtuwxz+-ac
(PID.TID 0000.0001) //      0 xz+-acdfgijkmnpqjkmnpqrtuwxz+-ac
(PID.TID 0000.0001) //     -1 xz+-acdfgijkmnpqjkmnpqrtuwxz+-ac
(PID.TID 0000.0001) //     -2 xz+-acdfgijkmnpqjkmnpqrtuwxz+-ac
(PID.TID 0000.0001) // =======================================================
(PID.TID 0000.0001) // END OF FIELD                                          =
(PID.TID 0000.0001) // =======================================================
(PID.TID 0000.0001) 
(PID.TID 0000.0001) // =======================================================
(PID.TID 0000.0001) // Field Model Ro_surf (ini_masks_etc)
(PID.TID 0000.0001) // CMIN =          1.000000000000000E+32
(PID.TID 0000.0001) // CMAX =         -1.000000000000000E+32
(PID.TID 0000.0001) // CINT =          0.000000000000000E+00
(PID.TID 0000.0001) // SYMBOLS (CMIN->CMAX): -abcdefghijklmnopqrstuvwxyz+
(PID.TID 0000.0001) //                  0.0: .
(PID.TID 0000.0001) // RANGE I (Lo:Hi:Step):(    -2:    23:     1)
(PID.TID 0000.0001) // RANGE J (Lo:Hi:Step):(     4:    -2:    -1)
(PID.TID 0000.0001) // RANGE K (Lo:Hi:Step):(   1:   1:   1)
(PID.TID 0000.0001) // =======================================================
(PID.TID 0000.0001) // =======================================================
(PID.TID 0000.0001) // END OF FIELD                                          =
(PID.TID 0000.0001) // =======================================================
(PID.TID 0000.0001) 
(PID.TID 0000.0001) // =======================================================
(PID.TID 0000.0001) // Field hFacC at iteration          0
(PID.TID 0000.0001) // CMIN =          1.000000000000000E+00
(PID.TID 0000.0001) // CMAX =          1.000000000000000E+00
(PID.TID 0000.0001) // CINT =          0.000000000000000E+00
(PID.TID 0000.0001) // SYMBOLS (CMIN->CMAX): -abcdefghijklmnopqrstuvwxyz+
(PID.TID 0000.0001) //                  0.0: .
(PID.TID 0000.0001) // RANGE I (Lo:Hi:Step):(    -2:    23:     1)
(PID.TID 0000.0001) // RANGE J (Lo:Hi:Step):(     4:    -2:    -1)
(PID.TID 0000.0001) // RANGE K (Lo:Hi:Step):(   1:   1:   1)
(PID.TID 0000.0001) // =======================================================
(PID.TID 0000.0001) // =======================================================
(PID.TID 0000.0001) // END OF FIELD                                          =
(PID.TID 0000.0001) // =======================================================
(PID.TID 0000.0001) 
(PID.TID 0000.0001) // =======================================================
(PID.TID 0000.0001) // Field hFacW at iteration          0
(PID.TID 0000.0001) // CMIN =          1.000000000000000E+00
(PID.TID 0000.0001) // CMAX =          1.000000000000000E+00
(PID.TID 0000.0001) // CINT =          0.000000000000000E+00
(PID.TID 0000.0001) // SYMBOLS (CMIN->CMAX): -abcdefghijklmnopqrstuvwxyz+
(PID.TID 0000.0001) //                  0.0: .
(PID.TID 0000.0001) // RANGE I (Lo:Hi:Step):(    -2:    23:     1)
(PID.TID 0000.0001) // RANGE J (Lo:Hi:Step):(     4:    -2:    -1)
(PID.TID 0000.0001) // RANGE K (Lo:Hi:Step):(   1:   1:   1)
(PID.TID 0000.0001) // =======================================================
(PID.TID 0000.0001) // =======================================================
(PID.TID 0000.0001) // END OF FIELD                                          =
(PID.TID 0000.0001) // =======================================================
(PID.TID 0000.0001) 
(PID.TID 0000.0001) // =======================================================
(PID.TID 0000.0001) // Field hFacS at iteration          0
(PID.TID 0000.0001) // CMIN =          1.000000000000000E+00
(PID.TID 0000.0001) // CMAX =          1.000000000000000E+00
(PID.TID 0000.0001) // CINT =          0.000000000000000E+00
(PID.TID 0000.0001) // SYMBOLS (CMIN->CMAX): -abcdefghijklmnopqrstuvwxyz+
(PID.TID 0000.0001) //                  0.0: .
(PID.TID 0000.0001) // RANGE I (Lo:Hi:Step):(    -2:    23:     1)
(PID.TID 0000.0001) // RANGE J (Lo:Hi:Step):(     4:    -2:    -1)
(PID.TID 0000.0001) // RANGE K (Lo:Hi:Step):(   1:   1:   1)
(PID.TID 0000.0001) // =======================================================
(PID.TID 0000.0001) // =======================================================
(PID.TID 0000.0001) // END OF FIELD                                          =
(PID.TID 0000.0001) // =======================================================
(PID.TID 0000.0001) 
(PID.TID 0000.0001) GAD_INIT_FIXED: GAD_OlMinSize=  2  0  1
(PID.TID 0000.0001) 
(PID.TID 0000.0001) // ===================================
(PID.TID 0000.0001) // GAD parameters :
(PID.TID 0000.0001) // ===================================
(PID.TID 0000.0001) tempAdvScheme =   /* Temp. Horiz.Advection scheme selector */
(PID.TID 0000.0001)                      77
(PID.TID 0000.0001)     ;
(PID.TID 0000.0001) tempVertAdvScheme =   /* Temp. Vert. Advection scheme selector */
(PID.TID 0000.0001)                      77
(PID.TID 0000.0001)     ;
(PID.TID 0000.0001) tempMultiDimAdvec =   /* use Muti-Dim Advec method for Temp */
(PID.TID 0000.0001)                   T
(PID.TID 0000.0001)     ;
(PID.TID 0000.0001) tempSOM_Advection = /* use 2nd Order Moment Advection for Temp */
(PID.TID 0000.0001)                   F
(PID.TID 0000.0001)     ;
(PID.TID 0000.0001) AdamsBashforthGt = /* apply Adams-Bashforth extrapolation on Gt */
(PID.TID 0000.0001)                   F
(PID.TID 0000.0001)     ;
(PID.TID 0000.0001) AdamsBashforth_T = /* apply Adams-Bashforth extrapolation on Temp */
(PID.TID 0000.0001)                   F
(PID.TID 0000.0001)     ;
(PID.TID 0000.0001) saltAdvScheme =   /* Salt. Horiz.advection scheme selector */
(PID.TID 0000.0001)                       3
(PID.TID 0000.0001)     ;
(PID.TID 0000.0001) saltVertAdvScheme =   /* Salt. Vert. Advection scheme selector */
(PID.TID 0000.0001)                       3
(PID.TID 0000.0001)     ;
(PID.TID 0000.0001) saltMultiDimAdvec =   /* use Muti-Dim Advec method for Salt */
(PID.TID 0000.0001)                   F
(PID.TID 0000.0001)     ;
(PID.TID 0000.0001) saltSOM_Advection = /* use 2nd Order Moment Advection for Salt */
(PID.TID 0000.0001)                   F
(PID.TID 0000.0001)     ;
(PID.TID 0000.0001) AdamsBashforthGs = /* apply Adams-Bashforth extrapolation on Gs */
(PID.TID 0000.0001)                   T
(PID.TID 0000.0001)     ;
(PID.TID 0000.0001) AdamsBashforth_S = /* apply Adams-Bashforth extrapolation on Salt */
(PID.TID 0000.0001)                   F
(PID.TID 0000.0001)     ;
(PID.TID 0000.0001) // ===================================
(PID.TID 0000.0001) ------------------------------------------------------------
(PID.TID 0000.0001) DIAGNOSTICS_SET_LEVELS: done
(PID.TID 0000.0001)  Total Nb of available Diagnostics: ndiagt=   140
(PID.TID 0000.0001)  write list of available Diagnostics to file: available_diagnostics.log
(PID.TID 0000.0001) SETDIAG: Allocate 20 x  1 Levels for Diagnostic #   107 ADVx_TH
(PID.TID 0000.0001) SETDIAG: Allocate 20 x  1 Levels for Diagnostic #   106 ADVr_TH
(PID.TID 0000.0001) SETDIAG: Allocate 20 x  1 Levels for Diagnostic #   124 ADVx_SLT
(PID.TID 0000.0001) SETDIAG: Allocate 20 x  1 Levels for Diagnostic #   123 ADVr_SLT
(PID.TID 0000.0001)   space allocated for all diagnostics:      80 levels
(PID.TID 0000.0001) DIAGNOSTICS_SET_POINTERS: Set levels for Outp.Stream: flxDiag
(PID.TID 0000.0001)  Levels:       1.   2.   3.   4.   5.   6.   7.   8.   9.  10.  11.  12.  13.  14.  15.  16.  17.  18.  19.  20.
(PID.TID 0000.0001) DIAGNOSTICS_SET_POINTERS: done
(PID.TID 0000.0001) ------------------------------------------------------------
(PID.TID 0000.0001) DIAGSTATS_SET_REGIONS: define no region
(PID.TID 0000.0001) ------------------------------------------------------------
(PID.TID 0000.0001) SETDIAG: Allocate 20 Levels for Stats-Diag #    30 UVEL
(PID.TID 0000.0001) SETDIAG: Allocate 20 Levels for Stats-Diag #    32 WVEL
(PID.TID 0000.0001) SETDIAG: Allocate 20 Levels for Stats-Diag #    26 THETA
(PID.TID 0000.0001) SETDIAG: Allocate 20 Levels for Stats-Diag #    27 SALT
(PID.TID 0000.0001) SETDIAG: Allocate  1 Levels for Stats-Diag #    23 ETAN
(PID.TID 0000.0001) SETDIAG: Allocate  1 Levels for Stats-Diag #    95 RSURF
(PID.TID 0000.0001) SETDIAG: Allocate 20 Levels for Stats-Diag #   107 ADVx_TH
(PID.TID 0000.0001) SETDIAG: Allocate 20 Levels for Stats-Diag #   106 ADVr_TH
(PID.TID 0000.0001) SETDIAG: Allocate 20 Levels for Stats-Diag #   124 ADVx_SLT
(PID.TID 0000.0001) SETDIAG: Allocate 20 Levels for Stats-Diag #   123 ADVr_SLT
(PID.TID 0000.0001) SETDIAG: Allocate 20 Levels for Stats-Diag #   105 gSinAB
(PID.TID 0000.0001)   space allocated for all stats-diags:     182 levels
(PID.TID 0000.0001) DIAGSTATS_SET_POINTERS: done
(PID.TID 0000.0001) ------------------------------------------------------------
(PID.TID 0000.0001) DIAGSTATS_INI_IO: open file: dynStDiag.0000000000.txt , unit=     9
(PID.TID 0000.0001) %MON fCori_max                    =   1.0005000000000E-04
(PID.TID 0000.0001) %MON fCori_min                    =   1.0005000000000E-04
(PID.TID 0000.0001) %MON fCori_mean                   =   1.0005000000000E-04
(PID.TID 0000.0001) %MON fCori_sd                     =   1.3552527156069E-20
(PID.TID 0000.0001) %MON fCoriG_max                   =   1.0000000000000E-04
(PID.TID 0000.0001) %MON fCoriG_min                   =   1.0000000000000E-04
(PID.TID 0000.0001) %MON fCoriG_mean                  =   1.0000000000000E-04
(PID.TID 0000.0001) %MON fCoriG_sd                    =   2.7105054312138E-20
(PID.TID 0000.0001) %MON fCoriCos_max                 =   0.0000000000000E+00
(PID.TID 0000.0001) %MON fCoriCos_min                 =   0.0000000000000E+00
(PID.TID 0000.0001) %MON fCoriCos_mean                =   0.0000000000000E+00
(PID.TID 0000.0001) %MON fCoriCos_sd                  =   0.0000000000000E+00
(PID.TID 0000.0001) INI_CG2D: CG2D normalisation factor =  5.0632911392405066E-04
(PID.TID 0000.0001) 
(PID.TID 0000.0001) // =======================================================
(PID.TID 0000.0001) // Model configuration
(PID.TID 0000.0001) // =======================================================
(PID.TID 0000.0001) //
(PID.TID 0000.0001) // "Physical" paramters ( PARM01 in namelist )
(PID.TID 0000.0001) //
(PID.TID 0000.0001) buoyancyRelation = /* Type of relation to get Buoyancy */
(PID.TID 0000.0001)               'OCEANIC'
(PID.TID 0000.0001)     ;
(PID.TID 0000.0001) fluidIsAir   =  /* fluid major constituent is Air */
(PID.TID 0000.0001)                   F
(PID.TID 0000.0001)     ;
(PID.TID 0000.0001) fluidIsWater =  /* fluid major constituent is Water */
(PID.TID 0000.0001)                   T
(PID.TID 0000.0001)     ;
(PID.TID 0000.0001) usingPCoords =  /* use p (or p*) vertical coordinate */
(PID.TID 0000.0001)                   F
(PID.TID 0000.0001)     ;
(PID.TID 0000.0001) usingZCoords =  /* use z (or z*) vertical coordinate */
(PID.TID 0000.0001)                   T
(PID.TID 0000.0001)     ;
(PID.TID 0000.0001) tRef =   /* Reference temperature profile ( oC or K ) */
(PID.TID 0000.0001)    20 @  2.000000000000000E+01              /* K =  1: 20 */
(PID.TID 0000.0001)     ;
(PID.TID 0000.0001) sRef =   /* Reference salinity profile ( psu ) */
(PID.TID 0000.0001)    20 @  3.000000000000000E+01              /* K =  1: 20 */
(PID.TID 0000.0001)     ;
(PID.TID 0000.0001) viscAh  =   /* Lateral eddy viscosity ( m^2/s ) */
(PID.TID 0000.0001)                 0.000000000000000E+00
(PID.TID 0000.0001)     ;
(PID.TID 0000.0001) viscAhMax = /* Maximum lateral eddy viscosity ( m^2/s ) */
(PID.TID 0000.0001)                 1.000000000000000E+21
(PID.TID 0000.0001)     ;
(PID.TID 0000.0001) viscAhGrid = /* Grid dependent lateral eddy viscosity ( non-dim. ) */
(PID.TID 0000.0001)                 0.000000000000000E+00
(PID.TID 0000.0001)     ;
(PID.TID 0000.0001) useFullLeith = /* Use Full Form of Leith Viscosity on/off flag*/
(PID.TID 0000.0001)                   F
(PID.TID 0000.0001)     ;
(PID.TID 0000.0001) useStrainTensionVisc= /* Use StrainTension Form of Viscous Operator flag*/
(PID.TID 0000.0001)                   F
(PID.TID 0000.0001)     ;
(PID.TID 0000.0001) useAreaViscLength = /* Use area for visc length instead of geom. mean*/
(PID.TID 0000.0001)                   F
(PID.TID 0000.0001)     ;
(PID.TID 0000.0001) viscC2leith = /* Leith harmonic visc. factor (on grad(vort),non-dim.) */
(PID.TID 0000.0001)                 0.000000000000000E+00
(PID.TID 0000.0001)     ;
(PID.TID 0000.0001) viscC2leithD = /* Leith harmonic viscosity factor (on grad(div),non-dim.)*/
(PID.TID 0000.0001)                 0.000000000000000E+00
(PID.TID 0000.0001)     ;
(PID.TID 0000.0001) viscC2smag = /* Smagorinsky harmonic viscosity factor (non-dim.) */
(PID.TID 0000.0001)                 0.000000000000000E+00
(PID.TID 0000.0001)     ;
(PID.TID 0000.0001) viscA4  =   /* Lateral biharmonic viscosity ( m^4/s ) */
(PID.TID 0000.0001)                 0.000000000000000E+00
(PID.TID 0000.0001)     ;
(PID.TID 0000.0001) viscA4Max = /* Maximum biharmonic viscosity ( m^2/s ) */
(PID.TID 0000.0001)                 1.000000000000000E+21
(PID.TID 0000.0001)     ;
(PID.TID 0000.0001) viscA4Grid = /* Grid dependent biharmonic viscosity ( non-dim. ) */
(PID.TID 0000.0001)                 0.000000000000000E+00
(PID.TID 0000.0001)     ;
(PID.TID 0000.0001) viscC4leith = /* Leith biharm viscosity factor (on grad(vort), non-dim.)*/
(PID.TID 0000.0001)                 0.000000000000000E+00
(PID.TID 0000.0001)     ;
(PID.TID 0000.0001) viscC4leithD = /* Leith biharm viscosity factor (on grad(div), non-dim.) */
(PID.TID 0000.0001)                 0.000000000000000E+00
(PID.TID 0000.0001)     ;
(PID.TID 0000.0001) viscC4Smag = /* Smagorinsky biharm viscosity factor (non-dim) */
(PID.TID 0000.0001)                 0.000000000000000E+00
(PID.TID 0000.0001)     ;
(PID.TID 0000.0001) no_slip_sides =  /* Viscous BCs: No-slip sides */
(PID.TID 0000.0001)                   T
(PID.TID 0000.0001)     ;
(PID.TID 0000.0001) sideDragFactor = /* side-drag scaling factor (non-dim) */
(PID.TID 0000.0001)                 2.000000000000000E+00
(PID.TID 0000.0001)     ;
(PID.TID 0000.0001) viscArNr = /* vertical profile of vertical viscosity ( m^2/s )*/
(PID.TID 0000.0001)    20 @  0.000000000000000E+00              /* K =  1: 20 */
(PID.TID 0000.0001)     ;
(PID.TID 0000.0001) no_slip_bottom =  /* Viscous BCs: No-slip bottom */
(PID.TID 0000.0001)                   T
(PID.TID 0000.0001)     ;
(PID.TID 0000.0001) bottomDragLinear = /* linear bottom-drag coefficient ( m/s ) */
(PID.TID 0000.0001)                 0.000000000000000E+00
(PID.TID 0000.0001)     ;
(PID.TID 0000.0001) bottomDragQuadratic = /* quadratic bottom-drag coefficient (-) */
(PID.TID 0000.0001)                 0.000000000000000E+00
(PID.TID 0000.0001)     ;
(PID.TID 0000.0001) diffKhT =   /* Laplacian diffusion of heat laterally ( m^2/s ) */
(PID.TID 0000.0001)                 0.000000000000000E+00
(PID.TID 0000.0001)     ;
(PID.TID 0000.0001) diffK4T =   /* Biharmonic diffusion of heat laterally ( m^4/s ) */
(PID.TID 0000.0001)                 0.000000000000000E+00
(PID.TID 0000.0001)     ;
(PID.TID 0000.0001) diffKhS =   /* Laplacian diffusion of salt laterally ( m^2/s ) */
(PID.TID 0000.0001)                 1.000000000000000E+02
(PID.TID 0000.0001)     ;
(PID.TID 0000.0001) diffK4S =   /* Biharmonic diffusion of salt laterally ( m^4/s ) */
(PID.TID 0000.0001)                 0.000000000000000E+00
(PID.TID 0000.0001)     ;
(PID.TID 0000.0001) diffKrNrT = /* vertical profile of vertical diffusion of Temp ( m^2/s )*/
(PID.TID 0000.0001)    20 @  0.000000000000000E+00              /* K =  1: 20 */
(PID.TID 0000.0001)     ;
(PID.TID 0000.0001) diffKrNrS = /* vertical profile of vertical diffusion of Salt ( m^2/s )*/
(PID.TID 0000.0001)    20 @  1.000000000000000E-02              /* K =  1: 20 */
(PID.TID 0000.0001)     ;
(PID.TID 0000.0001) diffKrBL79surf = /* Surface diffusion for Bryan and Lewis 79 ( m^2/s ) */
(PID.TID 0000.0001)                 0.000000000000000E+00
(PID.TID 0000.0001)     ;
(PID.TID 0000.0001) diffKrBL79deep = /* Deep diffusion for Bryan and Lewis 1979 ( m^2/s ) */
(PID.TID 0000.0001)                 0.000000000000000E+00
(PID.TID 0000.0001)     ;
(PID.TID 0000.0001) diffKrBL79scl = /* Depth scale for Bryan and Lewis 1979 ( m ) */
(PID.TID 0000.0001)                 2.000000000000000E+02
(PID.TID 0000.0001)     ;
(PID.TID 0000.0001) diffKrBL79Ho = /* Turning depth for Bryan and Lewis 1979 ( m ) */
(PID.TID 0000.0001)                -2.000000000000000E+03
(PID.TID 0000.0001)     ;
(PID.TID 0000.0001) ivdc_kappa = /* Implicit Vertical Diffusivity for Convection ( m^2/s) */
(PID.TID 0000.0001)                 0.000000000000000E+00
(PID.TID 0000.0001)     ;
(PID.TID 0000.0001) hMixCriteria=  /* Criteria for mixed-layer diagnostic */
(PID.TID 0000.0001)                -8.000000000000000E-01
(PID.TID 0000.0001)     ;
(PID.TID 0000.0001) dRhoSmall =  /* Parameter for mixed-layer diagnostic */
(PID.TID 0000.0001)                 1.000000000000000E-06
(PID.TID 0000.0001)     ;
(PID.TID 0000.0001) hMixSmooth=  /* Smoothing parameter for mixed-layer diagnostic */
(PID.TID 0000.0001)                 0.000000000000000E+00
(PID.TID 0000.0001)     ;
(PID.TID 0000.0001) eosType =  /* Type of Equation of State */
(PID.TID 0000.0001)               'LINEAR'
(PID.TID 0000.0001)     ;
(PID.TID 0000.0001) tAlpha =   /* Linear EOS thermal expansion coefficient ( 1/oC ) */
(PID.TID 0000.0001)                 0.000000000000000E+00
(PID.TID 0000.0001)     ;
(PID.TID 0000.0001) sBeta =   /* Linear EOS haline contraction coefficient ( 1/psu ) */
(PID.TID 0000.0001)                 0.000000000000000E+00
(PID.TID 0000.0001)     ;
(PID.TID 0000.0001) rhonil =   /* Reference density ( kg/m^3 ) */
(PID.TID 0000.0001)                 9.998000000000000E+02
(PID.TID 0000.0001)     ;
(PID.TID 0000.0001) rhoConst =   /* Reference density ( kg/m^3 ) */
(PID.TID 0000.0001)                 9.998000000000000E+02
(PID.TID 0000.0001)     ;
(PID.TID 0000.0001) rhoFacC = /* normalized Reference density @ cell-Center (-) */
(PID.TID 0000.0001)    20 @  1.000000000000000E+00              /* K =  1: 20 */
(PID.TID 0000.0001)     ;
(PID.TID 0000.0001) rhoFacF = /* normalized Reference density @ W-Interface (-) */
(PID.TID 0000.0001)    21 @  1.000000000000000E+00              /* K =  1: 21 */
(PID.TID 0000.0001)     ;
(PID.TID 0000.0001) rhoConstFresh =   /* Reference density ( kg/m^3 ) */
(PID.TID 0000.0001)                 9.998000000000000E+02
(PID.TID 0000.0001)     ;
(PID.TID 0000.0001) gravity =   /* Gravitational acceleration ( m/s^2 ) */
(PID.TID 0000.0001)                 9.810000000000000E+00
(PID.TID 0000.0001)     ;
(PID.TID 0000.0001) gBaro =   /* Barotropic gravity ( m/s^2 ) */
(PID.TID 0000.0001)                 9.810000000000000E+00
(PID.TID 0000.0001)     ;
(PID.TID 0000.0001) rotationPeriod =   /* Rotation Period ( s ) */
(PID.TID 0000.0001)                 8.616400000000000E+04
(PID.TID 0000.0001)     ;
(PID.TID 0000.0001) omega =   /* Angular velocity ( rad/s ) */
(PID.TID 0000.0001)                 7.292123516990375E-05
(PID.TID 0000.0001)     ;
(PID.TID 0000.0001) f0 =   /* Reference coriolis parameter ( 1/s ) */
(PID.TID 0000.0001)                 1.000000000000000E-04
(PID.TID 0000.0001)     ;
(PID.TID 0000.0001) beta =   /* Beta ( 1/(m.s) ) */
(PID.TID 0000.0001)                 9.999999999999999E-12
(PID.TID 0000.0001)     ;
(PID.TID 0000.0001) fPrime =   /* Second coriolis parameter ( 1/s ) */
(PID.TID 0000.0001)                 0.000000000000000E+00
(PID.TID 0000.0001)     ;
(PID.TID 0000.0001) rigidLid =   /* Rigid lid on/off flag */
(PID.TID 0000.0001)                   F
(PID.TID 0000.0001)     ;
(PID.TID 0000.0001) implicitFreeSurface =   /* Implicit free surface on/off flag */
(PID.TID 0000.0001)                   T
(PID.TID 0000.0001)     ;
(PID.TID 0000.0001) freeSurfFac =   /* Implicit free surface factor */
(PID.TID 0000.0001)                 1.000000000000000E+00
(PID.TID 0000.0001)     ;
(PID.TID 0000.0001) implicSurfPress =  /* Surface Pressure implicit factor (0-1)*/
(PID.TID 0000.0001)                 1.000000000000000E+00
(PID.TID 0000.0001)     ;
(PID.TID 0000.0001) implicDiv2Dflow =  /* Barot. Flow Div. implicit factor (0-1)*/
(PID.TID 0000.0001)                 1.000000000000000E+00
(PID.TID 0000.0001)     ;
(PID.TID 0000.0001) exactConserv =  /* Exact Volume Conservation on/off flag*/
(PID.TID 0000.0001)                   T
(PID.TID 0000.0001)     ;
(PID.TID 0000.0001) linFSConserveTr = /* Tracer correction for Lin Free Surface on/off flag*/
(PID.TID 0000.0001)                   F
(PID.TID 0000.0001)     ;
(PID.TID 0000.0001) uniformLin_PhiSurf = /* use uniform Bo_surf on/off flag*/
(PID.TID 0000.0001)                   T
(PID.TID 0000.0001)     ;
(PID.TID 0000.0001) hFacMin =   /* minimum partial cell factor (hFac) */
(PID.TID 0000.0001)                 1.000000000000000E-01
(PID.TID 0000.0001)     ;
(PID.TID 0000.0001) hFacMinDr = /* minimum partial cell thickness ( m) */
(PID.TID 0000.0001)                 1.000000000000000E-01
(PID.TID 0000.0001)     ;
(PID.TID 0000.0001) nonlinFreeSurf = /* Non-linear Free Surf. options (-1,0,1,2,3)*/
(PID.TID 0000.0001)                       4
(PID.TID 0000.0001)      -1,0= Off ; 1,2,3= On, 2=+rescale gU,gV, 3=+update cg2d solv.
(PID.TID 0000.0001)     ;
(PID.TID 0000.0001) hFacInf =   /* lower threshold for hFac (nonlinFreeSurf only)*/
(PID.TID 0000.0001)                 2.000000000000000E-01
(PID.TID 0000.0001)     ;
(PID.TID 0000.0001) hFacSup =   /* upper threshold for hFac (nonlinFreeSurf only)*/
(PID.TID 0000.0001)                 2.000000000000000E+00
(PID.TID 0000.0001)     ;
(PID.TID 0000.0001) select_rStar = /* r* Vertical coord. options (=0 r coord.; >0 uses r*)*/
(PID.TID 0000.0001)                       2
(PID.TID 0000.0001)     ;
(PID.TID 0000.0001) selectAddFluid = /* option for mass source/sink of fluid (=0: off) */
(PID.TID 0000.0001)                       0
(PID.TID 0000.0001)     ;
(PID.TID 0000.0001) useRealFreshWaterFlux = /* Real Fresh Water Flux on/off flag*/
(PID.TID 0000.0001)                   F
(PID.TID 0000.0001)     ;
(PID.TID 0000.0001) temp_EvPrRn = /* Temp. of Evap/Prec/R (UNSET=use local T)(oC)*/
(PID.TID 0000.0001)                 1.234567000000000E+05
(PID.TID 0000.0001)     ;
(PID.TID 0000.0001) salt_EvPrRn = /* Salin. of Evap/Prec/R (UNSET=use local S)(psu)*/
(PID.TID 0000.0001)                 0.000000000000000E+00
(PID.TID 0000.0001)     ;
(PID.TID 0000.0001) temp_addMass = /* Temp. of addMass array (UNSET=use local T)(oC)*/
(PID.TID 0000.0001)                 1.234567000000000E+05
(PID.TID 0000.0001)     ;
(PID.TID 0000.0001) salt_addMass = /* Salin. of addMass array (UNSET=use local S)(psu)*/
(PID.TID 0000.0001)                 0.000000000000000E+00
(PID.TID 0000.0001)     ;
(PID.TID 0000.0001) convertFW2Salt = /* convert F.W. Flux to Salt Flux (-1=use local S)(psu)*/
(PID.TID 0000.0001)                 3.500000000000000E+01
(PID.TID 0000.0001)     ;
(PID.TID 0000.0001) use3Dsolver = /* use 3-D pressure solver on/off flag */
(PID.TID 0000.0001)                   F
(PID.TID 0000.0001)     ;
(PID.TID 0000.0001) nonHydrostatic =  /* Non-Hydrostatic on/off flag */
(PID.TID 0000.0001)                   F
(PID.TID 0000.0001)     ;
(PID.TID 0000.0001) nh_Am2 = /* Non-Hydrostatic terms scaling factor */
(PID.TID 0000.0001)                 1.000000000000000E+00
(PID.TID 0000.0001)     ;
(PID.TID 0000.0001) implicitNHPress = /* Non-Hyd Pressure implicit factor (0-1)*/
(PID.TID 0000.0001)                 1.000000000000000E+00
(PID.TID 0000.0001)     ;
(PID.TID 0000.0001) selectNHfreeSurf = /* Non-Hyd (free-)Surface option */
(PID.TID 0000.0001)                       0
(PID.TID 0000.0001)     ;
(PID.TID 0000.0001) quasiHydrostatic = /* Quasi-Hydrostatic on/off flag */
(PID.TID 0000.0001)                   F
(PID.TID 0000.0001)     ;
(PID.TID 0000.0001) calc_wVelocity = /* vertical velocity calculation on/off flag */
(PID.TID 0000.0001)                   T
(PID.TID 0000.0001)     ;
(PID.TID 0000.0001) momStepping =  /* Momentum equation on/off flag */
(PID.TID 0000.0001)                   F
(PID.TID 0000.0001)     ;
(PID.TID 0000.0001) vectorInvariantMomentum= /* Vector-Invariant Momentum on/off */
(PID.TID 0000.0001)                   F
(PID.TID 0000.0001)     ;
(PID.TID 0000.0001) momAdvection =  /* Momentum advection on/off flag */
(PID.TID 0000.0001)                   F
(PID.TID 0000.0001)     ;
(PID.TID 0000.0001) momViscosity =  /* Momentum viscosity on/off flag */
(PID.TID 0000.0001)                   F
(PID.TID 0000.0001)     ;
(PID.TID 0000.0001) momImplVertAdv= /* Momentum implicit vert. advection on/off*/
(PID.TID 0000.0001)                   F
(PID.TID 0000.0001)     ;
(PID.TID 0000.0001) implicitViscosity = /* Implicit viscosity on/off flag */
(PID.TID 0000.0001)                   F
(PID.TID 0000.0001)     ;
(PID.TID 0000.0001) metricTerms =  /* metric-Terms on/off flag */
(PID.TID 0000.0001)                   F
(PID.TID 0000.0001)     ;
(PID.TID 0000.0001) useNHMTerms = /* Non-Hydrostatic Metric-Terms on/off */
(PID.TID 0000.0001)                   F
(PID.TID 0000.0001)     ;
(PID.TID 0000.0001) selectCoriMap = /* Coriolis Map options (0,1,2,3)*/
(PID.TID 0000.0001)                       1
(PID.TID 0000.0001)     0= f-Plane ; 1= Beta-Plane ; 2= Spherical ; 3= read from file
(PID.TID 0000.0001)     ;
(PID.TID 0000.0001) use3dCoriolis = /* 3-D Coriolis on/off flag */
(PID.TID 0000.0001)                   F
(PID.TID 0000.0001)     ;
(PID.TID 0000.0001) useCoriolis =  /* Coriolis on/off flag */
(PID.TID 0000.0001)                   F
(PID.TID 0000.0001)     ;
(PID.TID 0000.0001) useCDscheme =  /* CD scheme on/off flag */
(PID.TID 0000.0001)                   F
(PID.TID 0000.0001)     ;
(PID.TID 0000.0001) useEnergyConservingCoriolis= /* Flx-Form Coriolis scheme flag */
(PID.TID 0000.0001)                   F
(PID.TID 0000.0001)     ;
(PID.TID 0000.0001) useJamartWetPoints= /* Coriolis WetPoints method flag */
(PID.TID 0000.0001)                   F
(PID.TID 0000.0001)     ;
(PID.TID 0000.0001) useJamartMomAdv= /* V.I Non-linear terms Jamart flag */
(PID.TID 0000.0001)                   F
(PID.TID 0000.0001)     ;
(PID.TID 0000.0001) useAbsVorticity= /* V.I Works with f+zeta in Coriolis */
(PID.TID 0000.0001)                   F
(PID.TID 0000.0001)     ;
(PID.TID 0000.0001) selectVortScheme= /* V.I Scheme selector for Vorticity-Term */
(PID.TID 0000.0001)               123456789
(PID.TID 0000.0001)    = 0 : enstrophy (Shallow-Water Eq.) conserving scheme by Sadourny, JAS 75
(PID.TID 0000.0001)    = 1 : same as 0 with modified hFac
(PID.TID 0000.0001)    = 2 : energy conserving scheme (used by Sadourny in JAS 75 paper)
(PID.TID 0000.0001)    = 3 : energy (general) and enstrophy (2D, nonDiv.) conserving scheme
(PID.TID 0000.0001)          from Sadourny (Burridge & Haseler, ECMWF Rep.4, 1977)
(PID.TID 0000.0001)     ;
(PID.TID 0000.0001) upwindVorticity= /* V.I Upwind bias vorticity flag */
(PID.TID 0000.0001)                   F
(PID.TID 0000.0001)     ;
(PID.TID 0000.0001) highOrderVorticity= /* V.I High order vort. advect. flag */
(PID.TID 0000.0001)                   F
(PID.TID 0000.0001)     ;
(PID.TID 0000.0001) upwindShear= /* V.I Upwind vertical Shear advection flag */
(PID.TID 0000.0001)                   F
(PID.TID 0000.0001)     ;
(PID.TID 0000.0001) selectKEscheme= /* V.I Kinetic Energy scheme selector */
(PID.TID 0000.0001)                       0
(PID.TID 0000.0001)     ;
(PID.TID 0000.0001) momForcing =  /* Momentum forcing on/off flag */
(PID.TID 0000.0001)                   F
(PID.TID 0000.0001)     ;
(PID.TID 0000.0001) momPressureForcing =  /* Momentum pressure term on/off flag */
(PID.TID 0000.0001)                   F
(PID.TID 0000.0001)     ;
(PID.TID 0000.0001) implicitIntGravWave= /* Implicit Internal Gravity Wave flag */
(PID.TID 0000.0001)                   F
(PID.TID 0000.0001)     ;
(PID.TID 0000.0001) staggerTimeStep =   /* Stagger time stepping on/off flag */
(PID.TID 0000.0001)                   T
(PID.TID 0000.0001)     ;
(PID.TID 0000.0001) multiDimAdvection =   /* enable/disable Multi-Dim Advection */
(PID.TID 0000.0001)                   T
(PID.TID 0000.0001)     ;
(PID.TID 0000.0001) useMultiDimAdvec =   /* Multi-Dim Advection is/is-not used */
(PID.TID 0000.0001)                   T
(PID.TID 0000.0001)     ;
(PID.TID 0000.0001) implicitDiffusion = /* Implicit Diffusion on/off flag */
(PID.TID 0000.0001)                   T
(PID.TID 0000.0001)     ;
(PID.TID 0000.0001) tempStepping =  /* Temperature equation on/off flag */
(PID.TID 0000.0001)                   T
(PID.TID 0000.0001)     ;
(PID.TID 0000.0001) tempAdvection=  /* Temperature advection on/off flag */
(PID.TID 0000.0001)                   T
(PID.TID 0000.0001)     ;
(PID.TID 0000.0001) tempImplVertAdv = /* Temp. implicit vert. advection on/off */
(PID.TID 0000.0001)                   T
(PID.TID 0000.0001)     ;
(PID.TID 0000.0001) tempForcing  =  /* Temperature forcing on/off flag */
(PID.TID 0000.0001)                   T
(PID.TID 0000.0001)     ;
(PID.TID 0000.0001) tempIsActiveTr = /* Temp. is a dynamically Active Tracer */
(PID.TID 0000.0001)                   F
(PID.TID 0000.0001)     ;
(PID.TID 0000.0001) saltStepping =  /* Salinity equation on/off flag */
(PID.TID 0000.0001)                   T
(PID.TID 0000.0001)     ;
(PID.TID 0000.0001) saltAdvection=  /* Salinity advection on/off flag */
(PID.TID 0000.0001)                   T
(PID.TID 0000.0001)     ;
(PID.TID 0000.0001) saltImplVertAdv = /* Sali. implicit vert. advection on/off */
(PID.TID 0000.0001)                   T
(PID.TID 0000.0001)     ;
(PID.TID 0000.0001) saltForcing  =  /* Salinity forcing on/off flag */
(PID.TID 0000.0001)                   T
(PID.TID 0000.0001)     ;
(PID.TID 0000.0001) saltIsActiveTr = /* Salt  is a dynamically Active Tracer */
(PID.TID 0000.0001)                   F
(PID.TID 0000.0001)     ;
(PID.TID 0000.0001)  readBinaryPrec = /* Precision used for reading binary files */
(PID.TID 0000.0001)                      64
(PID.TID 0000.0001)     ;
(PID.TID 0000.0001) writeBinaryPrec = /* Precision used for writing binary files */
(PID.TID 0000.0001)                      64
(PID.TID 0000.0001)     ;
(PID.TID 0000.0001)  globalFiles = /* write "global" (=not per tile) files */
(PID.TID 0000.0001)                   F
(PID.TID 0000.0001)     ;
(PID.TID 0000.0001)  useSingleCpuIO = /* only master MPI process does I/O */
(PID.TID 0000.0001)                   F
(PID.TID 0000.0001)     ;
(PID.TID 0000.0001) /* debLev[*]  : level of debug & auxiliary message printing */
(PID.TID 0000.0001) debLevZero =  0 ; /* level of disabled aux. msg printing */
(PID.TID 0000.0001)    debLevA =  1 ; /* level of minimum  aux. msg printing */
(PID.TID 0000.0001)    debLevB =  2 ; /* level of low aux. print (report read-file opening)*/
(PID.TID 0000.0001)    debLevC =  3 ; /* level of moderate debug prt (most pkgs debug msg) */
(PID.TID 0000.0001)    debLevD =  4 ; /* level of enhanced debug prt (add DEBUG_STATS prt) */
(PID.TID 0000.0001)    debLevE =  5 ; /* level of extensive debug printing */
(PID.TID 0000.0001) debugLevel =  /* select debug printing level */
(PID.TID 0000.0001)                       2
(PID.TID 0000.0001)     ;
(PID.TID 0000.0001) //
(PID.TID 0000.0001) // Elliptic solver(s) paramters ( PARM02 in namelist )
(PID.TID 0000.0001) //
(PID.TID 0000.0001) cg2dMaxIters =   /* Upper limit on 2d con. grad iterations  */
(PID.TID 0000.0001)                     100
(PID.TID 0000.0001)     ;
(PID.TID 0000.0001) cg2dChkResFreq =   /* 2d con. grad convergence test frequency */
(PID.TID 0000.0001)                       1
(PID.TID 0000.0001)     ;
(PID.TID 0000.0001) cg2dTargetResidual =   /* 2d con. grad target residual  */
(PID.TID 0000.0001)                 1.000000000000000E-13
(PID.TID 0000.0001)     ;
(PID.TID 0000.0001) cg2dTargetResWunit =   /* CG2d target residual [W units] */
(PID.TID 0000.0001)                -1.000000000000000E+00
(PID.TID 0000.0001)     ;
(PID.TID 0000.0001) cg2dPreCondFreq =   /* Freq. for updating cg2d preconditioner */
(PID.TID 0000.0001)                       1
(PID.TID 0000.0001)     ;
(PID.TID 0000.0001) useSRCGSolver =  /* use single reduction CG solver(s) */
(PID.TID 0000.0001)                   F
(PID.TID 0000.0001)     ;
(PID.TID 0000.0001) printResidualFreq = /* Freq. for printing CG residual */
(PID.TID 0000.0001)                       0
(PID.TID 0000.0001)     ;
(PID.TID 0000.0001) //
(PID.TID 0000.0001) // Time stepping paramters ( PARM03 in namelist )
(PID.TID 0000.0001) //
(PID.TID 0000.0001) deltaTmom =   /* Momentum equation timestep ( s ) */
(PID.TID 0000.0001)                 1.200000000000000E+03
(PID.TID 0000.0001)     ;
(PID.TID 0000.0001) deltaTfreesurf = /* FreeSurface equation timestep ( s ) */
(PID.TID 0000.0001)                 1.200000000000000E+03
(PID.TID 0000.0001)     ;
(PID.TID 0000.0001) dTtracerLev =  /* Tracer equation timestep ( s ) */
(PID.TID 0000.0001)    20 @  1.200000000000000E+03              /* K =  1: 20 */
(PID.TID 0000.0001)     ;
(PID.TID 0000.0001) deltaTClock  =   /* Model clock timestep ( s ) */
(PID.TID 0000.0001)                 1.200000000000000E+03
(PID.TID 0000.0001)     ;
(PID.TID 0000.0001) cAdjFreq =   /* Convective adjustment interval ( s ) */
(PID.TID 0000.0001)                 0.000000000000000E+00
(PID.TID 0000.0001)     ;
(PID.TID 0000.0001) momForcingOutAB = /* =1: take Momentum Forcing out of Adams-Bash. stepping */
(PID.TID 0000.0001)                       0
(PID.TID 0000.0001)     ;
(PID.TID 0000.0001) tracForcingOutAB = /* =1: take T,S,pTr Forcing out of Adams-Bash. stepping */
(PID.TID 0000.0001)                       0
(PID.TID 0000.0001)     ;
(PID.TID 0000.0001) momDissip_In_AB = /* put Dissipation Tendency in Adams-Bash. stepping */
(PID.TID 0000.0001)                   T
(PID.TID 0000.0001)     ;
(PID.TID 0000.0001) doAB_onGtGs = /* apply AB on Tendencies (rather than on T,S)*/
(PID.TID 0000.0001)                   T
(PID.TID 0000.0001)     ;
(PID.TID 0000.0001) abEps =   /* Adams-Bashforth-2 stabilizing weight */
(PID.TID 0000.0001)                 1.000000000000000E-01
(PID.TID 0000.0001)     ;
(PID.TID 0000.0001) pickupStrictlyMatch= /* stop if pickup do not strictly match */
(PID.TID 0000.0001)                   T
(PID.TID 0000.0001)     ;
(PID.TID 0000.0001) nIter0   =   /* Run starting timestep number */
(PID.TID 0000.0001)                       0
(PID.TID 0000.0001)     ;
(PID.TID 0000.0001) nTimeSteps = /* Number of timesteps */
(PID.TID 0000.0001)                     200
(PID.TID 0000.0001)     ;
(PID.TID 0000.0001) nEndIter =   /* Run ending timestep number */
(PID.TID 0000.0001)                     200
(PID.TID 0000.0001)     ;
(PID.TID 0000.0001) baseTime =   /* Model base time ( s ) */
(PID.TID 0000.0001)                 0.000000000000000E+00
(PID.TID 0000.0001)     ;
(PID.TID 0000.0001) startTime =  /* Run start time ( s ) */
(PID.TID 0000.0001)                 0.000000000000000E+00
(PID.TID 0000.0001)     ;
(PID.TID 0000.0001) endTime  =   /* Integration ending time ( s ) */
(PID.TID 0000.0001)                 2.400000000000000E+05
(PID.TID 0000.0001)     ;
(PID.TID 0000.0001) pChkPtFreq = /* Permanent restart/pickup file interval ( s ) */
(PID.TID 0000.0001)                 0.000000000000000E+00
(PID.TID 0000.0001)     ;
(PID.TID 0000.0001) chkPtFreq  = /* Rolling restart/pickup file interval ( s ) */
(PID.TID 0000.0001)                 0.000000000000000E+00
(PID.TID 0000.0001)     ;
(PID.TID 0000.0001) pickup_write_mdsio =   /* Model IO flag. */
(PID.TID 0000.0001)                   T
(PID.TID 0000.0001)     ;
(PID.TID 0000.0001) pickup_read_mdsio =   /* Model IO flag. */
(PID.TID 0000.0001)                   T
(PID.TID 0000.0001)     ;
(PID.TID 0000.0001) pickup_write_immed =   /* Model IO flag. */
(PID.TID 0000.0001)                   F
(PID.TID 0000.0001)     ;
(PID.TID 0000.0001) writePickupAtEnd =   /* Model IO flag. */
(PID.TID 0000.0001)                   T
(PID.TID 0000.0001)     ;
(PID.TID 0000.0001) dumpFreq =   /* Model state write out interval ( s ). */
(PID.TID 0000.0001)                 2.400000000000000E+04
(PID.TID 0000.0001)     ;
(PID.TID 0000.0001) dumpInitAndLast= /* write out Initial & Last iter. model state */
(PID.TID 0000.0001)                   T
(PID.TID 0000.0001)     ;
(PID.TID 0000.0001) snapshot_mdsio =   /* Model IO flag. */
(PID.TID 0000.0001)                   T
(PID.TID 0000.0001)     ;
(PID.TID 0000.0001) monitorFreq =   /* Monitor output interval ( s ). */
(PID.TID 0000.0001)                 1.200000000000000E+04
(PID.TID 0000.0001)     ;
(PID.TID 0000.0001) monitorSelect = /* select group of variables to monitor */
(PID.TID 0000.0001)                       1
(PID.TID 0000.0001)     ;
(PID.TID 0000.0001) monitor_stdio =   /* Model IO flag. */
(PID.TID 0000.0001)                   T
(PID.TID 0000.0001)     ;
(PID.TID 0000.0001) externForcingPeriod =   /* forcing period (s) */
(PID.TID 0000.0001)                 0.000000000000000E+00
(PID.TID 0000.0001)     ;
(PID.TID 0000.0001) externForcingCycle =   /* period of the cyle (s). */
(PID.TID 0000.0001)                 0.000000000000000E+00
(PID.TID 0000.0001)     ;
(PID.TID 0000.0001) tauThetaClimRelax =   /* relaxation time scale (s) */
(PID.TID 0000.0001)                 0.000000000000000E+00
(PID.TID 0000.0001)     ;
(PID.TID 0000.0001) tauSaltClimRelax =   /* relaxation time scale (s) */
(PID.TID 0000.0001)                 0.000000000000000E+00
(PID.TID 0000.0001)     ;
(PID.TID 0000.0001) latBandClimRelax =   /* max. Lat. where relaxation */
(PID.TID 0000.0001)                 3.000000000000000E+04
(PID.TID 0000.0001)     ;
(PID.TID 0000.0001) //
(PID.TID 0000.0001) // Gridding paramters ( PARM04 in namelist )
(PID.TID 0000.0001) //
(PID.TID 0000.0001) usingCartesianGrid = /* Cartesian coordinates flag ( True/False ) */
(PID.TID 0000.0001)                   T
(PID.TID 0000.0001)     ;
(PID.TID 0000.0001) usingCylindricalGrid = /* Cylindrical coordinates flag ( True/False ) */
(PID.TID 0000.0001)                   F
(PID.TID 0000.0001)     ;
(PID.TID 0000.0001) usingSphericalPolarGrid = /* Spherical coordinates flag ( True/False ) */
(PID.TID 0000.0001)                   F
(PID.TID 0000.0001)     ;
(PID.TID 0000.0001) usingCurvilinearGrid = /* Curvilinear coordinates flag ( True/False ) */
(PID.TID 0000.0001)                   F
(PID.TID 0000.0001)     ;
(PID.TID 0000.0001) selectSigmaCoord = /* Hybrid-Sigma Vert. Coordinate option */
(PID.TID 0000.0001)                       0
(PID.TID 0000.0001)     ;
(PID.TID 0000.0001) Ro_SeaLevel = /* r(1) ( units of r ==  m ) */
(PID.TID 0000.0001)                 0.000000000000000E+00
(PID.TID 0000.0001)     ;
(PID.TID 0000.0001) rSigmaBnd = /* r/sigma transition ( units of r ==  m ) */
(PID.TID 0000.0001)                 1.234567000000000E+05
(PID.TID 0000.0001)     ;
(PID.TID 0000.0001) rkSign =   /* index orientation relative to vertical coordinate */
(PID.TID 0000.0001)                -1.000000000000000E+00
(PID.TID 0000.0001)     ;
(PID.TID 0000.0001) gravitySign = /* gravity orientation relative to vertical coordinate */
(PID.TID 0000.0001)                -1.000000000000000E+00
(PID.TID 0000.0001)     ;
(PID.TID 0000.0001) mass2rUnit = /* convert mass per unit area [kg/m2] to r-units [m] */
(PID.TID 0000.0001)                 1.000200040008002E-03
(PID.TID 0000.0001)     ;
(PID.TID 0000.0001) rUnit2mass = /* convert r-units [m] to mass per unit area [kg/m2] */
(PID.TID 0000.0001)                 9.998000000000000E+02
(PID.TID 0000.0001)     ;
(PID.TID 0000.0001) drC =   /* C spacing ( units of r ) */
(PID.TID 0000.0001)                 5.000000000000000E+01,      /* K =  1 */
(PID.TID 0000.0001)    19 @  1.000000000000000E+02              /* K =  2: 20 */
(PID.TID 0000.0001)     ;
(PID.TID 0000.0001) drF =   /* W spacing ( units of r ) */
(PID.TID 0000.0001)    20 @  1.000000000000000E+02              /* K =  1: 20 */
(PID.TID 0000.0001)     ;
(PID.TID 0000.0001) delX = /* U spacing ( m - cartesian, degrees - spherical ) */
(PID.TID 0000.0001)    20 @  1.000000000000000E+04              /* I =  1: 20 */
(PID.TID 0000.0001)     ;
(PID.TID 0000.0001) delY = /* V spacing ( m - cartesian, degrees - spherical ) */
(PID.TID 0000.0001)                 1.000000000000000E+04       /* J =  1 */
(PID.TID 0000.0001)     ;
(PID.TID 0000.0001) xgOrigin = /* X-axis origin of West  edge (cartesian: m, lat-lon: deg.) */
(PID.TID 0000.0001)                 0.000000000000000E+00
(PID.TID 0000.0001)     ;
(PID.TID 0000.0001) ygOrigin = /* Y-axis origin of South edge (cartesian: m, lat-lon: deg.) */
(PID.TID 0000.0001)                 0.000000000000000E+00
(PID.TID 0000.0001)     ;
(PID.TID 0000.0001) rSphere =  /* Radius ( ignored - cartesian, m - spherical ) */
(PID.TID 0000.0001)                 6.370000000000000E+06
(PID.TID 0000.0001)     ;
(PID.TID 0000.0001) deepAtmosphere = /* Deep/Shallow Atmosphere flag (True/False) */
(PID.TID 0000.0001)                   F
(PID.TID 0000.0001)     ;
(PID.TID 0000.0001) xC =  /* xC(:,1,:,1) : P-point X coord ( deg. or m if cartesian) */
(PID.TID 0000.0001)                 5.000000000000000E+03,      /* I =  1 */
(PID.TID 0000.0001)                 1.500000000000000E+04,      /* I =  2 */
(PID.TID 0000.0001)                 2.500000000000000E+04,      /* I =  3 */
(PID.TID 0000.0001)                 3.500000000000000E+04,      /* I =  4 */
(PID.TID 0000.0001)                 4.500000000000000E+04,      /* I =  5 */
(PID.TID 0000.0001)                 5.500000000000000E+04,      /* I =  6 */
(PID.TID 0000.0001)                 6.500000000000000E+04,      /* I =  7 */
(PID.TID 0000.0001)                 7.500000000000000E+04,      /* I =  8 */
(PID.TID 0000.0001)                 8.500000000000000E+04,      /* I =  9 */
(PID.TID 0000.0001)                 9.500000000000000E+04,      /* I = 10 */
(PID.TID 0000.0001)                 1.050000000000000E+05,      /* I = 11 */
(PID.TID 0000.0001)                 1.150000000000000E+05,      /* I = 12 */
(PID.TID 0000.0001)                 1.250000000000000E+05,      /* I = 13 */
(PID.TID 0000.0001)                 1.350000000000000E+05,      /* I = 14 */
(PID.TID 0000.0001)                 1.450000000000000E+05,      /* I = 15 */
(PID.TID 0000.0001)                 1.550000000000000E+05,      /* I = 16 */
(PID.TID 0000.0001)                 1.650000000000000E+05,      /* I = 17 */
(PID.TID 0000.0001)                 1.750000000000000E+05,      /* I = 18 */
(PID.TID 0000.0001)                 1.850000000000000E+05,      /* I = 19 */
(PID.TID 0000.0001)                 1.950000000000000E+05       /* I = 20 */
(PID.TID 0000.0001)     ;
(PID.TID 0000.0001) yC =  /* yC(1,:,1,:) : P-point Y coord ( deg. or m if cartesian) */
(PID.TID 0000.0001)                 5.000000000000000E+03       /* J =  1 */
(PID.TID 0000.0001)     ;
(PID.TID 0000.0001) rcoord = /* P-point R coordinate (  units of r ) */
(PID.TID 0000.0001)                -5.000000000000000E+01,      /* K =  1 */
(PID.TID 0000.0001)                -1.500000000000000E+02,      /* K =  2 */
(PID.TID 0000.0001)                -2.500000000000000E+02,      /* K =  3 */
(PID.TID 0000.0001)                -3.500000000000000E+02,      /* K =  4 */
(PID.TID 0000.0001)                -4.500000000000000E+02,      /* K =  5 */
(PID.TID 0000.0001)                -5.500000000000000E+02,      /* K =  6 */
(PID.TID 0000.0001)                -6.500000000000000E+02,      /* K =  7 */
(PID.TID 0000.0001)                -7.500000000000000E+02,      /* K =  8 */
(PID.TID 0000.0001)                -8.500000000000000E+02,      /* K =  9 */
(PID.TID 0000.0001)                -9.500000000000000E+02,      /* K = 10 */
(PID.TID 0000.0001)                -1.050000000000000E+03,      /* K = 11 */
(PID.TID 0000.0001)                -1.150000000000000E+03,      /* K = 12 */
(PID.TID 0000.0001)                -1.250000000000000E+03,      /* K = 13 */
(PID.TID 0000.0001)                -1.350000000000000E+03,      /* K = 14 */
(PID.TID 0000.0001)                -1.450000000000000E+03,      /* K = 15 */
(PID.TID 0000.0001)                -1.550000000000000E+03,      /* K = 16 */
(PID.TID 0000.0001)                -1.650000000000000E+03,      /* K = 17 */
(PID.TID 0000.0001)                -1.750000000000000E+03,      /* K = 18 */
(PID.TID 0000.0001)                -1.850000000000000E+03,      /* K = 19 */
(PID.TID 0000.0001)                -1.950000000000000E+03       /* K = 20 */
(PID.TID 0000.0001)     ;
(PID.TID 0000.0001) rF =   /* W-Interf. R coordinate (  units of r ) */
(PID.TID 0000.0001)                 0.000000000000000E+00,      /* K =  1 */
(PID.TID 0000.0001)                -1.000000000000000E+02,      /* K =  2 */
(PID.TID 0000.0001)                -2.000000000000000E+02,      /* K =  3 */
(PID.TID 0000.0001)                -3.000000000000000E+02,      /* K =  4 */
(PID.TID 0000.0001)                -4.000000000000000E+02,      /* K =  5 */
(PID.TID 0000.0001)                -5.000000000000000E+02,      /* K =  6 */
(PID.TID 0000.0001)                -6.000000000000000E+02,      /* K =  7 */
(PID.TID 0000.0001)                -7.000000000000000E+02,      /* K =  8 */
(PID.TID 0000.0001)                -8.000000000000000E+02,      /* K =  9 */
(PID.TID 0000.0001)                -9.000000000000000E+02,      /* K = 10 */
(PID.TID 0000.0001)                -1.000000000000000E+03,      /* K = 11 */
(PID.TID 0000.0001)                -1.100000000000000E+03,      /* K = 12 */
(PID.TID 0000.0001)                -1.200000000000000E+03,      /* K = 13 */
(PID.TID 0000.0001)                -1.300000000000000E+03,      /* K = 14 */
(PID.TID 0000.0001)                -1.400000000000000E+03,      /* K = 15 */
(PID.TID 0000.0001)                -1.500000000000000E+03,      /* K = 16 */
(PID.TID 0000.0001)                -1.600000000000000E+03,      /* K = 17 */
(PID.TID 0000.0001)                -1.700000000000000E+03,      /* K = 18 */
(PID.TID 0000.0001)                -1.800000000000000E+03,      /* K = 19 */
(PID.TID 0000.0001)                -1.900000000000000E+03,      /* K = 20 */
(PID.TID 0000.0001)                -2.000000000000000E+03       /* K = 21 */
(PID.TID 0000.0001)     ;
(PID.TID 0000.0001) deepFacC = /* deep-model grid factor @ cell-Center (-) */
(PID.TID 0000.0001)    20 @  1.000000000000000E+00              /* K =  1: 20 */
(PID.TID 0000.0001)     ;
(PID.TID 0000.0001) deepFacF = /* deep-model grid factor @ W-Interface (-) */
(PID.TID 0000.0001)    21 @  1.000000000000000E+00              /* K =  1: 21 */
(PID.TID 0000.0001)     ;
(PID.TID 0000.0001) rVel2wUnit = /* convert units: rVel -> wSpeed (=1 if z-coord)*/
(PID.TID 0000.0001)    21 @  1.000000000000000E+00              /* K =  1: 21 */
(PID.TID 0000.0001)     ;
(PID.TID 0000.0001) wUnit2rVel = /* convert units: wSpeed -> rVel (=1 if z-coord)*/
(PID.TID 0000.0001)    21 @  1.000000000000000E+00              /* K =  1: 21 */
(PID.TID 0000.0001)     ;
(PID.TID 0000.0001) dBdrRef = /* Vertical grad. of reference buoyancy [(m/s/r)^2] */
(PID.TID 0000.0001)    20 @  0.000000000000000E+00              /* K =  1: 20 */
(PID.TID 0000.0001)     ;
(PID.TID 0000.0001) rotateGrid = /* use rotated grid ( True/False ) */
(PID.TID 0000.0001)                   F
(PID.TID 0000.0001)     ;
(PID.TID 0000.0001) phiEuler = /* Euler angle, rotation about original z-coordinate [rad] */
(PID.TID 0000.0001)                 0.000000000000000E+00
(PID.TID 0000.0001)     ;
(PID.TID 0000.0001) thetaEuler = /* Euler angle, rotation about new x-coordinate [rad] */
(PID.TID 0000.0001)                 0.000000000000000E+00
(PID.TID 0000.0001)     ;
(PID.TID 0000.0001) psiEuler = /* Euler angle, rotation about new z-coordinate [rad] */
(PID.TID 0000.0001)                 0.000000000000000E+00
(PID.TID 0000.0001)     ;
(PID.TID 0000.0001) dxF =  /* dxF(:,1,:,1) ( units: m ) */
(PID.TID 0000.0001)    20 @  1.000000000000000E+04              /* I =  1: 20 */
(PID.TID 0000.0001)     ;
(PID.TID 0000.0001) dxF =  /* dxF(1,:,1,:) ( units: m ) */
(PID.TID 0000.0001)                 1.000000000000000E+04       /* J =  1 */
(PID.TID 0000.0001)     ;
(PID.TID 0000.0001) dyF =  /* dyF(:,1,:,1) ( units: m ) */
(PID.TID 0000.0001)    20 @  1.000000000000000E+04              /* I =  1: 20 */
(PID.TID 0000.0001)     ;
(PID.TID 0000.0001) dyF =  /* dyF(1,:,1,:) ( units: m ) */
(PID.TID 0000.0001)                 1.000000000000000E+04       /* J =  1 */
(PID.TID 0000.0001)     ;
(PID.TID 0000.0001) dxG =  /* dxG(:,1,:,1) ( units: m ) */
(PID.TID 0000.0001)    20 @  1.000000000000000E+04              /* I =  1: 20 */
(PID.TID 0000.0001)     ;
(PID.TID 0000.0001) dxG =  /* dxG(1,:,1,:) ( units: m ) */
(PID.TID 0000.0001)                 1.000000000000000E+04       /* J =  1 */
(PID.TID 0000.0001)     ;
(PID.TID 0000.0001) dyG =  /* dyG(:,1,:,1) ( units: m ) */
(PID.TID 0000.0001)    20 @  1.000000000000000E+04              /* I =  1: 20 */
(PID.TID 0000.0001)     ;
(PID.TID 0000.0001) dyG =  /* dyG(1,:,1,:) ( units: m ) */
(PID.TID 0000.0001)                 1.000000000000000E+04       /* J =  1 */
(PID.TID 0000.0001)     ;
(PID.TID 0000.0001) dxC =  /* dxC(:,1,:,1) ( units: m ) */
(PID.TID 0000.0001)    20 @  1.000000000000000E+04              /* I =  1: 20 */
(PID.TID 0000.0001)     ;
(PID.TID 0000.0001) dxC =  /* dxC(1,:,1,:) ( units: m ) */
(PID.TID 0000.0001)                 1.000000000000000E+04       /* J =  1 */
(PID.TID 0000.0001)     ;
(PID.TID 0000.0001) dyC =  /* dyC(:,1,:,1) ( units: m ) */
(PID.TID 0000.0001)    20 @  1.000000000000000E+04              /* I =  1: 20 */
(PID.TID 0000.0001)     ;
(PID.TID 0000.0001) dyC =  /* dyC(1,:,1,:) ( units: m ) */
(PID.TID 0000.0001)                 1.000000000000000E+04       /* J =  1 */
(PID.TID 0000.0001)     ;
(PID.TID 0000.0001) dxV =  /* dxV(:,1,:,1) ( units: m ) */
(PID.TID 0000.0001)    20 @  1.000000000000000E+04              /* I =  1: 20 */
(PID.TID 0000.0001)     ;
(PID.TID 0000.0001) dxV =  /* dxV(1,:,1,:) ( units: m ) */
(PID.TID 0000.0001)                 1.000000000000000E+04       /* J =  1 */
(PID.TID 0000.0001)     ;
(PID.TID 0000.0001) dyU =  /* dyU(:,1,:,1) ( units: m ) */
(PID.TID 0000.0001)    20 @  1.000000000000000E+04              /* I =  1: 20 */
(PID.TID 0000.0001)     ;
(PID.TID 0000.0001) dyU =  /* dyU(1,:,1,:) ( units: m ) */
(PID.TID 0000.0001)                 1.000000000000000E+04       /* J =  1 */
(PID.TID 0000.0001)     ;
(PID.TID 0000.0001) rA  =  /* rA (:,1,:,1) ( units: m^2 ) */
(PID.TID 0000.0001)    20 @  1.000000000000000E+08              /* I =  1: 20 */
(PID.TID 0000.0001)     ;
(PID.TID 0000.0001) rA  =  /* rA (1,:,1,:) ( units: m^2 ) */
(PID.TID 0000.0001)                 1.000000000000000E+08       /* J =  1 */
(PID.TID 0000.0001)     ;
(PID.TID 0000.0001) rAw =  /* rAw(:,1,:,1) ( units: m^2 ) */
(PID.TID 0000.0001)    20 @  1.000000000000000E+08              /* I =  1: 20 */
(PID.TID 0000.0001)     ;
(PID.TID 0000.0001) rAw =  /* rAw(1,:,1,:) ( units: m^2 ) */
(PID.TID 0000.0001)                 1.000000000000000E+08       /* J =  1 */
(PID.TID 0000.0001)     ;
(PID.TID 0000.0001) rAs =  /* rAs(:,1,:,1) ( units: m^2 ) */
(PID.TID 0000.0001)    20 @  1.000000000000000E+08              /* I =  1: 20 */
(PID.TID 0000.0001)     ;
(PID.TID 0000.0001) rAs =  /* rAs(1,:,1,:) ( units: m^2 ) */
(PID.TID 0000.0001)                 1.000000000000000E+08       /* J =  1 */
(PID.TID 0000.0001)     ;
(PID.TID 0000.0001) globalArea = /* Integrated horizontal Area (m^2) */
(PID.TID 0000.0001)                 2.000000000000000E+09
(PID.TID 0000.0001)     ;
(PID.TID 0000.0001) // =======================================================
(PID.TID 0000.0001) // End of Model config. summary
(PID.TID 0000.0001) // =======================================================
(PID.TID 0000.0001) 
(PID.TID 0000.0001) == Packages configuration : Check & print summary ==
(PID.TID 0000.0001) 
(PID.TID 0000.0001) GAD_CHECK: #define ALLOW_GENERIC_ADVDIFF
(PID.TID 0000.0001) // =======================================================
(PID.TID 0000.0001) // CONFIG_CHECK : Normal End
(PID.TID 0000.0001) // =======================================================
(PID.TID 0000.0001) 
(PID.TID 0000.0001)  MDS_READ_FIELD: opening global file: Udiv.bin
(PID.TID 0000.0001)  MDS_READ_FIELD: opening global file: Tini_G.bin
(PID.TID 0000.0001)  MDS_READ_FIELD: opening global file: Tini_G.bin
(PID.TID 0000.0001) Start initial hydrostatic pressure computation
(PID.TID 0000.0001) Pressure is predetermined for buoyancyRelation OCEANIC
(PID.TID 0000.0001) 
(PID.TID 0000.0001)  write diagnostics summary to file ioUnit:      6
Iter.Nb:         0 ; Time(s):  0.0000000000000E+00
------------------------------------------------------------------------
2D/3D diagnostics: Number of lists:     1
------------------------------------------------------------------------
listId=    1 ; file name: flxDiag
 nFlds, nActive,       freq     &     phase        , nLev               
    4  |    4  |     24000.000000         0.000000 |  20
 levels:   1   2   3   4   5   6   7   8   9  10  11  12  13  14  15  16  17  18  19  20
 diag# | name   |   ipt  |  iMate | kLev|   count |   mate.C|           
   107 |ADVx_TH |      1 |      0 |  20 |       0 |
   106 |ADVr_TH |     21 |      0 |  20 |       0 |
   124 |ADVx_SLT|     41 |      0 |  20 |       0 |
   123 |ADVr_SLT|     61 |      0 |  20 |       0 |
------------------------------------------------------------------------
Global & Regional Statistics diagnostics: Number of lists:     1
------------------------------------------------------------------------
listId=   1 ; file name: dynStDiag
 nFlds, nActive,       freq     &     phase        |                    
   11  |   11  |     -6000.000000         0.000000 |
 Regions:   0
 diag# | name   |   ipt  |  iMate |    Volume   |   mate-Vol. |         
    30 |UVEL    |      1 |      0 | 0.00000E+00 |
    32 |WVEL    |     21 |      0 | 0.00000E+00 |
    26 |THETA   |     41 |      0 | 0.00000E+00 |
    27 |SALT    |     61 |      0 | 0.00000E+00 |
    23 |ETAN    |     81 |      0 | 0.00000E+00 |
    95 |RSURF   |     82 |      0 | 0.00000E+00 |
   107 |ADVx_TH |     83 |      0 | 0.00000E+00 |
   106 |ADVr_TH |    103 |      0 | 0.00000E+00 |
   124 |ADVx_SLT|    123 |      0 | 0.00000E+00 |
   123 |ADVr_SLT|    143 |      0 | 0.00000E+00 |
   105 |gSinAB  |    163 |      0 | 0.00000E+00 |
------------------------------------------------------------------------
(PID.TID 0000.0001) // =======================================================
(PID.TID 0000.0001) // Model current state
(PID.TID 0000.0001) // =======================================================
(PID.TID 0000.0001) 
(PID.TID 0000.0001) // =======================================================
(PID.TID 0000.0001) // Begin MONITOR dynamic field statistics
(PID.TID 0000.0001) // =======================================================
(PID.TID 0000.0001) %MON time_tsnumber                =                     0
(PID.TID 0000.0001) %MON time_secondsf                =   0.0000000000000E+00
(PID.TID 0000.0001) %MON dynstat_eta_max              =   0.0000000000000E+00
(PID.TID 0000.0001) %MON dynstat_eta_min              =   0.0000000000000E+00
(PID.TID 0000.0001) %MON dynstat_eta_mean             =   0.0000000000000E+00
(PID.TID 0000.0001) %MON dynstat_eta_sd               =   0.0000000000000E+00
(PID.TID 0000.0001) %MON dynstat_eta_del2             =   0.0000000000000E+00
(PID.TID 0000.0001) %MON dynstat_uvel_max             =   4.3284392146754E+00
(PID.TID 0000.0001) %MON dynstat_uvel_min             =  -4.3440991562267E+00
(PID.TID 0000.0001) %MON dynstat_uvel_mean            =   5.4673858589391E-03
(PID.TID 0000.0001) %MON dynstat_uvel_sd              =   2.1585709329592E+00
(PID.TID 0000.0001) %MON dynstat_uvel_del2            =   1.0993708114540E-02
(PID.TID 0000.0001) %MON dynstat_vvel_max             =   0.0000000000000E+00
(PID.TID 0000.0001) %MON dynstat_vvel_min             =   0.0000000000000E+00
(PID.TID 0000.0001) %MON dynstat_vvel_mean            =   0.0000000000000E+00
(PID.TID 0000.0001) %MON dynstat_vvel_sd              =   0.0000000000000E+00
(PID.TID 0000.0001) %MON dynstat_vvel_del2            =   0.0000000000000E+00
(PID.TID 0000.0001) %MON dynstat_wvel_max             =   3.1230891643316E-02
(PID.TID 0000.0001) %MON dynstat_wvel_min             =  -3.1263934093096E-02
(PID.TID 0000.0001) %MON dynstat_wvel_mean            =   1.3223849038845E-05
(PID.TID 0000.0001) %MON dynstat_wvel_sd              =   1.6822035479751E-02
(PID.TID 0000.0001) %MON dynstat_wvel_del2            =   6.3435946816170E-04
(PID.TID 0000.0001) %MON dynstat_theta_max            =   2.0316232275153E-01
(PID.TID 0000.0001) %MON dynstat_theta_min            =   4.4709972756099E-16
(PID.TID 0000.0001) %MON dynstat_theta_mean           =   1.7623652345767E-02
(PID.TID 0000.0001) %MON dynstat_theta_sd             =   4.0551557002470E-02
(PID.TID 0000.0001) %MON dynstat_theta_del2           =   5.5449810531046E-04
(PID.TID 0000.0001) %MON dynstat_salt_max             =   2.0316232275153E-01
(PID.TID 0000.0001) %MON dynstat_salt_min             =   4.4709972756099E-16
(PID.TID 0000.0001) %MON dynstat_salt_mean            =   1.7623652345767E-02
(PID.TID 0000.0001) %MON dynstat_salt_sd              =   4.0551557002470E-02
(PID.TID 0000.0001) %MON dynstat_salt_del2            =   5.5449810531046E-04
(PID.TID 0000.0001) %MON advcfl_uvel_max              =   5.2129189874721E-01
(PID.TID 0000.0001) %MON advcfl_vvel_max              =   0.0000000000000E+00
(PID.TID 0000.0001) %MON advcfl_wvel_max              =   3.7516720911715E-01
(PID.TID 0000.0001) %MON advcfl_W_hf_max              =   5.2133045856226E-01
(PID.TID 0000.0001) %MON pe_b_mean                    =   0.0000000000000E+00
(PID.TID 0000.0001) %MON ke_max                       =   9.3426892370790E+00
(PID.TID 0000.0001) %MON ke_mean                      =   2.2559544250175E+00
(PID.TID 0000.0001) %MON ke_vol                       =   3.0000000000000E+12
(PID.TID 0000.0001) // =======================================================
(PID.TID 0000.0001) // End MONITOR dynamic field statistics
(PID.TID 0000.0001) // =======================================================
 Compute Stats, Diag. #     30  UVEL      vol(   0 ): 2.905E+12  Parms: UUR     MR      
 Compute Stats, Diag. #     32  WVEL      vol(   0 ): 3.000E+12  Parms: WM      LR      
 Compute Stats, Diag. #     26  THETA     vol(   0 ): 3.000E+12  Parms: SMR     MR      
 Compute Stats, Diag. #     27  SALT      vol(   0 ): 3.000E+12  Parms: SMR     MR      
 Compute Stats, Diag. #     23  ETAN      vol(   0 ): 2.000E+09  Parms: SM      M1      
 Compute Stats, Diag. #     95  RSURF     vol(   0 ): 2.000E+09  Parms: SM      M1      
 Compute Stats, Diag. #    107  ADVx_TH   vol(   0 ): 2.905E+12  Parms: UU      MR      
 Compute Stats, Diag. #    106  ADVr_TH   vol(   0 ): 3.000E+12  Parms: WM      LR      
 Compute Stats, Diag. #    124  ADVx_SLT  vol(   0 ): 2.905E+12  Parms: UU      MR      
 Compute Stats, Diag. #    123  ADVr_SLT  vol(   0 ): 3.000E+12  Parms: WM      LR      
 Compute Stats, Diag. #    105  gSinAB    vol(   0 ): 3.000E+12  Parms: SMR     MR      
 Compute Stats, Diag. #     30  UVEL      vol(   0 ): 2.905E+12  Parms: UUR     MR      
 Compute Stats, Diag. #     32  WVEL      vol(   0 ): 3.000E+12  Parms: WM      LR      
 Compute Stats, Diag. #     26  THETA     vol(   0 ): 3.000E+12  Parms: SMR     MR      
 Compute Stats, Diag. #     27  SALT      vol(   0 ): 3.000E+12  Parms: SMR     MR      
 Compute Stats, Diag. #     23  ETAN      vol(   0 ): 2.000E+09  Parms: SM      M1      
 Compute Stats, Diag. #     95  RSURF     vol(   0 ): 2.000E+09  Parms: SM      M1      
 Compute Stats, Diag. #    107  ADVx_TH   vol(   0 ): 2.905E+12  Parms: UU      MR      
 Compute Stats, Diag. #    106  ADVr_TH   vol(   0 ): 3.000E+12  Parms: WM      LR      
 Compute Stats, Diag. #    124  ADVx_SLT  vol(   0 ): 2.905E+12  Parms: UU      MR      
 Compute Stats, Diag. #    123  ADVr_SLT  vol(   0 ): 3.000E+12  Parms: WM      LR      
 Compute Stats, Diag. #    105  gSinAB    vol(   0 ): 3.000E+12  Parms: SMR     MR      
(PID.TID 0000.0001) // =======================================================
(PID.TID 0000.0001) // Begin MONITOR dynamic field statistics
(PID.TID 0000.0001) // =======================================================
(PID.TID 0000.0001) %MON time_tsnumber                =                    10
(PID.TID 0000.0001) %MON time_secondsf                =   1.2000000000000E+04
(PID.TID 0000.0001) %MON dynstat_eta_max              =   2.3489058669718E+00
(PID.TID 0000.0001) %MON dynstat_eta_min              =  -2.3452460759223E+00
(PID.TID 0000.0001) %MON dynstat_eta_mean             =   1.9836425781250E-15
(PID.TID 0000.0001) %MON dynstat_eta_sd               =   1.6644443413245E+00
(PID.TID 0000.0001) %MON dynstat_eta_del2             =   3.3612585272564E-01
(PID.TID 0000.0001) %MON dynstat_uvel_max             =   4.3284392146754E+00
(PID.TID 0000.0001) %MON dynstat_uvel_min             =  -4.3440991562267E+00
(PID.TID 0000.0001) %MON dynstat_uvel_mean            =   5.4680746134567E-03
(PID.TID 0000.0001) %MON dynstat_uvel_sd              =   2.1587690859107E+00
(PID.TID 0000.0001) %MON dynstat_uvel_del2            =   1.0993708114540E-02
(PID.TID 0000.0001) %MON dynstat_vvel_max             =   0.0000000000000E+00
(PID.TID 0000.0001) %MON dynstat_vvel_min             =   0.0000000000000E+00
(PID.TID 0000.0001) %MON dynstat_vvel_mean            =   0.0000000000000E+00
(PID.TID 0000.0001) %MON dynstat_vvel_sd              =   0.0000000000000E+00
(PID.TID 0000.0001) %MON dynstat_vvel_del2            =   0.0000000000000E+00
(PID.TID 0000.0001) %MON dynstat_wvel_max             =   3.1197067015385E-02
(PID.TID 0000.0001) %MON dynstat_wvel_min             =  -3.1327608736311E-02
(PID.TID 0000.0001) %MON dynstat_wvel_mean            =   1.3225511803204E-05
(PID.TID 0000.0001) %MON dynstat_wvel_sd              =   1.6820521578954E-02
(PID.TID 0000.0001) %MON dynstat_wvel_del2            =   6.3467892581312E-04
(PID.TID 0000.0001) %MON dynstat_theta_max            =   1.9222168504646E-01
(PID.TID 0000.0001) %MON dynstat_theta_min            =   4.6432023585055E-16
(PID.TID 0000.0001) %MON dynstat_theta_mean           =   1.7624865915838E-02
(PID.TID 0000.0001) %MON dynstat_theta_sd             =   4.0514945540618E-02
(PID.TID 0000.0001) %MON dynstat_theta_del2           =   3.2545468617104E-04
(PID.TID 0000.0001) %MON dynstat_salt_max             =   1.8301807673794E-01
(PID.TID 0000.0001) %MON dynstat_salt_min             =  -8.5401819641477E-04
(PID.TID 0000.0001) %MON dynstat_salt_mean            =   1.7624580349808E-02
(PID.TID 0000.0001) %MON dynstat_salt_sd              =   3.8374213285459E-02
(PID.TID 0000.0001) %MON dynstat_salt_del2            =   2.7615826499682E-04
(PID.TID 0000.0001) %MON advcfl_uvel_max              =   5.2129189874721E-01
(PID.TID 0000.0001) %MON advcfl_vvel_max              =   0.0000000000000E+00
(PID.TID 0000.0001) %MON advcfl_wvel_max              =   3.7593130483573E-01
(PID.TID 0000.0001) %MON advcfl_W_hf_max              =   5.2127017151149E-01
(PID.TID 0000.0001) %MON pe_b_mean                    =   9.0591261367509E-03
(PID.TID 0000.0001) %MON ke_max                       =   9.3427440893639E+00
(PID.TID 0000.0001) %MON ke_mean                      =   2.2563686301815E+00
(PID.TID 0000.0001) %MON ke_vol                       =   3.0000000000000E+12
(PID.TID 0000.0001) // =======================================================
(PID.TID 0000.0001) // End MONITOR dynamic field statistics
(PID.TID 0000.0001) // =======================================================
 Compute Stats, Diag. #     30  UVEL      vol(   0 ): 2.905E+12  Parms: UUR     MR      
 Compute Stats, Diag. #     32  WVEL      vol(   0 ): 3.000E+12  Parms: WM      LR      
 Compute Stats, Diag. #     26  THETA     vol(   0 ): 3.000E+12  Parms: SMR     MR      
 Compute Stats, Diag. #     27  SALT      vol(   0 ): 3.000E+12  Parms: SMR     MR      
 Compute Stats, Diag. #     23  ETAN      vol(   0 ): 2.000E+09  Parms: SM      M1      
 Compute Stats, Diag. #     95  RSURF     vol(   0 ): 2.000E+09  Parms: SM      M1      
 Compute Stats, Diag. #    107  ADVx_TH   vol(   0 ): 2.905E+12  Parms: UU      MR      
 Compute Stats, Diag. #    106  ADVr_TH   vol(   0 ): 3.000E+12  Parms: WM      LR      
 Compute Stats, Diag. #    124  ADVx_SLT  vol(   0 ): 2.905E+12  Parms: UU      MR      
 Compute Stats, Diag. #    123  ADVr_SLT  vol(   0 ): 3.000E+12  Parms: WM      LR      
 Compute Stats, Diag. #    105  gSinAB    vol(   0 ): 3.000E+12  Parms: SMR     MR      
 Compute Stats, Diag. #     30  UVEL      vol(   0 ): 2.905E+12  Parms: UUR     MR      
 Compute Stats, Diag. #     32  WVEL      vol(   0 ): 3.000E+12  Parms: WM      LR      
 Compute Stats, Diag. #     26  THETA     vol(   0 ): 3.000E+12  Parms: SMR     MR      
 Compute Stats, Diag. #     27  SALT      vol(   0 ): 3.000E+12  Parms: SMR     MR      
 Compute Stats, Diag. #     23  ETAN      vol(   0 ): 2.000E+09  Parms: SM      M1      
 Compute Stats, Diag. #     95  RSURF     vol(   0 ): 2.000E+09  Parms: SM      M1      
 Compute Stats, Diag. #    107  ADVx_TH   vol(   0 ): 2.905E+12  Parms: UU      MR      
 Compute Stats, Diag. #    106  ADVr_TH   vol(   0 ): 3.000E+12  Parms: WM      LR      
 Compute Stats, Diag. #    124  ADVx_SLT  vol(   0 ): 2.905E+12  Parms: UU      MR      
 Compute Stats, Diag. #    123  ADVr_SLT  vol(   0 ): 3.000E+12  Parms: WM      LR      
 Compute Stats, Diag. #    105  gSinAB    vol(   0 ): 3.000E+12  Parms: SMR     MR      
(PID.TID 0000.0001) // =======================================================
(PID.TID 0000.0001) // Begin MONITOR dynamic field statistics
(PID.TID 0000.0001) // =======================================================
(PID.TID 0000.0001) %MON time_tsnumber                =                    20
(PID.TID 0000.0001) %MON time_secondsf                =   2.4000000000000E+04
(PID.TID 0000.0001) %MON dynstat_eta_max              =   4.7031273644633E+00
(PID.TID 0000.0001) %MON dynstat_eta_min              =  -4.6876700584454E+00
(PID.TID 0000.0001) %MON dynstat_eta_mean             =   2.7465820312500E-15
(PID.TID 0000.0001) %MON dynstat_eta_sd               =   3.3290574854120E+00
(PID.TID 0000.0001) %MON dynstat_eta_del2             =   6.7245808949057E-01
(PID.TID 0000.0001) %MON dynstat_uvel_max             =   4.3284392146754E+00
(PID.TID 0000.0001) %MON dynstat_uvel_min             =  -4.3440991562267E+00
(PID.TID 0000.0001) %MON dynstat_uvel_mean            =   5.4688353735367E-03
(PID.TID 0000.0001) %MON dynstat_uvel_sd              =   2.1589878996363E+00
(PID.TID 0000.0001) %MON dynstat_uvel_del2            =   1.0993708114540E-02
(PID.TID 0000.0001) %MON dynstat_vvel_max             =   0.0000000000000E+00
(PID.TID 0000.0001) %MON dynstat_vvel_min             =   0.0000000000000E+00
(PID.TID 0000.0001) %MON dynstat_vvel_mean            =   0.0000000000000E+00
(PID.TID 0000.0001) %MON dynstat_vvel_sd              =   0.0000000000000E+00
(PID.TID 0000.0001) %MON dynstat_vvel_del2            =   0.0000000000000E+00
(PID.TID 0000.0001) %MON dynstat_wvel_max             =   3.1159526571704E-02
(PID.TID 0000.0001) %MON dynstat_wvel_min             =  -3.1398497945935E-02
(PID.TID 0000.0001) %MON dynstat_wvel_mean            =   1.3227348378679E-05
(PID.TID 0000.0001) %MON dynstat_wvel_sd              =   1.6818855886239E-02
(PID.TID 0000.0001) %MON dynstat_wvel_del2            =   6.3503633179196E-04
(PID.TID 0000.0001) %MON dynstat_theta_max            =   1.8303724001397E-01
(PID.TID 0000.0001) %MON dynstat_theta_min            =   1.1676308470506E-15
(PID.TID 0000.0001) %MON dynstat_theta_mean           =   1.7623674165217E-02
(PID.TID 0000.0001) %MON dynstat_theta_sd             =   3.9534572680216E-02
(PID.TID 0000.0001) %MON dynstat_theta_del2           =   2.8923365204524E-04
(PID.TID 0000.0001) %MON dynstat_salt_max             =   1.7427536282653E-01
(PID.TID 0000.0001) %MON dynstat_salt_min             =  -1.1270222553168E-03
(PID.TID 0000.0001) %MON dynstat_salt_mean            =   1.7622731769500E-02
(PID.TID 0000.0001) %MON dynstat_salt_sd              =   3.6610203884142E-02
(PID.TID 0000.0001) %MON dynstat_salt_del2            =   2.1465312356362E-04
(PID.TID 0000.0001) %MON advcfl_uvel_max              =   5.2129189874721E-01
(PID.TID 0000.0001) %MON advcfl_vvel_max              =   0.0000000000000E+00
(PID.TID 0000.0001) %MON advcfl_wvel_max              =   3.7678197535122E-01
(PID.TID 0000.0001) %MON advcfl_W_hf_max              =   5.2120321603361E-01
(PID.TID 0000.0001) %MON pe_b_mean                    =   3.6240179633651E-02
(PID.TID 0000.0001) %MON ke_max                       =   9.3428051817058E+00
(PID.TID 0000.0001) %MON ke_mean                      =   2.2568260673683E+00
(PID.TID 0000.0001) %MON ke_vol                       =   3.0000000000000E+12
(PID.TID 0000.0001) // =======================================================
(PID.TID 0000.0001) // End MONITOR dynamic field statistics
(PID.TID 0000.0001) // =======================================================
 Computing Diagnostic #    107  ADVx_TH      Counter:      20   Parms: UU      MR      
           Vector  Mate for  ADVx_TH      Diagnostic #    108  ADVy_TH  not enabled
 Computing Diagnostic #    106  ADVr_TH      Counter:      20   Parms: WM      LR      
 Computing Diagnostic #    124  ADVx_SLT     Counter:      20   Parms: UU      MR      
           Vector  Mate for  ADVx_SLT     Diagnostic #    125  ADVy_SLT not enabled
 Computing Diagnostic #    123  ADVr_SLT     Counter:      20   Parms: WM      LR      
 Compute Stats, Diag. #     30  UVEL      vol(   0 ): 2.905E+12  Parms: UUR     MR      
 Compute Stats, Diag. #     32  WVEL      vol(   0 ): 3.000E+12  Parms: WM      LR      
 Compute Stats, Diag. #     26  THETA     vol(   0 ): 3.000E+12  Parms: SMR     MR      
 Compute Stats, Diag. #     27  SALT      vol(   0 ): 3.000E+12  Parms: SMR     MR      
 Compute Stats, Diag. #     23  ETAN      vol(   0 ): 2.000E+09  Parms: SM      M1      
 Compute Stats, Diag. #     95  RSURF     vol(   0 ): 2.000E+09  Parms: SM      M1      
 Compute Stats, Diag. #    107  ADVx_TH   vol(   0 ): 2.905E+12  Parms: UU      MR      
 Compute Stats, Diag. #    106  ADVr_TH   vol(   0 ): 3.000E+12  Parms: WM      LR      
 Compute Stats, Diag. #    124  ADVx_SLT  vol(   0 ): 2.905E+12  Parms: UU      MR      
 Compute Stats, Diag. #    123  ADVr_SLT  vol(   0 ): 3.000E+12  Parms: WM      LR      
 Compute Stats, Diag. #    105  gSinAB    vol(   0 ): 3.000E+12  Parms: SMR     MR      
 Compute Stats, Diag. #     30  UVEL      vol(   0 ): 2.905E+12  Parms: UUR     MR      
 Compute Stats, Diag. #     32  WVEL      vol(   0 ): 3.000E+12  Parms: WM      LR      
 Compute Stats, Diag. #     26  THETA     vol(   0 ): 3.000E+12  Parms: SMR     MR      
 Compute Stats, Diag. #     27  SALT      vol(   0 ): 3.000E+12  Parms: SMR     MR      
 Compute Stats, Diag. #     23  ETAN      vol(   0 ): 2.000E+09  Parms: SM      M1      
 Compute Stats, Diag. #     95  RSURF     vol(   0 ): 2.000E+09  Parms: SM      M1      
 Compute Stats, Diag. #    107  ADVx_TH   vol(   0 ): 2.905E+12  Parms: UU      MR      
 Compute Stats, Diag. #    106  ADVr_TH   vol(   0 ): 3.000E+12  Parms: WM      LR      
 Compute Stats, Diag. #    124  ADVx_SLT  vol(   0 ): 2.905E+12  Parms: UU      MR      
 Compute Stats, Diag. #    123  ADVr_SLT  vol(   0 ): 3.000E+12  Parms: WM      LR      
 Compute Stats, Diag. #    105  gSinAB    vol(   0 ): 3.000E+12  Parms: SMR     MR      
(PID.TID 0000.0001) // =======================================================
(PID.TID 0000.0001) // Begin MONITOR dynamic field statistics
(PID.TID 0000.0001) // =======================================================
(PID.TID 0000.0001) %MON time_tsnumber                =                    30
(PID.TID 0000.0001) %MON time_secondsf                =   3.6000000000000E+04
(PID.TID 0000.0001) %MON dynstat_eta_max              =   7.0626755314743E+00
(PID.TID 0000.0001) %MON dynstat_eta_min              =  -7.0272753050347E+00
(PID.TID 0000.0001) %MON dynstat_eta_mean             =   2.1362304687500E-15
(PID.TID 0000.0001) %MON dynstat_eta_sd               =   4.9938407632457E+00
(PID.TID 0000.0001) %MON dynstat_eta_del2             =   1.0089979745849E+00
(PID.TID 0000.0001) %MON dynstat_uvel_max             =   4.3284392146754E+00
(PID.TID 0000.0001) %MON dynstat_uvel_min             =  -4.3440991562267E+00
(PID.TID 0000.0001) %MON dynstat_uvel_mean            =   5.4695913703998E-03
(PID.TID 0000.0001) %MON dynstat_uvel_sd              =   2.1592052854274E+00
(PID.TID 0000.0001) %MON dynstat_uvel_del2            =   1.0993708114540E-02
(PID.TID 0000.0001) %MON dynstat_vvel_max             =   0.0000000000000E+00
(PID.TID 0000.0001) %MON dynstat_vvel_min             =   0.0000000000000E+00
(PID.TID 0000.0001) %MON dynstat_vvel_mean            =   0.0000000000000E+00
(PID.TID 0000.0001) %MON dynstat_vvel_sd              =   0.0000000000000E+00
(PID.TID 0000.0001) %MON dynstat_vvel_del2            =   0.0000000000000E+00
(PID.TID 0000.0001) %MON dynstat_wvel_max             =   3.1122030791670E-02
(PID.TID 0000.0001) %MON dynstat_wvel_min             =  -3.1469534343028E-02
(PID.TID 0000.0001) %MON dynstat_wvel_mean            =   1.3229173431899E-05
(PID.TID 0000.0001) %MON dynstat_wvel_sd              =   1.6817207492254E-02
(PID.TID 0000.0001) %MON dynstat_wvel_del2            =   6.3539632381883E-04
(PID.TID 0000.0001) %MON dynstat_theta_max            =   1.8062992303795E-01
(PID.TID 0000.0001) %MON dynstat_theta_min            =   1.0277343077764E-15
(PID.TID 0000.0001) %MON dynstat_theta_mean           =   1.7622185445842E-02
(PID.TID 0000.0001) %MON dynstat_theta_sd             =   3.8796236452465E-02
(PID.TID 0000.0001) %MON dynstat_theta_del2           =   5.8656676187000E-04
(PID.TID 0000.0001) %MON dynstat_salt_max             =   1.6730966606279E-01
(PID.TID 0000.0001) %MON dynstat_salt_min             =  -8.3830337980051E-04
(PID.TID 0000.0001) %MON dynstat_salt_mean            =   1.7620444407563E-02
(PID.TID 0000.0001) %MON dynstat_salt_sd              =   3.5142617647419E-02
(PID.TID 0000.0001) %MON dynstat_salt_del2            =   4.3489488438379E-04
(PID.TID 0000.0001) %MON advcfl_uvel_max              =   5.2129189874721E-01
(PID.TID 0000.0001) %MON advcfl_vvel_max              =   0.0000000000000E+00
(PID.TID 0000.0001) %MON advcfl_wvel_max              =   3.7763441211634E-01
(PID.TID 0000.0001) %MON advcfl_W_hf_max              =   5.2113629257392E-01
(PID.TID 0000.0001) %MON pe_b_mean                    =   8.1548717009500E-02
(PID.TID 0000.0001) %MON ke_max                       =   9.3428664270861E+00
(PID.TID 0000.0001) %MON ke_mean                      =   2.2572805653238E+00
(PID.TID 0000.0001) %MON ke_vol                       =   3.0000000000000E+12
(PID.TID 0000.0001) // =======================================================
(PID.TID 0000.0001) // End MONITOR dynamic field statistics
(PID.TID 0000.0001) // =======================================================
 Compute Stats, Diag. #     30  UVEL      vol(   0 ): 2.905E+12  Parms: UUR     MR      
 Compute Stats, Diag. #     32  WVEL      vol(   0 ): 3.000E+12  Parms: WM      LR      
 Compute Stats, Diag. #     26  THETA     vol(   0 ): 3.000E+12  Parms: SMR     MR      
 Compute Stats, Diag. #     27  SALT      vol(   0 ): 3.000E+12  Parms: SMR     MR      
 Compute Stats, Diag. #     23  ETAN      vol(   0 ): 2.000E+09  Parms: SM      M1      
 Compute Stats, Diag. #     95  RSURF     vol(   0 ): 2.000E+09  Parms: SM      M1      
 Compute Stats, Diag. #    107  ADVx_TH   vol(   0 ): 2.905E+12  Parms: UU      MR      
 Compute Stats, Diag. #    106  ADVr_TH   vol(   0 ): 3.000E+12  Parms: WM      LR      
 Compute Stats, Diag. #    124  ADVx_SLT  vol(   0 ): 2.905E+12  Parms: UU      MR      
 Compute Stats, Diag. #    123  ADVr_SLT  vol(   0 ): 3.000E+12  Parms: WM      LR      
 Compute Stats, Diag. #    105  gSinAB    vol(   0 ): 3.000E+12  Parms: SMR     MR      
 Compute Stats, Diag. #     30  UVEL      vol(   0 ): 2.905E+12  Parms: UUR     MR      
 Compute Stats, Diag. #     32  WVEL      vol(   0 ): 3.000E+12  Parms: WM      LR      
 Compute Stats, Diag. #     26  THETA     vol(   0 ): 3.000E+12  Parms: SMR     MR      
 Compute Stats, Diag. #     27  SALT      vol(   0 ): 3.000E+12  Parms: SMR     MR      
 Compute Stats, Diag. #     23  ETAN      vol(   0 ): 2.000E+09  Parms: SM      M1      
 Compute Stats, Diag. #     95  RSURF     vol(   0 ): 2.000E+09  Parms: SM      M1      
 Compute Stats, Diag. #    107  ADVx_TH   vol(   0 ): 2.905E+12  Parms: UU      MR      
 Compute Stats, Diag. #    106  ADVr_TH   vol(   0 ): 3.000E+12  Parms: WM      LR      
 Compute Stats, Diag. #    124  ADVx_SLT  vol(   0 ): 2.905E+12  Parms: UU      MR      
 Compute Stats, Diag. #    123  ADVr_SLT  vol(   0 ): 3.000E+12  Parms: WM      LR      
 Compute Stats, Diag. #    105  gSinAB    vol(   0 ): 3.000E+12  Parms: SMR     MR      
(PID.TID 0000.0001) // =======================================================
(PID.TID 0000.0001) // Begin MONITOR dynamic field statistics
(PID.TID 0000.0001) // =======================================================
(PID.TID 0000.0001) %MON time_tsnumber                =                    40
(PID.TID 0000.0001) %MON time_secondsf                =   4.8000000000000E+04
(PID.TID 0000.0001) %MON dynstat_eta_max              =   9.4275614251562E+00
(PID.TID 0000.0001) %MON dynstat_eta_min              =  -9.3640651694118E+00
(PID.TID 0000.0001) %MON dynstat_eta_mean             =   4.2724609375000E-15
(PID.TID 0000.0001) %MON dynstat_eta_sd               =   6.6587955075707E+00
(PID.TID 0000.0001) %MON dynstat_eta_del2             =   1.3457467743185E+00
(PID.TID 0000.0001) %MON dynstat_uvel_max             =   4.3284392146754E+00
(PID.TID 0000.0001) %MON dynstat_uvel_min             =  -4.3440991562267E+00
(PID.TID 0000.0001) %MON dynstat_uvel_mean            =   5.4703426015195E-03
(PID.TID 0000.0001) %MON dynstat_uvel_sd              =   2.1594212429430E+00
(PID.TID 0000.0001) %MON dynstat_uvel_del2            =   1.0993708114540E-02
(PID.TID 0000.0001) %MON dynstat_vvel_max             =   0.0000000000000E+00
(PID.TID 0000.0001) %MON dynstat_vvel_min             =   0.0000000000000E+00
(PID.TID 0000.0001) %MON dynstat_vvel_mean            =   0.0000000000000E+00
(PID.TID 0000.0001) %MON dynstat_vvel_sd              =   0.0000000000000E+00
(PID.TID 0000.0001) %MON dynstat_vvel_del2            =   0.0000000000000E+00
(PID.TID 0000.0001) %MON dynstat_wvel_max             =   3.1084579625474E-02
(PID.TID 0000.0001) %MON dynstat_wvel_min             =  -3.1540718169474E-02
(PID.TID 0000.0001) %MON dynstat_wvel_mean            =   1.3230986956782E-05
(PID.TID 0000.0001) %MON dynstat_wvel_sd              =   1.6815576412833E-02
(PID.TID 0000.0001) %MON dynstat_wvel_del2            =   6.3575890594636E-04
(PID.TID 0000.0001) %MON dynstat_theta_max            =   1.6848951738824E-01
(PID.TID 0000.0001) %MON dynstat_theta_min            =   1.0266415711990E-15
(PID.TID 0000.0001) %MON dynstat_theta_mean           =   1.7621225648683E-02
(PID.TID 0000.0001) %MON dynstat_theta_sd             =   3.8021179079984E-02
(PID.TID 0000.0001) %MON dynstat_theta_del2           =   9.6807688562221E-04
(PID.TID 0000.0001) %MON dynstat_salt_max             =   1.5616719444289E-01
(PID.TID 0000.0001) %MON dynstat_salt_min             =  -1.5706959366735E-03
(PID.TID 0000.0001) %MON dynstat_salt_mean            =   1.7618970483239E-02
(PID.TID 0000.0001) %MON dynstat_salt_sd              =   3.3465806375738E-02
(PID.TID 0000.0001) %MON dynstat_salt_del2            =   6.9594154140030E-04
(PID.TID 0000.0001) %MON advcfl_uvel_max              =   5.2129189874721E-01
(PID.TID 0000.0001) %MON advcfl_vvel_max              =   0.0000000000000E+00
(PID.TID 0000.0001) %MON advcfl_wvel_max              =   3.7848861803369E-01
(PID.TID 0000.0001) %MON advcfl_W_hf_max              =   5.2106940143972E-01
(PID.TID 0000.0001) %MON pe_b_mean                    =   1.4499035339008E-01
(PID.TID 0000.0001) %MON ke_max                       =   9.3429278255223E+00
(PID.TID 0000.0001) %MON ke_mean                      =   2.2577321224331E+00
(PID.TID 0000.0001) %MON ke_vol                       =   3.0000000000000E+12
(PID.TID 0000.0001) // =======================================================
(PID.TID 0000.0001) // End MONITOR dynamic field statistics
(PID.TID 0000.0001) // =======================================================
 Computing Diagnostic #    107  ADVx_TH      Counter:      20   Parms: UU      MR      
           Vector  Mate for  ADVx_TH      Diagnostic #    108  ADVy_TH  not enabled
 Computing Diagnostic #    106  ADVr_TH      Counter:      20   Parms: WM      LR      
 Computing Diagnostic #    124  ADVx_SLT     Counter:      20   Parms: UU      MR      
           Vector  Mate for  ADVx_SLT     Diagnostic #    125  ADVy_SLT not enabled
 Computing Diagnostic #    123  ADVr_SLT     Counter:      20   Parms: WM      LR      
 Compute Stats, Diag. #     30  UVEL      vol(   0 ): 2.905E+12  Parms: UUR     MR      
 Compute Stats, Diag. #     32  WVEL      vol(   0 ): 3.000E+12  Parms: WM      LR      
 Compute Stats, Diag. #     26  THETA     vol(   0 ): 3.000E+12  Parms: SMR     MR      
 Compute Stats, Diag. #     27  SALT      vol(   0 ): 3.000E+12  Parms: SMR     MR      
 Compute Stats, Diag. #     23  ETAN      vol(   0 ): 2.000E+09  Parms: SM      M1      
 Compute Stats, Diag. #     95  RSURF     vol(   0 ): 2.000E+09  Parms: SM      M1      
 Compute Stats, Diag. #    107  ADVx_TH   vol(   0 ): 2.905E+12  Parms: UU      MR      
 Compute Stats, Diag. #    106  ADVr_TH   vol(   0 ): 3.000E+12  Parms: WM      LR      
 Compute Stats, Diag. #    124  ADVx_SLT  vol(   0 ): 2.905E+12  Parms: UU      MR      
 Compute Stats, Diag. #    123  ADVr_SLT  vol(   0 ): 3.000E+12  Parms: WM      LR      
 Compute Stats, Diag. #    105  gSinAB    vol(   0 ): 3.000E+12  Parms: SMR     MR      
 Compute Stats, Diag. #     30  UVEL      vol(   0 ): 2.905E+12  Parms: UUR     MR      
 Compute Stats, Diag. #     32  WVEL      vol(   0 ): 3.000E+12  Parms: WM      LR      
 Compute Stats, Diag. #     26  THETA     vol(   0 ): 3.000E+12  Parms: SMR     MR      
 Compute Stats, Diag. #     27  SALT      vol(   0 ): 3.000E+12  Parms: SMR     MR      
 Compute Stats, Diag. #     23  ETAN      vol(   0 ): 2.000E+09  Parms: SM      M1      
 Compute Stats, Diag. #     95  RSURF     vol(   0 ): 2.000E+09  Parms: SM      M1      
 Compute Stats, Diag. #    107  ADVx_TH   vol(   0 ): 2.905E+12  Parms: UU      MR      
 Compute Stats, Diag. #    106  ADVr_TH   vol(   0 ): 3.000E+12  Parms: WM      LR      
 Compute Stats, Diag. #    124  ADVx_SLT  vol(   0 ): 2.905E+12  Parms: UU      MR      
 Compute Stats, Diag. #    123  ADVr_SLT  vol(   0 ): 3.000E+12  Parms: WM      LR      
 Compute Stats, Diag. #    105  gSinAB    vol(   0 ): 3.000E+12  Parms: SMR     MR      
(PID.TID 0000.0001) // =======================================================
(PID.TID 0000.0001) // Begin MONITOR dynamic field statistics
(PID.TID 0000.0001) // =======================================================
(PID.TID 0000.0001) %MON time_tsnumber                =                    50
(PID.TID 0000.0001) %MON time_secondsf                =   6.0000000000000E+04
(PID.TID 0000.0001) %MON dynstat_eta_max              =   1.1797796120819E+01
(PID.TID 0000.0001) %MON dynstat_eta_min              =  -1.1698043001558E+01
(PID.TID 0000.0001) %MON dynstat_eta_mean             =   1.8310546875000E-15
(PID.TID 0000.0001) %MON dynstat_eta_sd               =   8.3239230528966E+00
(PID.TID 0000.0001) %MON dynstat_eta_del2             =   1.6827057570264E+00
(PID.TID 0000.0001) %MON dynstat_uvel_max             =   4.3284392146754E+00
(PID.TID 0000.0001) %MON dynstat_uvel_min             =  -4.3440991562267E+00
(PID.TID 0000.0001) %MON dynstat_uvel_mean            =   5.4710890643839E-03
(PID.TID 0000.0001) %MON dynstat_uvel_sd              =   2.1596357718467E+00
(PID.TID 0000.0001) %MON dynstat_uvel_del2            =   1.0993708114540E-02
(PID.TID 0000.0001) %MON dynstat_vvel_max             =   0.0000000000000E+00
(PID.TID 0000.0001) %MON dynstat_vvel_min             =   0.0000000000000E+00
(PID.TID 0000.0001) %MON dynstat_vvel_mean            =   0.0000000000000E+00
(PID.TID 0000.0001) %MON dynstat_vvel_sd              =   0.0000000000000E+00
(PID.TID 0000.0001) %MON dynstat_vvel_del2            =   0.0000000000000E+00
(PID.TID 0000.0001) %MON dynstat_wvel_max             =   3.1047173023347E-02
(PID.TID 0000.0001) %MON dynstat_wvel_min             =  -3.1612049667251E-02
(PID.TID 0000.0001) %MON dynstat_wvel_mean            =   1.3232788947253E-05
(PID.TID 0000.0001) %MON dynstat_wvel_sd              =   1.6813962663838E-02
(PID.TID 0000.0001) %MON dynstat_wvel_del2            =   6.3612408223702E-04
(PID.TID 0000.0001) %MON dynstat_theta_max            =   1.6118424392843E-01
(PID.TID 0000.0001) %MON dynstat_theta_min            =   1.3398776783954E-15
(PID.TID 0000.0001) %MON dynstat_theta_mean           =   1.7621201916389E-02
(PID.TID 0000.0001) %MON dynstat_theta_sd             =   3.6136435949798E-02
(PID.TID 0000.0001) %MON dynstat_theta_del2           =   1.0543687645401E-03
(PID.TID 0000.0001) %MON dynstat_salt_max             =   1.4084213525447E-01
(PID.TID 0000.0001) %MON dynstat_salt_min             =  -5.9237436541256E-03
(PID.TID 0000.0001) %MON dynstat_salt_mean            =   1.7618923729142E-02
(PID.TID 0000.0001) %MON dynstat_salt_sd              =   3.1165334620662E-02
(PID.TID 0000.0001) %MON dynstat_salt_del2            =   7.3833912133756E-04
(PID.TID 0000.0001) %MON advcfl_uvel_max              =   5.2129189874721E-01
(PID.TID 0000.0001) %MON advcfl_vvel_max              =   0.0000000000000E+00
(PID.TID 0000.0001) %MON advcfl_wvel_max              =   3.7934459600701E-01
(PID.TID 0000.0001) %MON advcfl_W_hf_max              =   5.2100254293713E-01
(PID.TID 0000.0001) %MON pe_b_mean                    =   2.2657076261908E-01
(PID.TID 0000.0001) %MON ke_max                       =   9.3429893770191E+00
(PID.TID 0000.0001) %MON ke_mean                      =   2.2581807370967E+00
(PID.TID 0000.0001) %MON ke_vol                       =   3.0000000000000E+12
(PID.TID 0000.0001) // =======================================================
(PID.TID 0000.0001) // End MONITOR dynamic field statistics
(PID.TID 0000.0001) // =======================================================
 Compute Stats, Diag. #     30  UVEL      vol(   0 ): 2.905E+12  Parms: UUR     MR      
 Compute Stats, Diag. #     32  WVEL      vol(   0 ): 3.000E+12  Parms: WM      LR      
 Compute Stats, Diag. #     26  THETA     vol(   0 ): 3.000E+12  Parms: SMR     MR      
 Compute Stats, Diag. #     27  SALT      vol(   0 ): 3.000E+12  Parms: SMR     MR      
 Compute Stats, Diag. #     23  ETAN      vol(   0 ): 2.000E+09  Parms: SM      M1      
 Compute Stats, Diag. #     95  RSURF     vol(   0 ): 2.000E+09  Parms: SM      M1      
 Compute Stats, Diag. #    107  ADVx_TH   vol(   0 ): 2.905E+12  Parms: UU      MR      
 Compute Stats, Diag. #    106  ADVr_TH   vol(   0 ): 3.000E+12  Parms: WM      LR      
 Compute Stats, Diag. #    124  ADVx_SLT  vol(   0 ): 2.905E+12  Parms: UU      MR      
 Compute Stats, Diag. #    123  ADVr_SLT  vol(   0 ): 3.000E+12  Parms: WM      LR      
 Compute Stats, Diag. #    105  gSinAB    vol(   0 ): 3.000E+12  Parms: SMR     MR      
 Compute Stats, Diag. #     30  UVEL      vol(   0 ): 2.905E+12  Parms: UUR     MR      
 Compute Stats, Diag. #     32  WVEL      vol(   0 ): 3.000E+12  Parms: WM      LR      
 Compute Stats, Diag. #     26  THETA     vol(   0 ): 3.000E+12  Parms: SMR     MR      
 Compute Stats, Diag. #     27  SALT      vol(   0 ): 3.000E+12  Parms: SMR     MR      
 Compute Stats, Diag. #     23  ETAN      vol(   0 ): 2.000E+09  Parms: SM      M1      
 Compute Stats, Diag. #     95  RSURF     vol(   0 ): 2.000E+09  Parms: SM      M1      
 Compute Stats, Diag. #    107  ADVx_TH   vol(   0 ): 2.905E+12  Parms: UU      MR      
 Compute Stats, Diag. #    106  ADVr_TH   vol(   0 ): 3.000E+12  Parms: WM      LR      
 Compute Stats, Diag. #    124  ADVx_SLT  vol(   0 ): 2.905E+12  Parms: UU      MR      
 Compute Stats, Diag. #    123  ADVr_SLT  vol(   0 ): 3.000E+12  Parms: WM      LR      
 Compute Stats, Diag. #    105  gSinAB    vol(   0 ): 3.000E+12  Parms: SMR     MR      
(PID.TID 0000.0001) // =======================================================
(PID.TID 0000.0001) // Begin MONITOR dynamic field statistics
(PID.TID 0000.0001) // =======================================================
(PID.TID 0000.0001) %MON time_tsnumber                =                    60
(PID.TID 0000.0001) %MON time_secondsf                =   7.2000000000000E+04
(PID.TID 0000.0001) %MON dynstat_eta_max              =   1.4173390711937E+01
(PID.TID 0000.0001) %MON dynstat_eta_min              =  -1.4029212147715E+01
(PID.TID 0000.0001) %MON dynstat_eta_mean             =   3.6621093750000E-15
(PID.TID 0000.0001) %MON dynstat_eta_sd               =   9.9892247354995E+00
(PID.TID 0000.0001) %MON dynstat_eta_del2             =   2.0198761930746E+00
(PID.TID 0000.0001) %MON dynstat_uvel_max             =   4.3284392146754E+00
(PID.TID 0000.0001) %MON dynstat_uvel_min             =  -4.3440991562267E+00
(PID.TID 0000.0001) %MON dynstat_uvel_mean            =   5.4718307564999E-03
(PID.TID 0000.0001) %MON dynstat_uvel_sd              =   2.1598488718066E+00
(PID.TID 0000.0001) %MON dynstat_uvel_del2            =   1.0993708114540E-02
(PID.TID 0000.0001) %MON dynstat_vvel_max             =   0.0000000000000E+00
(PID.TID 0000.0001) %MON dynstat_vvel_min             =   0.0000000000000E+00
(PID.TID 0000.0001) %MON dynstat_vvel_mean            =   0.0000000000000E+00
(PID.TID 0000.0001) %MON dynstat_vvel_sd              =   0.0000000000000E+00
(PID.TID 0000.0001) %MON dynstat_vvel_del2            =   0.0000000000000E+00
(PID.TID 0000.0001) %MON dynstat_wvel_max             =   3.1009810935559E-02
(PID.TID 0000.0001) %MON dynstat_wvel_min             =  -3.1683529078428E-02
(PID.TID 0000.0001) %MON dynstat_wvel_mean            =   1.3234579397287E-05
(PID.TID 0000.0001) %MON dynstat_wvel_sd              =   1.6812366261158E-02
(PID.TID 0000.0001) %MON dynstat_wvel_del2            =   6.3649185676318E-04
(PID.TID 0000.0001) %MON dynstat_theta_max            =   1.2499273617683E-01
(PID.TID 0000.0001) %MON dynstat_theta_min            =   1.3396828008248E-15
(PID.TID 0000.0001) %MON dynstat_theta_mean           =   1.7621974038933E-02
(PID.TID 0000.0001) %MON dynstat_theta_sd             =   3.2932044860749E-02
(PID.TID 0000.0001) %MON dynstat_theta_del2           =   8.8753224247830E-04
(PID.TID 0000.0001) %MON dynstat_salt_max             =   1.1008707155297E-01
(PID.TID 0000.0001) %MON dynstat_salt_min             =  -5.7059249455398E-03
(PID.TID 0000.0001) %MON dynstat_salt_mean            =   1.7620059385924E-02
(PID.TID 0000.0001) %MON dynstat_salt_sd              =   2.8355653901878E-02
(PID.TID 0000.0001) %MON dynstat_salt_del2            =   6.1749400963206E-04
(PID.TID 0000.0001) %MON advcfl_uvel_max              =   5.2129189874721E-01
(PID.TID 0000.0001) %MON advcfl_vvel_max              =   0.0000000000000E+00
(PID.TID 0000.0001) %MON advcfl_wvel_max              =   3.8020234894114E-01
(PID.TID 0000.0001) %MON advcfl_W_hf_max              =   5.2093571737117E-01
(PID.TID 0000.0001) %MON pe_b_mean                    =   3.2629567736935E-01
(PID.TID 0000.0001) %MON ke_max                       =   9.3430510815680E+00
(PID.TID 0000.0001) %MON ke_mean                      =   2.2586264077302E+00
(PID.TID 0000.0001) %MON ke_vol                       =   3.0000000000000E+12
(PID.TID 0000.0001) // =======================================================
(PID.TID 0000.0001) // End MONITOR dynamic field statistics
(PID.TID 0000.0001) // =======================================================
 Computing Diagnostic #    107  ADVx_TH      Counter:      20   Parms: UU      MR      
           Vector  Mate for  ADVx_TH      Diagnostic #    108  ADVy_TH  not enabled
 Computing Diagnostic #    106  ADVr_TH      Counter:      20   Parms: WM      LR      
 Computing Diagnostic #    124  ADVx_SLT     Counter:      20   Parms: UU      MR      
           Vector  Mate for  ADVx_SLT     Diagnostic #    125  ADVy_SLT not enabled
 Computing Diagnostic #    123  ADVr_SLT     Counter:      20   Parms: WM      LR      
 Compute Stats, Diag. #     30  UVEL      vol(   0 ): 2.905E+12  Parms: UUR     MR      
 Compute Stats, Diag. #     32  WVEL      vol(   0 ): 3.000E+12  Parms: WM      LR      
 Compute Stats, Diag. #     26  THETA     vol(   0 ): 3.000E+12  Parms: SMR     MR      
 Compute Stats, Diag. #     27  SALT      vol(   0 ): 3.000E+12  Parms: SMR     MR      
 Compute Stats, Diag. #     23  ETAN      vol(   0 ): 2.000E+09  Parms: SM      M1      
 Compute Stats, Diag. #     95  RSURF     vol(   0 ): 2.000E+09  Parms: SM      M1      
 Compute Stats, Diag. #    107  ADVx_TH   vol(   0 ): 2.905E+12  Parms: UU      MR      
 Compute Stats, Diag. #    106  ADVr_TH   vol(   0 ): 3.000E+12  Parms: WM      LR      
 Compute Stats, Diag. #    124  ADVx_SLT  vol(   0 ): 2.905E+12  Parms: UU      MR      
 Compute Stats, Diag. #    123  ADVr_SLT  vol(   0 ): 3.000E+12  Parms: WM      LR      
 Compute Stats, Diag. #    105  gSinAB    vol(   0 ): 3.000E+12  Parms: SMR     MR      
 Compute Stats, Diag. #     30  UVEL      vol(   0 ): 2.905E+12  Parms: UUR     MR      
 Compute Stats, Diag. #     32  WVEL      vol(   0 ): 3.000E+12  Parms: WM      LR      
 Compute Stats, Diag. #     26  THETA     vol(   0 ): 3.000E+12  Parms: SMR     MR      
 Compute Stats, Diag. #     27  SALT      vol(   0 ): 3.000E+12  Parms: SMR     MR      
 Compute Stats, Diag. #     23  ETAN      vol(   0 ): 2.000E+09  Parms: SM      M1      
 Compute Stats, Diag. #     95  RSURF     vol(   0 ): 2.000E+09  Parms: SM      M1      
 Compute Stats, Diag. #    107  ADVx_TH   vol(   0 ): 2.905E+12  Parms: UU      MR      
 Compute Stats, Diag. #    106  ADVr_TH   vol(   0 ): 3.000E+12  Parms: WM      LR      
 Compute Stats, Diag. #    124  ADVx_SLT  vol(   0 ): 2.905E+12  Parms: UU      MR      
 Compute Stats, Diag. #    123  ADVr_SLT  vol(   0 ): 3.000E+12  Parms: WM      LR      
 Compute Stats, Diag. #    105  gSinAB    vol(   0 ): 3.000E+12  Parms: SMR     MR      
(PID.TID 0000.0001) // =======================================================
(PID.TID 0000.0001) // Begin MONITOR dynamic field statistics
(PID.TID 0000.0001) // =======================================================
(PID.TID 0000.0001) %MON time_tsnumber                =                    70
(PID.TID 0000.0001) %MON time_secondsf                =   8.4000000000000E+04
(PID.TID 0000.0001) %MON dynstat_eta_max              =   1.6554356310158E+01
(PID.TID 0000.0001) %MON dynstat_eta_min              =  -1.6357575950393E+01
(PID.TID 0000.0001) %MON dynstat_eta_mean             =   6.1035156250000E-15
(PID.TID 0000.0001) %MON dynstat_eta_sd               =   1.1654701893425E+01
(PID.TID 0000.0001) %MON dynstat_eta_del2             =   2.3572593548661E+00
(PID.TID 0000.0001) %MON dynstat_uvel_max             =   4.3284392146754E+00
(PID.TID 0000.0001) %MON dynstat_uvel_min             =  -4.3440991562267E+00
(PID.TID 0000.0001) %MON dynstat_uvel_mean            =   5.4725676753904E-03
(PID.TID 0000.0001) %MON dynstat_uvel_sd              =   2.1600605424957E+00
(PID.TID 0000.0001) %MON dynstat_uvel_del2            =   1.0993708114540E-02
(PID.TID 0000.0001) %MON dynstat_vvel_max             =   0.0000000000000E+00
(PID.TID 0000.0001) %MON dynstat_vvel_min             =   0.0000000000000E+00
(PID.TID 0000.0001) %MON dynstat_vvel_mean            =   0.0000000000000E+00
(PID.TID 0000.0001) %MON dynstat_vvel_sd              =   0.0000000000000E+00
(PID.TID 0000.0001) %MON dynstat_vvel_del2            =   0.0000000000000E+00
(PID.TID 0000.0001) %MON dynstat_wvel_max             =   3.0972493312419E-02
(PID.TID 0000.0001) %MON dynstat_wvel_min             =  -3.1755156645165E-02
(PID.TID 0000.0001) %MON dynstat_wvel_mean            =   1.3236358300910E-05
(PID.TID 0000.0001) %MON dynstat_wvel_sd              =   1.6810787220716E-02
(PID.TID 0000.0001) %MON dynstat_wvel_del2            =   6.3686223360706E-04
(PID.TID 0000.0001) %MON dynstat_theta_max            =   1.1646607743120E-01
(PID.TID 0000.0001) %MON dynstat_theta_min            =   1.4600993864187E-15
(PID.TID 0000.0001) %MON dynstat_theta_mean           =   1.7623059172764E-02
(PID.TID 0000.0001) %MON dynstat_theta_sd             =   3.0434434503305E-02
(PID.TID 0000.0001) %MON dynstat_theta_del2           =   9.0734315157330E-04
(PID.TID 0000.0001) %MON dynstat_salt_max             =   1.0058797500239E-01
(PID.TID 0000.0001) %MON dynstat_salt_min             =  -5.5458361309770E-03
(PID.TID 0000.0001) %MON dynstat_salt_mean            =   1.7621653374045E-02
(PID.TID 0000.0001) %MON dynstat_salt_sd              =   2.5932936026068E-02
(PID.TID 0000.0001) %MON dynstat_salt_del2            =   5.5722819178477E-04
(PID.TID 0000.0001) %MON advcfl_uvel_max              =   5.2129189874721E-01
(PID.TID 0000.0001) %MON advcfl_vvel_max              =   0.0000000000000E+00
(PID.TID 0000.0001) %MON advcfl_wvel_max              =   3.8106187974197E-01
(PID.TID 0000.0001) %MON advcfl_W_hf_max              =   5.2086892504567E-01
(PID.TID 0000.0001) %MON pe_b_mean                    =   4.4417088925446E-01
(PID.TID 0000.0001) %MON ke_max                       =   9.3431129391475E+00
(PID.TID 0000.0001) %MON ke_mean                      =   2.2590691327647E+00
(PID.TID 0000.0001) %MON ke_vol                       =   3.0000000000000E+12
(PID.TID 0000.0001) // =======================================================
(PID.TID 0000.0001) // End MONITOR dynamic field statistics
(PID.TID 0000.0001) // =======================================================
 Compute Stats, Diag. #     30  UVEL      vol(   0 ): 2.905E+12  Parms: UUR     MR      
 Compute Stats, Diag. #     32  WVEL      vol(   0 ): 3.000E+12  Parms: WM      LR      
 Compute Stats, Diag. #     26  THETA     vol(   0 ): 3.000E+12  Parms: SMR     MR      
 Compute Stats, Diag. #     27  SALT      vol(   0 ): 3.000E+12  Parms: SMR     MR      
 Compute Stats, Diag. #     23  ETAN      vol(   0 ): 2.000E+09  Parms: SM      M1      
 Compute Stats, Diag. #     95  RSURF     vol(   0 ): 2.000E+09  Parms: SM      M1      
 Compute Stats, Diag. #    107  ADVx_TH   vol(   0 ): 2.905E+12  Parms: UU      MR      
 Compute Stats, Diag. #    106  ADVr_TH   vol(   0 ): 3.000E+12  Parms: WM      LR      
 Compute Stats, Diag. #    124  ADVx_SLT  vol(   0 ): 2.905E+12  Parms: UU      MR      
 Compute Stats, Diag. #    123  ADVr_SLT  vol(   0 ): 3.000E+12  Parms: WM      LR      
 Compute Stats, Diag. #    105  gSinAB    vol(   0 ): 3.000E+12  Parms: SMR     MR      
 Compute Stats, Diag. #     30  UVEL      vol(   0 ): 2.905E+12  Parms: UUR     MR      
 Compute Stats, Diag. #     32  WVEL      vol(   0 ): 3.000E+12  Parms: WM      LR      
 Compute Stats, Diag. #     26  THETA     vol(   0 ): 3.000E+12  Parms: SMR     MR      
 Compute Stats, Diag. #     27  SALT      vol(   0 ): 3.000E+12  Parms: SMR     MR      
 Compute Stats, Diag. #     23  ETAN      vol(   0 ): 2.000E+09  Parms: SM      M1      
 Compute Stats, Diag. #     95  RSURF     vol(   0 ): 2.000E+09  Parms: SM      M1      
 Compute Stats, Diag. #    107  ADVx_TH   vol(   0 ): 2.905E+12  Parms: UU      MR      
 Compute Stats, Diag. #    106  ADVr_TH   vol(   0 ): 3.000E+12  Parms: WM      LR      
 Compute Stats, Diag. #    124  ADVx_SLT  vol(   0 ): 2.905E+12  Parms: UU      MR      
 Compute Stats, Diag. #    123  ADVr_SLT  vol(   0 ): 3.000E+12  Parms: WM      LR      
 Compute Stats, Diag. #    105  gSinAB    vol(   0 ): 3.000E+12  Parms: SMR     MR      
(PID.TID 0000.0001) // =======================================================
(PID.TID 0000.0001) // Begin MONITOR dynamic field statistics
(PID.TID 0000.0001) // =======================================================
(PID.TID 0000.0001) %MON time_tsnumber                =                    80
(PID.TID 0000.0001) %MON time_secondsf                =   9.6000000000000E+04
(PID.TID 0000.0001) %MON dynstat_eta_max              =   1.8940704045310E+01
(PID.TID 0000.0001) %MON dynstat_eta_min              =  -1.8683137748367E+01
(PID.TID 0000.0001) %MON dynstat_eta_mean             =   8.5449218750000E-15
(PID.TID 0000.0001) %MON dynstat_eta_sd               =   1.3320355866490E+01
(PID.TID 0000.0001) %MON dynstat_eta_del2             =   2.6948565168462E+00
(PID.TID 0000.0001) %MON dynstat_uvel_max             =   4.3284392146754E+00
(PID.TID 0000.0001) %MON dynstat_uvel_min             =  -4.3440991562267E+00
(PID.TID 0000.0001) %MON dynstat_uvel_mean            =   5.4732998185970E-03
(PID.TID 0000.0001) %MON dynstat_uvel_sd              =   2.1602707835913E+00
(PID.TID 0000.0001) %MON dynstat_uvel_del2            =   1.0993708114540E-02
(PID.TID 0000.0001) %MON dynstat_vvel_max             =   0.0000000000000E+00
(PID.TID 0000.0001) %MON dynstat_vvel_min             =   0.0000000000000E+00
(PID.TID 0000.0001) %MON dynstat_vvel_mean            =   0.0000000000000E+00
(PID.TID 0000.0001) %MON dynstat_vvel_sd              =   0.0000000000000E+00
(PID.TID 0000.0001) %MON dynstat_vvel_del2            =   0.0000000000000E+00
(PID.TID 0000.0001) %MON dynstat_wvel_max             =   3.0935220104278E-02
(PID.TID 0000.0001) %MON dynstat_wvel_min             =  -3.1826932609710E-02
(PID.TID 0000.0001) %MON dynstat_wvel_mean            =   1.3238125652189E-05
(PID.TID 0000.0001) %MON dynstat_wvel_sd              =   1.6809225558463E-02
(PID.TID 0000.0001) %MON dynstat_wvel_del2            =   6.3723521686078E-04
(PID.TID 0000.0001) %MON dynstat_theta_max            =   1.1254425092369E-01
(PID.TID 0000.0001) %MON dynstat_theta_min            =   8.6254676729611E-13
(PID.TID 0000.0001) %MON dynstat_theta_mean           =   1.7623971012535E-02
(PID.TID 0000.0001) %MON dynstat_theta_sd             =   2.8843836167075E-02
(PID.TID 0000.0001) %MON dynstat_theta_del2           =   9.5138214606854E-04
(PID.TID 0000.0001) %MON dynstat_salt_max             =   9.8119677575680E-02
(PID.TID 0000.0001) %MON dynstat_salt_min             =  -7.4038007139666E-03
(PID.TID 0000.0001) %MON dynstat_salt_mean            =   1.7623037488564E-02
(PID.TID 0000.0001) %MON dynstat_salt_sd              =   2.4417958785268E-02
(PID.TID 0000.0001) %MON dynstat_salt_del2            =   5.8813988047591E-04
(PID.TID 0000.0001) %MON advcfl_uvel_max              =   5.2129189874721E-01
(PID.TID 0000.0001) %MON advcfl_vvel_max              =   0.0000000000000E+00
(PID.TID 0000.0001) %MON advcfl_wvel_max              =   3.8192319131652E-01
(PID.TID 0000.0001) %MON advcfl_W_hf_max              =   5.2080216626336E-01
(PID.TID 0000.0001) %MON pe_b_mean                    =   5.8020224894053E-01
(PID.TID 0000.0001) %MON ke_max                       =   9.3431749497232E+00
(PID.TID 0000.0001) %MON ke_mean                      =   2.2595089106466E+00
(PID.TID 0000.0001) %MON ke_vol                       =   3.0000000000000E+12
(PID.TID 0000.0001) // =======================================================
(PID.TID 0000.0001) // End MONITOR dynamic field statistics
(PID.TID 0000.0001) // =======================================================
 Computing Diagnostic #    107  ADVx_TH      Counter:      20   Parms: UU      MR      
           Vector  Mate for  ADVx_TH      Diagnostic #    108  ADVy_TH  not enabled
 Computing Diagnostic #    106  ADVr_TH      Counter:      20   Parms: WM      LR      
 Computing Diagnostic #    124  ADVx_SLT     Counter:      20   Parms: UU      MR      
           Vector  Mate for  ADVx_SLT     Diagnostic #    125  ADVy_SLT not enabled
 Computing Diagnostic #    123  ADVr_SLT     Counter:      20   Parms: WM      LR      
 Compute Stats, Diag. #     30  UVEL      vol(   0 ): 2.905E+12  Parms: UUR     MR      
 Compute Stats, Diag. #     32  WVEL      vol(   0 ): 3.000E+12  Parms: WM      LR      
 Compute Stats, Diag. #     26  THETA     vol(   0 ): 3.000E+12  Parms: SMR     MR      
 Compute Stats, Diag. #     27  SALT      vol(   0 ): 3.000E+12  Parms: SMR     MR      
 Compute Stats, Diag. #     23  ETAN      vol(   0 ): 2.000E+09  Parms: SM      M1      
 Compute Stats, Diag. #     95  RSURF     vol(   0 ): 2.000E+09  Parms: SM      M1      
 Compute Stats, Diag. #    107  ADVx_TH   vol(   0 ): 2.905E+12  Parms: UU      MR      
 Compute Stats, Diag. #    106  ADVr_TH   vol(   0 ): 3.000E+12  Parms: WM      LR      
 Compute Stats, Diag. #    124  ADVx_SLT  vol(   0 ): 2.905E+12  Parms: UU      MR      
 Compute Stats, Diag. #    123  ADVr_SLT  vol(   0 ): 3.000E+12  Parms: WM      LR      
 Compute Stats, Diag. #    105  gSinAB    vol(   0 ): 3.000E+12  Parms: SMR     MR      
 Compute Stats, Diag. #     30  UVEL      vol(   0 ): 2.905E+12  Parms: UUR     MR      
 Compute Stats, Diag. #     32  WVEL      vol(   0 ): 3.000E+12  Parms: WM      LR      
 Compute Stats, Diag. #     26  THETA     vol(   0 ): 3.000E+12  Parms: SMR     MR      
 Compute Stats, Diag. #     27  SALT      vol(   0 ): 3.000E+12  Parms: SMR     MR      
 Compute Stats, Diag. #     23  ETAN      vol(   0 ): 2.000E+09  Parms: SM      M1      
 Compute Stats, Diag. #     95  RSURF     vol(   0 ): 2.000E+09  Parms: SM      M1      
 Compute Stats, Diag. #    107  ADVx_TH   vol(   0 ): 2.905E+12  Parms: UU      MR      
 Compute Stats, Diag. #    106  ADVr_TH   vol(   0 ): 3.000E+12  Parms: WM      LR      
 Compute Stats, Diag. #    124  ADVx_SLT  vol(   0 ): 2.905E+12  Parms: UU      MR      
 Compute Stats, Diag. #    123  ADVr_SLT  vol(   0 ): 3.000E+12  Parms: WM      LR      
 Compute Stats, Diag. #    105  gSinAB    vol(   0 ): 3.000E+12  Parms: SMR     MR      
(PID.TID 0000.0001) // =======================================================
(PID.TID 0000.0001) // Begin MONITOR dynamic field statistics
(PID.TID 0000.0001) // =======================================================
(PID.TID 0000.0001) %MON time_tsnumber                =                    90
(PID.TID 0000.0001) %MON time_secondsf                =   1.0800000000000E+05
(PID.TID 0000.0001) %MON dynstat_eta_max              =   2.1332445065403E+01
(PID.TID 0000.0001) %MON dynstat_eta_min              =  -2.1005900876685E+01
(PID.TID 0000.0001) %MON dynstat_eta_mean             =   7.3242187500000E-15
(PID.TID 0000.0001) %MON dynstat_eta_sd               =   1.4986187996287E+01
(PID.TID 0000.0001) %MON dynstat_eta_del2             =   3.0326689555082E+00
(PID.TID 0000.0001) %MON dynstat_uvel_max             =   4.3284392146754E+00
(PID.TID 0000.0001) %MON dynstat_uvel_min             =  -4.3440991562267E+00
(PID.TID 0000.0001) %MON dynstat_uvel_mean            =   5.4740271836775E-03
(PID.TID 0000.0001) %MON dynstat_uvel_sd              =   2.1604795947755E+00
(PID.TID 0000.0001) %MON dynstat_uvel_del2            =   1.0993708114540E-02
(PID.TID 0000.0001) %MON dynstat_vvel_max             =   0.0000000000000E+00
(PID.TID 0000.0001) %MON dynstat_vvel_min             =   0.0000000000000E+00
(PID.TID 0000.0001) %MON dynstat_vvel_mean            =   0.0000000000000E+00
(PID.TID 0000.0001) %MON dynstat_vvel_sd              =   0.0000000000000E+00
(PID.TID 0000.0001) %MON dynstat_vvel_del2            =   0.0000000000000E+00
(PID.TID 0000.0001) %MON dynstat_wvel_max             =   3.0897991261525E-02
(PID.TID 0000.0001) %MON dynstat_wvel_min             =  -3.1898857214400E-02
(PID.TID 0000.0001) %MON dynstat_wvel_mean            =   1.3239881445239E-05
(PID.TID 0000.0001) %MON dynstat_wvel_sd              =   1.6807681290378E-02
(PID.TID 0000.0001) %MON dynstat_wvel_del2            =   6.3761081062632E-04
(PID.TID 0000.0001) %MON dynstat_theta_max            =   1.0899996300392E-01
(PID.TID 0000.0001) %MON dynstat_theta_min            =   8.6254676729611E-13
(PID.TID 0000.0001) %MON dynstat_theta_mean           =   1.7624534091883E-02
(PID.TID 0000.0001) %MON dynstat_theta_sd             =   2.7694211069559E-02
(PID.TID 0000.0001) %MON dynstat_theta_del2           =   9.1109145277377E-04
(PID.TID 0000.0001) %MON dynstat_salt_max             =   9.3365059241835E-02
(PID.TID 0000.0001) %MON dynstat_salt_min             =  -8.4770118681592E-03
(PID.TID 0000.0001) %MON dynstat_salt_mean            =   1.7623921963883E-02
(PID.TID 0000.0001) %MON dynstat_salt_sd              =   2.3357072230165E-02
(PID.TID 0000.0001) %MON dynstat_salt_del2            =   6.1136659516825E-04
(PID.TID 0000.0001) %MON advcfl_uvel_max              =   5.2129189874721E-01
(PID.TID 0000.0001) %MON advcfl_vvel_max              =   0.0000000000000E+00
(PID.TID 0000.0001) %MON advcfl_wvel_max              =   3.8278628657280E-01
(PID.TID 0000.0001) %MON advcfl_W_hf_max              =   5.2073544132578E-01
(PID.TID 0000.0001) %MON pe_b_mean                    =   7.3439566625840E-01
(PID.TID 0000.0001) %MON ke_max                       =   9.3432371132478E+00
(PID.TID 0000.0001) %MON ke_mean                      =   2.2599457398376E+00
(PID.TID 0000.0001) %MON ke_vol                       =   3.0000000000000E+12
(PID.TID 0000.0001) // =======================================================
(PID.TID 0000.0001) // End MONITOR dynamic field statistics
(PID.TID 0000.0001) // =======================================================
 Compute Stats, Diag. #     30  UVEL      vol(   0 ): 2.905E+12  Parms: UUR     MR      
 Compute Stats, Diag. #     32  WVEL      vol(   0 ): 3.000E+12  Parms: WM      LR      
 Compute Stats, Diag. #     26  THETA     vol(   0 ): 3.000E+12  Parms: SMR     MR      
 Compute Stats, Diag. #     27  SALT      vol(   0 ): 3.000E+12  Parms: SMR     MR      
 Compute Stats, Diag. #     23  ETAN      vol(   0 ): 2.000E+09  Parms: SM      M1      
 Compute Stats, Diag. #     95  RSURF     vol(   0 ): 2.000E+09  Parms: SM      M1      
 Compute Stats, Diag. #    107  ADVx_TH   vol(   0 ): 2.905E+12  Parms: UU      MR      
 Compute Stats, Diag. #    106  ADVr_TH   vol(   0 ): 3.000E+12  Parms: WM      LR      
 Compute Stats, Diag. #    124  ADVx_SLT  vol(   0 ): 2.905E+12  Parms: UU      MR      
 Compute Stats, Diag. #    123  ADVr_SLT  vol(   0 ): 3.000E+12  Parms: WM      LR      
 Compute Stats, Diag. #    105  gSinAB    vol(   0 ): 3.000E+12  Parms: SMR     MR      
 Compute Stats, Diag. #     30  UVEL      vol(   0 ): 2.905E+12  Parms: UUR     MR      
 Compute Stats, Diag. #     32  WVEL      vol(   0 ): 3.000E+12  Parms: WM      LR      
 Compute Stats, Diag. #     26  THETA     vol(   0 ): 3.000E+12  Parms: SMR     MR      
 Compute Stats, Diag. #     27  SALT      vol(   0 ): 3.000E+12  Parms: SMR     MR      
 Compute Stats, Diag. #     23  ETAN      vol(   0 ): 2.000E+09  Parms: SM      M1      
 Compute Stats, Diag. #     95  RSURF     vol(   0 ): 2.000E+09  Parms: SM      M1      
 Compute Stats, Diag. #    107  ADVx_TH   vol(   0 ): 2.905E+12  Parms: UU      MR      
 Compute Stats, Diag. #    106  ADVr_TH   vol(   0 ): 3.000E+12  Parms: WM      LR      
 Compute Stats, Diag. #    124  ADVx_SLT  vol(   0 ): 2.905E+12  Parms: UU      MR      
 Compute Stats, Diag. #    123  ADVr_SLT  vol(   0 ): 3.000E+12  Parms: WM      LR      
 Compute Stats, Diag. #    105  gSinAB    vol(   0 ): 3.000E+12  Parms: SMR     MR      
(PID.TID 0000.0001) // =======================================================
(PID.TID 0000.0001) // Begin MONITOR dynamic field statistics
(PID.TID 0000.0001) // =======================================================
(PID.TID 0000.0001) %MON time_tsnumber                =                   100
(PID.TID 0000.0001) %MON time_secondsf                =   1.2000000000000E+05
(PID.TID 0000.0001) %MON dynstat_eta_max              =   2.3729590536642E+01
(PID.TID 0000.0001) %MON dynstat_eta_min              =  -2.3325868666670E+01
(PID.TID 0000.0001) %MON dynstat_eta_mean             =   6.1035156250000E-15
(PID.TID 0000.0001) %MON dynstat_eta_sd               =   1.6652199626183E+01
(PID.TID 0000.0001) %MON dynstat_eta_del2             =   3.3706979493996E+00
(PID.TID 0000.0001) %MON dynstat_uvel_max             =   4.3284392146754E+00
(PID.TID 0000.0001) %MON dynstat_uvel_min             =  -4.3440991562267E+00
(PID.TID 0000.0001) %MON dynstat_uvel_mean            =   5.4747497682088E-03
(PID.TID 0000.0001) %MON dynstat_uvel_sd              =   2.1606869757351E+00
(PID.TID 0000.0001) %MON dynstat_uvel_del2            =   1.0993708114540E-02
(PID.TID 0000.0001) %MON dynstat_vvel_max             =   0.0000000000000E+00
(PID.TID 0000.0001) %MON dynstat_vvel_min             =   0.0000000000000E+00
(PID.TID 0000.0001) %MON dynstat_vvel_mean            =   0.0000000000000E+00
(PID.TID 0000.0001) %MON dynstat_vvel_sd              =   0.0000000000000E+00
(PID.TID 0000.0001) %MON dynstat_vvel_del2            =   0.0000000000000E+00
(PID.TID 0000.0001) %MON dynstat_wvel_max             =   3.0860806734589E-02
(PID.TID 0000.0001) %MON dynstat_wvel_min             =  -3.1970930701658E-02
(PID.TID 0000.0001) %MON dynstat_wvel_mean            =   1.3241625674182E-05
(PID.TID 0000.0001) %MON dynstat_wvel_sd              =   1.6806154432470E-02
(PID.TID 0000.0001) %MON dynstat_wvel_del2            =   6.3798901901557E-04
(PID.TID 0000.0001) %MON dynstat_theta_max            =   1.0616011465494E-01
(PID.TID 0000.0001) %MON dynstat_theta_min            =   8.7107498092217E-11
(PID.TID 0000.0001) %MON dynstat_theta_mean           =   1.7624769352689E-02
(PID.TID 0000.0001) %MON dynstat_theta_sd             =   2.6406499163802E-02
(PID.TID 0000.0001) %MON dynstat_theta_del2           =   8.2289471413237E-04
(PID.TID 0000.0001) %MON dynstat_salt_max             =   8.7852932496428E-02
(PID.TID 0000.0001) %MON dynstat_salt_min             =  -8.6393068022147E-03
(PID.TID 0000.0001) %MON dynstat_salt_mean            =   1.7624276869554E-02
(PID.TID 0000.0001) %MON dynstat_salt_sd              =   2.2284965605386E-02
(PID.TID 0000.0001) %MON dynstat_salt_del2            =   5.8175144187695E-04
(PID.TID 0000.0001) %MON advcfl_uvel_max              =   5.2129189874721E-01
(PID.TID 0000.0001) %MON advcfl_vvel_max              =   0.0000000000000E+00
(PID.TID 0000.0001) %MON advcfl_wvel_max              =   3.8365116841989E-01
(PID.TID 0000.0001) %MON advcfl_W_hf_max              =   5.2066875053335E-01
(PID.TID 0000.0001) %MON pe_b_mean                    =   9.0675711031612E-01
(PID.TID 0000.0001) %MON ke_max                       =   9.3432994296612E+00
(PID.TID 0000.0001) %MON ke_mean                      =   2.2603796188148E+00
(PID.TID 0000.0001) %MON ke_vol                       =   3.0000000000000E+12
(PID.TID 0000.0001) // =======================================================
(PID.TID 0000.0001) // End MONITOR dynamic field statistics
(PID.TID 0000.0001) // =======================================================
 Computing Diagnostic #    107  ADVx_TH      Counter:      20   Parms: UU      MR      
           Vector  Mate for  ADVx_TH      Diagnostic #    108  ADVy_TH  not enabled
 Computing Diagnostic #    106  ADVr_TH      Counter:      20   Parms: WM      LR      
 Computing Diagnostic #    124  ADVx_SLT     Counter:      20   Parms: UU      MR      
           Vector  Mate for  ADVx_SLT     Diagnostic #    125  ADVy_SLT not enabled
 Computing Diagnostic #    123  ADVr_SLT     Counter:      20   Parms: WM      LR      
 Compute Stats, Diag. #     30  UVEL      vol(   0 ): 2.905E+12  Parms: UUR     MR      
 Compute Stats, Diag. #     32  WVEL      vol(   0 ): 3.000E+12  Parms: WM      LR      
 Compute Stats, Diag. #     26  THETA     vol(   0 ): 3.000E+12  Parms: SMR     MR      
 Compute Stats, Diag. #     27  SALT      vol(   0 ): 3.000E+12  Parms: SMR     MR      
 Compute Stats, Diag. #     23  ETAN      vol(   0 ): 2.000E+09  Parms: SM      M1      
 Compute Stats, Diag. #     95  RSURF     vol(   0 ): 2.000E+09  Parms: SM      M1      
 Compute Stats, Diag. #    107  ADVx_TH   vol(   0 ): 2.905E+12  Parms: UU      MR      
 Compute Stats, Diag. #    106  ADVr_TH   vol(   0 ): 3.000E+12  Parms: WM      LR      
 Compute Stats, Diag. #    124  ADVx_SLT  vol(   0 ): 2.905E+12  Parms: UU      MR      
 Compute Stats, Diag. #    123  ADVr_SLT  vol(   0 ): 3.000E+12  Parms: WM      LR      
 Compute Stats, Diag. #    105  gSinAB    vol(   0 ): 3.000E+12  Parms: SMR     MR      
 Compute Stats, Diag. #     30  UVEL      vol(   0 ): 2.905E+12  Parms: UUR     MR      
 Compute Stats, Diag. #     32  WVEL      vol(   0 ): 3.000E+12  Parms: WM      LR      
 Compute Stats, Diag. #     26  THETA     vol(   0 ): 3.000E+12  Parms: SMR     MR      
 Compute Stats, Diag. #     27  SALT      vol(   0 ): 3.000E+12  Parms: SMR     MR      
 Compute Stats, Diag. #     23  ETAN      vol(   0 ): 2.000E+09  Parms: SM      M1      
 Compute Stats, Diag. #     95  RSURF     vol(   0 ): 2.000E+09  Parms: SM      M1      
 Compute Stats, Diag. #    107  ADVx_TH   vol(   0 ): 2.905E+12  Parms: UU      MR      
 Compute Stats, Diag. #    106  ADVr_TH   vol(   0 ): 3.000E+12  Parms: WM      LR      
 Compute Stats, Diag. #    124  ADVx_SLT  vol(   0 ): 2.905E+12  Parms: UU      MR      
 Compute Stats, Diag. #    123  ADVr_SLT  vol(   0 ): 3.000E+12  Parms: WM      LR      
 Compute Stats, Diag. #    105  gSinAB    vol(   0 ): 3.000E+12  Parms: SMR     MR      
(PID.TID 0000.0001) // =======================================================
(PID.TID 0000.0001) // Begin MONITOR dynamic field statistics
(PID.TID 0000.0001) // =======================================================
(PID.TID 0000.0001) %MON time_tsnumber                =                   110
(PID.TID 0000.0001) %MON time_secondsf                =   1.3200000000000E+05
(PID.TID 0000.0001) %MON dynstat_eta_max              =   2.6132151643430E+01
(PID.TID 0000.0001) %MON dynstat_eta_min              =  -2.5643044445920E+01
(PID.TID 0000.0001) %MON dynstat_eta_mean             =   6.1035156250000E-15
(PID.TID 0000.0001) %MON dynstat_eta_sd               =   1.8318392101325E+01
(PID.TID 0000.0001) %MON dynstat_eta_del2             =   3.7089447791272E+00
(PID.TID 0000.0001) %MON dynstat_uvel_max             =   4.3284392146754E+00
(PID.TID 0000.0001) %MON dynstat_uvel_min             =  -4.3440991562267E+00
(PID.TID 0000.0001) %MON dynstat_uvel_mean            =   5.4754675697822E-03
(PID.TID 0000.0001) %MON dynstat_uvel_sd              =   2.1608929261612E+00
(PID.TID 0000.0001) %MON dynstat_uvel_del2            =   1.0993708114540E-02
(PID.TID 0000.0001) %MON dynstat_vvel_max             =   0.0000000000000E+00
(PID.TID 0000.0001) %MON dynstat_vvel_min             =   0.0000000000000E+00
(PID.TID 0000.0001) %MON dynstat_vvel_mean            =   0.0000000000000E+00
(PID.TID 0000.0001) %MON dynstat_vvel_sd              =   0.0000000000000E+00
(PID.TID 0000.0001) %MON dynstat_vvel_del2            =   0.0000000000000E+00
(PID.TID 0000.0001) %MON dynstat_wvel_max             =   3.0823666473939E-02
(PID.TID 0000.0001) %MON dynstat_wvel_min             =  -3.2043153313988E-02
(PID.TID 0000.0001) %MON dynstat_wvel_mean            =   1.3243358333233E-05
(PID.TID 0000.0001) %MON dynstat_wvel_sd              =   1.6804645000780E-02
(PID.TID 0000.0001) %MON dynstat_wvel_del2            =   6.3836984615029E-04
(PID.TID 0000.0001) %MON dynstat_theta_max            =   1.0201965729003E-01
(PID.TID 0000.0001) %MON dynstat_theta_min            =   4.6079595077356E-10
(PID.TID 0000.0001) %MON dynstat_theta_mean           =   1.7624692134417E-02
(PID.TID 0000.0001) %MON dynstat_theta_sd             =   2.5003123078007E-02
(PID.TID 0000.0001) %MON dynstat_theta_del2           =   7.1899688171248E-04
(PID.TID 0000.0001) %MON dynstat_salt_max             =   8.1722311515586E-02
(PID.TID 0000.0001) %MON dynstat_salt_min             =  -9.1975896566094E-03
(PID.TID 0000.0001) %MON dynstat_salt_mean            =   1.7624149147409E-02
(PID.TID 0000.0001) %MON dynstat_salt_sd              =   2.1096939945208E-02
(PID.TID 0000.0001) %MON dynstat_salt_del2            =   5.2918253165125E-04
(PID.TID 0000.0001) %MON advcfl_uvel_max              =   5.2129189874721E-01
(PID.TID 0000.0001) %MON advcfl_vvel_max              =   0.0000000000000E+00
(PID.TID 0000.0001) %MON advcfl_wvel_max              =   3.8451783976786E-01
(PID.TID 0000.0001) %MON advcfl_W_hf_max              =   5.2060209418531E-01
(PID.TID 0000.0001) %MON pe_b_mean                    =   1.0972926096117E+00
(PID.TID 0000.0001) %MON ke_max                       =   9.3433618988903E+00
(PID.TID 0000.0001) %MON ke_mean                      =   2.2608105460705E+00
(PID.TID 0000.0001) %MON ke_vol                       =   3.0000000000000E+12
(PID.TID 0000.0001) // =======================================================
(PID.TID 0000.0001) // End MONITOR dynamic field statistics
(PID.TID 0000.0001) // =======================================================
 Compute Stats, Diag. #     30  UVEL      vol(   0 ): 2.905E+12  Parms: UUR     MR      
 Compute Stats, Diag. #     32  WVEL      vol(   0 ): 3.000E+12  Parms: WM      LR      
 Compute Stats, Diag. #     26  THETA     vol(   0 ): 3.000E+12  Parms: SMR     MR      
 Compute Stats, Diag. #     27  SALT      vol(   0 ): 3.000E+12  Parms: SMR     MR      
 Compute Stats, Diag. #     23  ETAN      vol(   0 ): 2.000E+09  Parms: SM      M1      
 Compute Stats, Diag. #     95  RSURF     vol(   0 ): 2.000E+09  Parms: SM      M1      
 Compute Stats, Diag. #    107  ADVx_TH   vol(   0 ): 2.905E+12  Parms: UU      MR      
 Compute Stats, Diag. #    106  ADVr_TH   vol(   0 ): 3.000E+12  Parms: WM      LR      
 Compute Stats, Diag. #    124  ADVx_SLT  vol(   0 ): 2.905E+12  Parms: UU      MR      
 Compute Stats, Diag. #    123  ADVr_SLT  vol(   0 ): 3.000E+12  Parms: WM      LR      
 Compute Stats, Diag. #    105  gSinAB    vol(   0 ): 3.000E+12  Parms: SMR     MR      
 Compute Stats, Diag. #     30  UVEL      vol(   0 ): 2.905E+12  Parms: UUR     MR      
 Compute Stats, Diag. #     32  WVEL      vol(   0 ): 3.000E+12  Parms: WM      LR      
 Compute Stats, Diag. #     26  THETA     vol(   0 ): 3.000E+12  Parms: SMR     MR      
 Compute Stats, Diag. #     27  SALT      vol(   0 ): 3.000E+12  Parms: SMR     MR      
 Compute Stats, Diag. #     23  ETAN      vol(   0 ): 2.000E+09  Parms: SM      M1      
 Compute Stats, Diag. #     95  RSURF     vol(   0 ): 2.000E+09  Parms: SM      M1      
 Compute Stats, Diag. #    107  ADVx_TH   vol(   0 ): 2.905E+12  Parms: UU      MR      
 Compute Stats, Diag. #    106  ADVr_TH   vol(   0 ): 3.000E+12  Parms: WM      LR      
 Compute Stats, Diag. #    124  ADVx_SLT  vol(   0 ): 2.905E+12  Parms: UU      MR      
 Compute Stats, Diag. #    123  ADVr_SLT  vol(   0 ): 3.000E+12  Parms: WM      LR      
 Compute Stats, Diag. #    105  gSinAB    vol(   0 ): 3.000E+12  Parms: SMR     MR      
(PID.TID 0000.0001) // =======================================================
(PID.TID 0000.0001) // Begin MONITOR dynamic field statistics
(PID.TID 0000.0001) // =======================================================
(PID.TID 0000.0001) %MON time_tsnumber                =                   120
(PID.TID 0000.0001) %MON time_secondsf                =   1.4400000000000E+05
(PID.TID 0000.0001) %MON dynstat_eta_max              =   2.8540139588374E+01
(PID.TID 0000.0001) %MON dynstat_eta_min              =  -2.7957431538314E+01
(PID.TID 0000.0001) %MON dynstat_eta_mean             =   4.8828125000000E-15
(PID.TID 0000.0001) %MON dynstat_eta_sd               =   1.9984766768642E+01
(PID.TID 0000.0001) %MON dynstat_eta_del2             =   4.0474107273634E+00
(PID.TID 0000.0001) %MON dynstat_uvel_max             =   4.3284392146754E+00
(PID.TID 0000.0001) %MON dynstat_uvel_min             =  -4.3440991562267E+00
(PID.TID 0000.0001) %MON dynstat_uvel_mean            =   5.4761805860104E-03
(PID.TID 0000.0001) %MON dynstat_uvel_sd              =   2.1610974457498E+00
(PID.TID 0000.0001) %MON dynstat_uvel_del2            =   1.0993708114540E-02
(PID.TID 0000.0001) %MON dynstat_vvel_max             =   0.0000000000000E+00
(PID.TID 0000.0001) %MON dynstat_vvel_min             =   0.0000000000000E+00
(PID.TID 0000.0001) %MON dynstat_vvel_mean            =   0.0000000000000E+00
(PID.TID 0000.0001) %MON dynstat_vvel_sd              =   0.0000000000000E+00
(PID.TID 0000.0001) %MON dynstat_vvel_del2            =   0.0000000000000E+00
(PID.TID 0000.0001) %MON dynstat_wvel_max             =   3.0786570430084E-02
(PID.TID 0000.0001) %MON dynstat_wvel_min             =  -3.2115525293980E-02
(PID.TID 0000.0001) %MON dynstat_wvel_mean            =   1.3245079416612E-05
(PID.TID 0000.0001) %MON dynstat_wvel_sd              =   1.6803153011377E-02
(PID.TID 0000.0001) %MON dynstat_wvel_del2            =   6.3875329616216E-04
(PID.TID 0000.0001) %MON dynstat_theta_max            =   9.0734713633964E-02
(PID.TID 0000.0001) %MON dynstat_theta_min            =   2.3122328832718E-09
(PID.TID 0000.0001) %MON dynstat_theta_mean           =   1.7624331829661E-02
(PID.TID 0000.0001) %MON dynstat_theta_sd             =   2.3556102541868E-02
(PID.TID 0000.0001) %MON dynstat_theta_del2           =   6.1449790912757E-04
(PID.TID 0000.0001) %MON dynstat_salt_max             =   7.2260201545077E-02
(PID.TID 0000.0001) %MON dynstat_salt_min             =  -8.5623360030474E-03
(PID.TID 0000.0001) %MON dynstat_salt_mean            =   1.7623653034109E-02
(PID.TID 0000.0001) %MON dynstat_salt_sd              =   1.9873265712943E-02
(PID.TID 0000.0001) %MON dynstat_salt_del2            =   4.9106700786580E-04
(PID.TID 0000.0001) %MON advcfl_uvel_max              =   5.2129189874721E-01
(PID.TID 0000.0001) %MON advcfl_vvel_max              =   0.0000000000000E+00
(PID.TID 0000.0001) %MON advcfl_wvel_max              =   3.8538630352777E-01
(PID.TID 0000.0001) %MON advcfl_W_hf_max              =   5.2053547257978E-01
(PID.TID 0000.0001) %MON pe_b_mean                    =   1.3060082521463E+00
(PID.TID 0000.0001) %MON ke_max                       =   9.3434245208494E+00
(PID.TID 0000.0001) %MON ke_mean                      =   2.2612385201126E+00
(PID.TID 0000.0001) %MON ke_vol                       =   3.0000000000000E+12
(PID.TID 0000.0001) // =======================================================
(PID.TID 0000.0001) // End MONITOR dynamic field statistics
(PID.TID 0000.0001) // =======================================================
 Computing Diagnostic #    107  ADVx_TH      Counter:      20   Parms: UU      MR      
           Vector  Mate for  ADVx_TH      Diagnostic #    108  ADVy_TH  not enabled
 Computing Diagnostic #    106  ADVr_TH      Counter:      20   Parms: WM      LR      
 Computing Diagnostic #    124  ADVx_SLT     Counter:      20   Parms: UU      MR      
           Vector  Mate for  ADVx_SLT     Diagnostic #    125  ADVy_SLT not enabled
 Computing Diagnostic #    123  ADVr_SLT     Counter:      20   Parms: WM      LR      
 Compute Stats, Diag. #     30  UVEL      vol(   0 ): 2.905E+12  Parms: UUR     MR      
 Compute Stats, Diag. #     32  WVEL      vol(   0 ): 3.000E+12  Parms: WM      LR      
 Compute Stats, Diag. #     26  THETA     vol(   0 ): 3.000E+12  Parms: SMR     MR      
 Compute Stats, Diag. #     27  SALT      vol(   0 ): 3.000E+12  Parms: SMR     MR      
 Compute Stats, Diag. #     23  ETAN      vol(   0 ): 2.000E+09  Parms: SM      M1      
 Compute Stats, Diag. #     95  RSURF     vol(   0 ): 2.000E+09  Parms: SM      M1      
 Compute Stats, Diag. #    107  ADVx_TH   vol(   0 ): 2.905E+12  Parms: UU      MR      
 Compute Stats, Diag. #    106  ADVr_TH   vol(   0 ): 3.000E+12  Parms: WM      LR      
 Compute Stats, Diag. #    124  ADVx_SLT  vol(   0 ): 2.905E+12  Parms: UU      MR      
 Compute Stats, Diag. #    123  ADVr_SLT  vol(   0 ): 3.000E+12  Parms: WM      LR      
 Compute Stats, Diag. #    105  gSinAB    vol(   0 ): 3.000E+12  Parms: SMR     MR      
 Compute Stats, Diag. #     30  UVEL      vol(   0 ): 2.905E+12  Parms: UUR     MR      
 Compute Stats, Diag. #     32  WVEL      vol(   0 ): 3.000E+12  Parms: WM      LR      
 Compute Stats, Diag. #     26  THETA     vol(   0 ): 3.000E+12  Parms: SMR     MR      
 Compute Stats, Diag. #     27  SALT      vol(   0 ): 3.000E+12  Parms: SMR     MR      
 Compute Stats, Diag. #     23  ETAN      vol(   0 ): 2.000E+09  Parms: SM      M1      
 Compute Stats, Diag. #     95  RSURF     vol(   0 ): 2.000E+09  Parms: SM      M1      
 Compute Stats, Diag. #    107  ADVx_TH   vol(   0 ): 2.905E+12  Parms: UU      MR      
 Compute Stats, Diag. #    106  ADVr_TH   vol(   0 ): 3.000E+12  Parms: WM      LR      
 Compute Stats, Diag. #    124  ADVx_SLT  vol(   0 ): 2.905E+12  Parms: UU      MR      
 Compute Stats, Diag. #    123  ADVr_SLT  vol(   0 ): 3.000E+12  Parms: WM      LR      
 Compute Stats, Diag. #    105  gSinAB    vol(   0 ): 3.000E+12  Parms: SMR     MR      
(PID.TID 0000.0001) // =======================================================
(PID.TID 0000.0001) // Begin MONITOR dynamic field statistics
(PID.TID 0000.0001) // =======================================================
(PID.TID 0000.0001) %MON time_tsnumber                =                   130
(PID.TID 0000.0001) %MON time_secondsf                =   1.5600000000000E+05
(PID.TID 0000.0001) %MON dynstat_eta_max              =   3.0953565592293E+01
(PID.TID 0000.0001) %MON dynstat_eta_min              =  -3.0269033264015E+01
(PID.TID 0000.0001) %MON dynstat_eta_mean             =   0.0000000000000E+00
(PID.TID 0000.0001) %MON dynstat_eta_sd               =   2.1651324976847E+01
(PID.TID 0000.0001) %MON dynstat_eta_del2             =   4.3860970788515E+00
(PID.TID 0000.0001) %MON dynstat_uvel_max             =   4.3284392146754E+00
(PID.TID 0000.0001) %MON dynstat_uvel_min             =  -4.3440991562267E+00
(PID.TID 0000.0001) %MON dynstat_uvel_mean            =   5.4768888145192E-03
(PID.TID 0000.0001) %MON dynstat_uvel_sd              =   2.1613005342016E+00
(PID.TID 0000.0001) %MON dynstat_uvel_del2            =   1.0993708114540E-02
(PID.TID 0000.0001) %MON dynstat_vvel_max             =   0.0000000000000E+00
(PID.TID 0000.0001) %MON dynstat_vvel_min             =   0.0000000000000E+00
(PID.TID 0000.0001) %MON dynstat_vvel_mean            =   0.0000000000000E+00
(PID.TID 0000.0001) %MON dynstat_vvel_sd              =   0.0000000000000E+00
(PID.TID 0000.0001) %MON dynstat_vvel_del2            =   0.0000000000000E+00
(PID.TID 0000.0001) %MON dynstat_wvel_max             =   3.0749518553572E-02
(PID.TID 0000.0001) %MON dynstat_wvel_min             =  -3.2188046884304E-02
(PID.TID 0000.0001) %MON dynstat_wvel_mean            =   1.3246788918596E-05
(PID.TID 0000.0001) %MON dynstat_wvel_sd              =   1.6801678480358E-02
(PID.TID 0000.0001) %MON dynstat_wvel_del2            =   6.3913937319274E-04
(PID.TID 0000.0001) %MON dynstat_theta_max            =   8.1488218461576E-02
(PID.TID 0000.0001) %MON dynstat_theta_min            =   2.5920324702312E-09
(PID.TID 0000.0001) %MON dynstat_theta_mean           =   1.7623825679061E-02
(PID.TID 0000.0001) %MON dynstat_theta_sd             =   2.2056471959387E-02
(PID.TID 0000.0001) %MON dynstat_theta_del2           =   5.6013964715568E-04
(PID.TID 0000.0001) %MON dynstat_salt_max             =   6.9013758211026E-02
(PID.TID 0000.0001) %MON dynstat_salt_min             =  -8.2062099856861E-03
(PID.TID 0000.0001) %MON dynstat_salt_mean            =   1.7623008519677E-02
(PID.TID 0000.0001) %MON dynstat_salt_sd              =   1.8689554669767E-02
(PID.TID 0000.0001) %MON dynstat_salt_del2            =   4.6728248802995E-04
(PID.TID 0000.0001) %MON advcfl_uvel_max              =   5.2129189874721E-01
(PID.TID 0000.0001) %MON advcfl_vvel_max              =   0.0000000000000E+00
(PID.TID 0000.0001) %MON advcfl_wvel_max              =   3.8625656261165E-01
(PID.TID 0000.0001) %MON advcfl_W_hf_max              =   5.2046888601369E-01
(PID.TID 0000.0001) %MON pe_b_mean                    =   1.5329101855374E+00
(PID.TID 0000.0001) %MON ke_max                       =   9.3434872954399E+00
(PID.TID 0000.0001) %MON ke_mean                      =   2.2616635394642E+00
(PID.TID 0000.0001) %MON ke_vol                       =   3.0000000000000E+12
(PID.TID 0000.0001) // =======================================================
(PID.TID 0000.0001) // End MONITOR dynamic field statistics
(PID.TID 0000.0001) // =======================================================
 Compute Stats, Diag. #     30  UVEL      vol(   0 ): 2.905E+12  Parms: UUR     MR      
 Compute Stats, Diag. #     32  WVEL      vol(   0 ): 3.000E+12  Parms: WM      LR      
 Compute Stats, Diag. #     26  THETA     vol(   0 ): 3.000E+12  Parms: SMR     MR      
 Compute Stats, Diag. #     27  SALT      vol(   0 ): 3.000E+12  Parms: SMR     MR      
 Compute Stats, Diag. #     23  ETAN      vol(   0 ): 2.000E+09  Parms: SM      M1      
 Compute Stats, Diag. #     95  RSURF     vol(   0 ): 2.000E+09  Parms: SM      M1      
 Compute Stats, Diag. #    107  ADVx_TH   vol(   0 ): 2.905E+12  Parms: UU      MR      
 Compute Stats, Diag. #    106  ADVr_TH   vol(   0 ): 3.000E+12  Parms: WM      LR      
 Compute Stats, Diag. #    124  ADVx_SLT  vol(   0 ): 2.905E+12  Parms: UU      MR      
 Compute Stats, Diag. #    123  ADVr_SLT  vol(   0 ): 3.000E+12  Parms: WM      LR      
 Compute Stats, Diag. #    105  gSinAB    vol(   0 ): 3.000E+12  Parms: SMR     MR      
 Compute Stats, Diag. #     30  UVEL      vol(   0 ): 2.905E+12  Parms: UUR     MR      
 Compute Stats, Diag. #     32  WVEL      vol(   0 ): 3.000E+12  Parms: WM      LR      
 Compute Stats, Diag. #     26  THETA     vol(   0 ): 3.000E+12  Parms: SMR     MR      
 Compute Stats, Diag. #     27  SALT      vol(   0 ): 3.000E+12  Parms: SMR     MR      
 Compute Stats, Diag. #     23  ETAN      vol(   0 ): 2.000E+09  Parms: SM      M1      
 Compute Stats, Diag. #     95  RSURF     vol(   0 ): 2.000E+09  Parms: SM      M1      
 Compute Stats, Diag. #    107  ADVx_TH   vol(   0 ): 2.905E+12  Parms: UU      MR      
 Compute Stats, Diag. #    106  ADVr_TH   vol(   0 ): 3.000E+12  Parms: WM      LR      
 Compute Stats, Diag. #    124  ADVx_SLT  vol(   0 ): 2.905E+12  Parms: UU      MR      
 Compute Stats, Diag. #    123  ADVr_SLT  vol(   0 ): 3.000E+12  Parms: WM      LR      
 Compute Stats, Diag. #    105  gSinAB    vol(   0 ): 3.000E+12  Parms: SMR     MR      
(PID.TID 0000.0001) // =======================================================
(PID.TID 0000.0001) // Begin MONITOR dynamic field statistics
(PID.TID 0000.0001) // =======================================================
(PID.TID 0000.0001) %MON time_tsnumber                =                   140
(PID.TID 0000.0001) %MON time_secondsf                =   1.6800000000000E+05
(PID.TID 0000.0001) %MON dynstat_eta_max              =   3.3372440894221E+01
(PID.TID 0000.0001) %MON dynstat_eta_min              =  -3.2577852939471E+01
(PID.TID 0000.0001) %MON dynstat_eta_mean             =   0.0000000000000E+00
(PID.TID 0000.0001) %MON dynstat_eta_sd               =   2.3318068076438E+01
(PID.TID 0000.0001) %MON dynstat_eta_del2             =   4.7250051204117E+00
(PID.TID 0000.0001) %MON dynstat_uvel_max             =   4.3284392146754E+00
(PID.TID 0000.0001) %MON dynstat_uvel_min             =  -4.3440991562267E+00
(PID.TID 0000.0001) %MON dynstat_uvel_mean            =   5.4775922529561E-03
(PID.TID 0000.0001) %MON dynstat_uvel_sd              =   2.1615021912216E+00
(PID.TID 0000.0001) %MON dynstat_uvel_del2            =   1.0993708114540E-02
(PID.TID 0000.0001) %MON dynstat_vvel_max             =   0.0000000000000E+00
(PID.TID 0000.0001) %MON dynstat_vvel_min             =   0.0000000000000E+00
(PID.TID 0000.0001) %MON dynstat_vvel_mean            =   0.0000000000000E+00
(PID.TID 0000.0001) %MON dynstat_vvel_sd              =   0.0000000000000E+00
(PID.TID 0000.0001) %MON dynstat_vvel_del2            =   0.0000000000000E+00
(PID.TID 0000.0001) %MON dynstat_wvel_max             =   3.0712510794993E-02
(PID.TID 0000.0001) %MON dynstat_wvel_min             =  -3.2260718327708E-02
(PID.TID 0000.0001) %MON dynstat_wvel_mean            =   1.3248486833492E-05
(PID.TID 0000.0001) %MON dynstat_wvel_sd              =   1.6800221423851E-02
(PID.TID 0000.0001) %MON dynstat_wvel_del2            =   6.3952808139350E-04
(PID.TID 0000.0001) %MON dynstat_theta_max            =   7.6775830874664E-02
(PID.TID 0000.0001) %MON dynstat_theta_min            =   5.9843541083576E-06
(PID.TID 0000.0001) %MON dynstat_theta_mean           =   1.7623387219289E-02
(PID.TID 0000.0001) %MON dynstat_theta_sd             =   2.0764369499012E-02
(PID.TID 0000.0001) %MON dynstat_theta_del2           =   5.6002827583962E-04
(PID.TID 0000.0001) %MON dynstat_salt_max             =   6.6277289487042E-02
(PID.TID 0000.0001) %MON dynstat_salt_min             =  -9.1345000437295E-03
(PID.TID 0000.0001) %MON dynstat_salt_mean            =   1.7622476066285E-02
(PID.TID 0000.0001) %MON dynstat_salt_sd              =   1.7510152515758E-02
(PID.TID 0000.0001) %MON dynstat_salt_del2            =   4.6139992437862E-04
(PID.TID 0000.0001) %MON advcfl_uvel_max              =   5.2129189874721E-01
(PID.TID 0000.0001) %MON advcfl_vvel_max              =   0.0000000000000E+00
(PID.TID 0000.0001) %MON advcfl_wvel_max              =   3.8712861993250E-01
(PID.TID 0000.0001) %MON advcfl_W_hf_max              =   5.2040233478283E-01
(PID.TID 0000.0001) %MON pe_b_mean                    =   1.7780046171328E+00
(PID.TID 0000.0001) %MON ke_max                       =   9.3435502225504E+00
(PID.TID 0000.0001) %MON ke_mean                      =   2.2620856026640E+00
(PID.TID 0000.0001) %MON ke_vol                       =   3.0000000000000E+12
(PID.TID 0000.0001) // =======================================================
(PID.TID 0000.0001) // End MONITOR dynamic field statistics
(PID.TID 0000.0001) // =======================================================
 Computing Diagnostic #    107  ADVx_TH      Counter:      20   Parms: UU      MR      
           Vector  Mate for  ADVx_TH      Diagnostic #    108  ADVy_TH  not enabled
 Computing Diagnostic #    106  ADVr_TH      Counter:      20   Parms: WM      LR      
 Computing Diagnostic #    124  ADVx_SLT     Counter:      20   Parms: UU      MR      
           Vector  Mate for  ADVx_SLT     Diagnostic #    125  ADVy_SLT not enabled
 Computing Diagnostic #    123  ADVr_SLT     Counter:      20   Parms: WM      LR      
 Compute Stats, Diag. #     30  UVEL      vol(   0 ): 2.905E+12  Parms: UUR     MR      
 Compute Stats, Diag. #     32  WVEL      vol(   0 ): 3.000E+12  Parms: WM      LR      
 Compute Stats, Diag. #     26  THETA     vol(   0 ): 3.000E+12  Parms: SMR     MR      
 Compute Stats, Diag. #     27  SALT      vol(   0 ): 3.000E+12  Parms: SMR     MR      
 Compute Stats, Diag. #     23  ETAN      vol(   0 ): 2.000E+09  Parms: SM      M1      
 Compute Stats, Diag. #     95  RSURF     vol(   0 ): 2.000E+09  Parms: SM      M1      
 Compute Stats, Diag. #    107  ADVx_TH   vol(   0 ): 2.905E+12  Parms: UU      MR      
 Compute Stats, Diag. #    106  ADVr_TH   vol(   0 ): 3.000E+12  Parms: WM      LR      
 Compute Stats, Diag. #    124  ADVx_SLT  vol(   0 ): 2.905E+12  Parms: UU      MR      
 Compute Stats, Diag. #    123  ADVr_SLT  vol(   0 ): 3.000E+12  Parms: WM      LR      
 Compute Stats, Diag. #    105  gSinAB    vol(   0 ): 3.000E+12  Parms: SMR     MR      
 Compute Stats, Diag. #     30  UVEL      vol(   0 ): 2.905E+12  Parms: UUR     MR      
 Compute Stats, Diag. #     32  WVEL      vol(   0 ): 3.000E+12  Parms: WM      LR      
 Compute Stats, Diag. #     26  THETA     vol(   0 ): 3.000E+12  Parms: SMR     MR      
 Compute Stats, Diag. #     27  SALT      vol(   0 ): 3.000E+12  Parms: SMR     MR      
 Compute Stats, Diag. #     23  ETAN      vol(   0 ): 2.000E+09  Parms: SM      M1      
 Compute Stats, Diag. #     95  RSURF     vol(   0 ): 2.000E+09  Parms: SM      M1      
 Compute Stats, Diag. #    107  ADVx_TH   vol(   0 ): 2.905E+12  Parms: UU      MR      
 Compute Stats, Diag. #    106  ADVr_TH   vol(   0 ): 3.000E+12  Parms: WM      LR      
 Compute Stats, Diag. #    124  ADVx_SLT  vol(   0 ): 2.905E+12  Parms: UU      MR      
 Compute Stats, Diag. #    123  ADVr_SLT  vol(   0 ): 3.000E+12  Parms: WM      LR      
 Compute Stats, Diag. #    105  gSinAB    vol(   0 ): 3.000E+12  Parms: SMR     MR      
(PID.TID 0000.0001) // =======================================================
(PID.TID 0000.0001) // Begin MONITOR dynamic field statistics
(PID.TID 0000.0001) // =======================================================
(PID.TID 0000.0001) %MON time_tsnumber                =                   150
(PID.TID 0000.0001) %MON time_secondsf                =   1.8000000000000E+05
(PID.TID 0000.0001) %MON dynstat_eta_max              =   3.5796776751417E+01
(PID.TID 0000.0001) %MON dynstat_eta_min              =  -3.4883893877420E+01
(PID.TID 0000.0001) %MON dynstat_eta_mean             =  -7.3242187500000E-15
(PID.TID 0000.0001) %MON dynstat_eta_sd               =   2.4984997419702E+01
(PID.TID 0000.0001) %MON dynstat_eta_del2             =   5.0641361409466E+00
(PID.TID 0000.0001) %MON dynstat_uvel_max             =   4.3284392146754E+00
(PID.TID 0000.0001) %MON dynstat_uvel_min             =  -4.3440991562267E+00
(PID.TID 0000.0001) %MON dynstat_uvel_mean            =   5.4782908989831E-03
(PID.TID 0000.0001) %MON dynstat_uvel_sd              =   2.1617024165197E+00
(PID.TID 0000.0001) %MON dynstat_uvel_del2            =   1.0993708114540E-02
(PID.TID 0000.0001) %MON dynstat_vvel_max             =   0.0000000000000E+00
(PID.TID 0000.0001) %MON dynstat_vvel_min             =   0.0000000000000E+00
(PID.TID 0000.0001) %MON dynstat_vvel_mean            =   0.0000000000000E+00
(PID.TID 0000.0001) %MON dynstat_vvel_sd              =   0.0000000000000E+00
(PID.TID 0000.0001) %MON dynstat_vvel_del2            =   0.0000000000000E+00
(PID.TID 0000.0001) %MON dynstat_wvel_max             =   3.0675547104974E-02
(PID.TID 0000.0001) %MON dynstat_wvel_min             =  -3.2333539867019E-02
(PID.TID 0000.0001) %MON dynstat_wvel_mean            =   1.3250173155682E-05
(PID.TID 0000.0001) %MON dynstat_wvel_sd              =   1.6798781858015E-02
(PID.TID 0000.0001) %MON dynstat_wvel_del2            =   6.3991942492583E-04
(PID.TID 0000.0001) %MON dynstat_theta_max            =   7.3555118293461E-02
(PID.TID 0000.0001) %MON dynstat_theta_min            =   6.1074909294412E-06
(PID.TID 0000.0001) %MON dynstat_theta_mean           =   1.7623187355465E-02
(PID.TID 0000.0001) %MON dynstat_theta_sd             =   1.9260788967226E-02
(PID.TID 0000.0001) %MON dynstat_theta_del2           =   5.8292832955636E-04
(PID.TID 0000.0001) %MON dynstat_salt_max             =   6.2955105579386E-02
(PID.TID 0000.0001) %MON dynstat_salt_min             =  -1.0695474052551E-02
(PID.TID 0000.0001) %MON dynstat_salt_mean            =   1.7622224294675E-02
(PID.TID 0000.0001) %MON dynstat_salt_sd              =   1.6249726205871E-02
(PID.TID 0000.0001) %MON dynstat_salt_del2            =   4.7752165236751E-04
(PID.TID 0000.0001) %MON advcfl_uvel_max              =   5.2129189874721E-01
(PID.TID 0000.0001) %MON advcfl_vvel_max              =   0.0000000000000E+00
(PID.TID 0000.0001) %MON advcfl_wvel_max              =   3.8800247840423E-01
(PID.TID 0000.0001) %MON advcfl_W_hf_max              =   5.2033581918185E-01
(PID.TID 0000.0001) %MON pe_b_mean                    =   2.0412978141245E+00
(PID.TID 0000.0001) %MON ke_max                       =   9.3436133020570E+00
(PID.TID 0000.0001) %MON ke_mean                      =   2.2625047082659E+00
(PID.TID 0000.0001) %MON ke_vol                       =   3.0000000000000E+12
(PID.TID 0000.0001) // =======================================================
(PID.TID 0000.0001) // End MONITOR dynamic field statistics
(PID.TID 0000.0001) // =======================================================
 Compute Stats, Diag. #     30  UVEL      vol(   0 ): 2.905E+12  Parms: UUR     MR      
 Compute Stats, Diag. #     32  WVEL      vol(   0 ): 3.000E+12  Parms: WM      LR      
 Compute Stats, Diag. #     26  THETA     vol(   0 ): 3.000E+12  Parms: SMR     MR      
 Compute Stats, Diag. #     27  SALT      vol(   0 ): 3.000E+12  Parms: SMR     MR      
 Compute Stats, Diag. #     23  ETAN      vol(   0 ): 2.000E+09  Parms: SM      M1      
 Compute Stats, Diag. #     95  RSURF     vol(   0 ): 2.000E+09  Parms: SM      M1      
 Compute Stats, Diag. #    107  ADVx_TH   vol(   0 ): 2.905E+12  Parms: UU      MR      
 Compute Stats, Diag. #    106  ADVr_TH   vol(   0 ): 3.000E+12  Parms: WM      LR      
 Compute Stats, Diag. #    124  ADVx_SLT  vol(   0 ): 2.905E+12  Parms: UU      MR      
 Compute Stats, Diag. #    123  ADVr_SLT  vol(   0 ): 3.000E+12  Parms: WM      LR      
 Compute Stats, Diag. #    105  gSinAB    vol(   0 ): 3.000E+12  Parms: SMR     MR      
 Compute Stats, Diag. #     30  UVEL      vol(   0 ): 2.905E+12  Parms: UUR     MR      
 Compute Stats, Diag. #     32  WVEL      vol(   0 ): 3.000E+12  Parms: WM      LR      
 Compute Stats, Diag. #     26  THETA     vol(   0 ): 3.000E+12  Parms: SMR     MR      
 Compute Stats, Diag. #     27  SALT      vol(   0 ): 3.000E+12  Parms: SMR     MR      
 Compute Stats, Diag. #     23  ETAN      vol(   0 ): 2.000E+09  Parms: SM      M1      
 Compute Stats, Diag. #     95  RSURF     vol(   0 ): 2.000E+09  Parms: SM      M1      
 Compute Stats, Diag. #    107  ADVx_TH   vol(   0 ): 2.905E+12  Parms: UU      MR      
 Compute Stats, Diag. #    106  ADVr_TH   vol(   0 ): 3.000E+12  Parms: WM      LR      
 Compute Stats, Diag. #    124  ADVx_SLT  vol(   0 ): 2.905E+12  Parms: UU      MR      
 Compute Stats, Diag. #    123  ADVr_SLT  vol(   0 ): 3.000E+12  Parms: WM      LR      
 Compute Stats, Diag. #    105  gSinAB    vol(   0 ): 3.000E+12  Parms: SMR     MR      
(PID.TID 0000.0001) // =======================================================
(PID.TID 0000.0001) // Begin MONITOR dynamic field statistics
(PID.TID 0000.0001) // =======================================================
(PID.TID 0000.0001) %MON time_tsnumber                =                   160
(PID.TID 0000.0001) %MON time_secondsf                =   1.9200000000000E+05
(PID.TID 0000.0001) %MON dynstat_eta_max              =   3.8226584439368E+01
(PID.TID 0000.0001) %MON dynstat_eta_min              =  -3.7187159386893E+01
(PID.TID 0000.0001) %MON dynstat_eta_mean             =   2.4414062500000E-15
(PID.TID 0000.0001) %MON dynstat_eta_sd               =   2.6652114360720E+01
(PID.TID 0000.0001) %MON dynstat_eta_del2             =   5.4034914314473E+00
(PID.TID 0000.0001) %MON dynstat_uvel_max             =   4.3284392146754E+00
(PID.TID 0000.0001) %MON dynstat_uvel_min             =  -4.3440991562267E+00
(PID.TID 0000.0001) %MON dynstat_uvel_mean            =   5.4789847502805E-03
(PID.TID 0000.0001) %MON dynstat_uvel_sd              =   2.1619012098103E+00
(PID.TID 0000.0001) %MON dynstat_uvel_del2            =   1.0993708114540E-02
(PID.TID 0000.0001) %MON dynstat_vvel_max             =   0.0000000000000E+00
(PID.TID 0000.0001) %MON dynstat_vvel_min             =   0.0000000000000E+00
(PID.TID 0000.0001) %MON dynstat_vvel_mean            =   0.0000000000000E+00
(PID.TID 0000.0001) %MON dynstat_vvel_sd              =   0.0000000000000E+00
(PID.TID 0000.0001) %MON dynstat_vvel_del2            =   0.0000000000000E+00
(PID.TID 0000.0001) %MON dynstat_wvel_max             =   3.0638627434185E-02
(PID.TID 0000.0001) %MON dynstat_wvel_min             =  -3.2406511745139E-02
(PID.TID 0000.0001) %MON dynstat_wvel_mean            =   1.3251847879538E-05
(PID.TID 0000.0001) %MON dynstat_wvel_sd              =   1.6797359799036E-02
(PID.TID 0000.0001) %MON dynstat_wvel_del2            =   6.4031340796103E-04
(PID.TID 0000.0001) %MON dynstat_theta_max            =   6.6153779901275E-02
(PID.TID 0000.0001) %MON dynstat_theta_min            =   1.2720818251022E-05
(PID.TID 0000.0001) %MON dynstat_theta_mean           =   1.7623249718743E-02
(PID.TID 0000.0001) %MON dynstat_theta_sd             =   1.7720862221139E-02
(PID.TID 0000.0001) %MON dynstat_theta_del2           =   6.0182087691718E-04
(PID.TID 0000.0001) %MON dynstat_salt_max             =   5.5357200244742E-02
(PID.TID 0000.0001) %MON dynstat_salt_min             =  -9.5611672906399E-03
(PID.TID 0000.0001) %MON dynstat_salt_mean            =   1.7622260726057E-02
(PID.TID 0000.0001) %MON dynstat_salt_sd              =   1.4889019669629E-02
(PID.TID 0000.0001) %MON dynstat_salt_del2            =   4.9531094767819E-04
(PID.TID 0000.0001) %MON advcfl_uvel_max              =   5.2129189874721E-01
(PID.TID 0000.0001) %MON advcfl_vvel_max              =   0.0000000000000E+00
(PID.TID 0000.0001) %MON advcfl_wvel_max              =   3.8887814094167E-01
(PID.TID 0000.0001) %MON advcfl_W_hf_max              =   5.2026933950420E-01
(PID.TID 0000.0001) %MON pe_b_mean                    =   2.3227961036629E+00
(PID.TID 0000.0001) %MON ke_max                       =   9.3436765338229E+00
(PID.TID 0000.0001) %MON ke_mean                      =   2.2629208548393E+00
(PID.TID 0000.0001) %MON ke_vol                       =   3.0000000000000E+12
(PID.TID 0000.0001) // =======================================================
(PID.TID 0000.0001) // End MONITOR dynamic field statistics
(PID.TID 0000.0001) // =======================================================
 Computing Diagnostic #    107  ADVx_TH      Counter:      20   Parms: UU      MR      
           Vector  Mate for  ADVx_TH      Diagnostic #    108  ADVy_TH  not enabled
 Computing Diagnostic #    106  ADVr_TH      Counter:      20   Parms: WM      LR      
 Computing Diagnostic #    124  ADVx_SLT     Counter:      20   Parms: UU      MR      
           Vector  Mate for  ADVx_SLT     Diagnostic #    125  ADVy_SLT not enabled
 Computing Diagnostic #    123  ADVr_SLT     Counter:      20   Parms: WM      LR      
 Compute Stats, Diag. #     30  UVEL      vol(   0 ): 2.905E+12  Parms: UUR     MR      
 Compute Stats, Diag. #     32  WVEL      vol(   0 ): 3.000E+12  Parms: WM      LR      
 Compute Stats, Diag. #     26  THETA     vol(   0 ): 3.000E+12  Parms: SMR     MR      
 Compute Stats, Diag. #     27  SALT      vol(   0 ): 3.000E+12  Parms: SMR     MR      
 Compute Stats, Diag. #     23  ETAN      vol(   0 ): 2.000E+09  Parms: SM      M1      
 Compute Stats, Diag. #     95  RSURF     vol(   0 ): 2.000E+09  Parms: SM      M1      
 Compute Stats, Diag. #    107  ADVx_TH   vol(   0 ): 2.905E+12  Parms: UU      MR      
 Compute Stats, Diag. #    106  ADVr_TH   vol(   0 ): 3.000E+12  Parms: WM      LR      
 Compute Stats, Diag. #    124  ADVx_SLT  vol(   0 ): 2.905E+12  Parms: UU      MR      
 Compute Stats, Diag. #    123  ADVr_SLT  vol(   0 ): 3.000E+12  Parms: WM      LR      
 Compute Stats, Diag. #    105  gSinAB    vol(   0 ): 3.000E+12  Parms: SMR     MR      
 Compute Stats, Diag. #     30  UVEL      vol(   0 ): 2.905E+12  Parms: UUR     MR      
 Compute Stats, Diag. #     32  WVEL      vol(   0 ): 3.000E+12  Parms: WM      LR      
 Compute Stats, Diag. #     26  THETA     vol(   0 ): 3.000E+12  Parms: SMR     MR      
 Compute Stats, Diag. #     27  SALT      vol(   0 ): 3.000E+12  Parms: SMR     MR      
 Compute Stats, Diag. #     23  ETAN      vol(   0 ): 2.000E+09  Parms: SM      M1      
 Compute Stats, Diag. #     95  RSURF     vol(   0 ): 2.000E+09  Parms: SM      M1      
 Compute Stats, Diag. #    107  ADVx_TH   vol(   0 ): 2.905E+12  Parms: UU      MR      
 Compute Stats, Diag. #    106  ADVr_TH   vol(   0 ): 3.000E+12  Parms: WM      LR      
 Compute Stats, Diag. #    124  ADVx_SLT  vol(   0 ): 2.905E+12  Parms: UU      MR      
 Compute Stats, Diag. #    123  ADVr_SLT  vol(   0 ): 3.000E+12  Parms: WM      LR      
 Compute Stats, Diag. #    105  gSinAB    vol(   0 ): 3.000E+12  Parms: SMR     MR      
(PID.TID 0000.0001) // =======================================================
(PID.TID 0000.0001) // Begin MONITOR dynamic field statistics
(PID.TID 0000.0001) // =======================================================
(PID.TID 0000.0001) %MON time_tsnumber                =                   170
(PID.TID 0000.0001) %MON time_secondsf                =   2.0400000000000E+05
(PID.TID 0000.0001) %MON dynstat_eta_max              =   4.0661875251792E+01
(PID.TID 0000.0001) %MON dynstat_eta_min              =  -3.9487652773212E+01
(PID.TID 0000.0001) %MON dynstat_eta_mean             =  -4.8828125000000E-15
(PID.TID 0000.0001) %MON dynstat_eta_sd               =   2.8319420255364E+01
(PID.TID 0000.0001) %MON dynstat_eta_del2             =   5.7430722849986E+00
(PID.TID 0000.0001) %MON dynstat_uvel_max             =   4.3284392146754E+00
(PID.TID 0000.0001) %MON dynstat_uvel_min             =  -4.3440991562267E+00
(PID.TID 0000.0001) %MON dynstat_uvel_mean            =   5.4796738045468E-03
(PID.TID 0000.0001) %MON dynstat_uvel_sd              =   2.1620985708125E+00
(PID.TID 0000.0001) %MON dynstat_uvel_del2            =   1.0993708114540E-02
(PID.TID 0000.0001) %MON dynstat_vvel_max             =   0.0000000000000E+00
(PID.TID 0000.0001) %MON dynstat_vvel_min             =   0.0000000000000E+00
(PID.TID 0000.0001) %MON dynstat_vvel_mean            =   0.0000000000000E+00
(PID.TID 0000.0001) %MON dynstat_vvel_sd              =   0.0000000000000E+00
(PID.TID 0000.0001) %MON dynstat_vvel_del2            =   0.0000000000000E+00
(PID.TID 0000.0001) %MON dynstat_wvel_max             =   3.0601751733334E-02
(PID.TID 0000.0001) %MON dynstat_wvel_min             =  -3.2479634205046E-02
(PID.TID 0000.0001) %MON dynstat_wvel_mean            =   1.3253510999523E-05
(PID.TID 0000.0001) %MON dynstat_wvel_sd              =   1.6795955263131E-02
(PID.TID 0000.0001) %MON dynstat_wvel_del2            =   6.4071003468030E-04
(PID.TID 0000.0001) %MON dynstat_theta_max            =   5.6131758830860E-02
(PID.TID 0000.0001) %MON dynstat_theta_min            =   1.6477865943882E-05
(PID.TID 0000.0001) %MON dynstat_theta_mean           =   1.7623471531570E-02
(PID.TID 0000.0001) %MON dynstat_theta_sd             =   1.6319009022160E-02
(PID.TID 0000.0001) %MON dynstat_theta_del2           =   5.8745379751385E-04
(PID.TID 0000.0001) %MON dynstat_salt_max             =   4.8678905517512E-02
(PID.TID 0000.0001) %MON dynstat_salt_min             =  -8.6952243995171E-03
(PID.TID 0000.0001) %MON dynstat_salt_mean            =   1.7622470255199E-02
(PID.TID 0000.0001) %MON dynstat_salt_sd              =   1.3495667336118E-02
(PID.TID 0000.0001) %MON dynstat_salt_del2            =   4.9373831991889E-04
(PID.TID 0000.0001) %MON advcfl_uvel_max              =   5.2129189874721E-01
(PID.TID 0000.0001) %MON advcfl_vvel_max              =   0.0000000000000E+00
(PID.TID 0000.0001) %MON advcfl_wvel_max              =   3.8975561046055E-01
(PID.TID 0000.0001) %MON advcfl_W_hf_max              =   5.2020289604220E-01
(PID.TID 0000.0001) %MON pe_b_mean                    =   2.6225058729718E+00
(PID.TID 0000.0001) %MON ke_max                       =   9.3437399176990E+00
(PID.TID 0000.0001) %MON ke_mean                      =   2.2633340409690E+00
(PID.TID 0000.0001) %MON ke_vol                       =   3.0000000000000E+12
(PID.TID 0000.0001) // =======================================================
(PID.TID 0000.0001) // End MONITOR dynamic field statistics
(PID.TID 0000.0001) // =======================================================
 Compute Stats, Diag. #     30  UVEL      vol(   0 ): 2.905E+12  Parms: UUR     MR      
 Compute Stats, Diag. #     32  WVEL      vol(   0 ): 3.000E+12  Parms: WM      LR      
 Compute Stats, Diag. #     26  THETA     vol(   0 ): 3.000E+12  Parms: SMR     MR      
 Compute Stats, Diag. #     27  SALT      vol(   0 ): 3.000E+12  Parms: SMR     MR      
 Compute Stats, Diag. #     23  ETAN      vol(   0 ): 2.000E+09  Parms: SM      M1      
 Compute Stats, Diag. #     95  RSURF     vol(   0 ): 2.000E+09  Parms: SM      M1      
 Compute Stats, Diag. #    107  ADVx_TH   vol(   0 ): 2.905E+12  Parms: UU      MR      
 Compute Stats, Diag. #    106  ADVr_TH   vol(   0 ): 3.000E+12  Parms: WM      LR      
 Compute Stats, Diag. #    124  ADVx_SLT  vol(   0 ): 2.905E+12  Parms: UU      MR      
 Compute Stats, Diag. #    123  ADVr_SLT  vol(   0 ): 3.000E+12  Parms: WM      LR      
 Compute Stats, Diag. #    105  gSinAB    vol(   0 ): 3.000E+12  Parms: SMR     MR      
 Compute Stats, Diag. #     30  UVEL      vol(   0 ): 2.905E+12  Parms: UUR     MR      
 Compute Stats, Diag. #     32  WVEL      vol(   0 ): 3.000E+12  Parms: WM      LR      
 Compute Stats, Diag. #     26  THETA     vol(   0 ): 3.000E+12  Parms: SMR     MR      
 Compute Stats, Diag. #     27  SALT      vol(   0 ): 3.000E+12  Parms: SMR     MR      
 Compute Stats, Diag. #     23  ETAN      vol(   0 ): 2.000E+09  Parms: SM      M1      
 Compute Stats, Diag. #     95  RSURF     vol(   0 ): 2.000E+09  Parms: SM      M1      
 Compute Stats, Diag. #    107  ADVx_TH   vol(   0 ): 2.905E+12  Parms: UU      MR      
 Compute Stats, Diag. #    106  ADVr_TH   vol(   0 ): 3.000E+12  Parms: WM      LR      
 Compute Stats, Diag. #    124  ADVx_SLT  vol(   0 ): 2.905E+12  Parms: UU      MR      
 Compute Stats, Diag. #    123  ADVr_SLT  vol(   0 ): 3.000E+12  Parms: WM      LR      
 Compute Stats, Diag. #    105  gSinAB    vol(   0 ): 3.000E+12  Parms: SMR     MR      
(PID.TID 0000.0001) // =======================================================
(PID.TID 0000.0001) // Begin MONITOR dynamic field statistics
(PID.TID 0000.0001) // =======================================================
(PID.TID 0000.0001) %MON time_tsnumber                =                   180
(PID.TID 0000.0001) %MON time_secondsf                =   2.1600000000000E+05
(PID.TID 0000.0001) %MON dynstat_eta_max              =   4.3102660500652E+01
(PID.TID 0000.0001) %MON dynstat_eta_min              =  -4.1785377338003E+01
(PID.TID 0000.0001) %MON dynstat_eta_mean             =   0.0000000000000E+00
(PID.TID 0000.0001) %MON dynstat_eta_sd               =   2.9986916461303E+01
(PID.TID 0000.0001) %MON dynstat_eta_del2             =   6.0828799967854E+00
(PID.TID 0000.0001) %MON dynstat_uvel_max             =   4.3284392146754E+00
(PID.TID 0000.0001) %MON dynstat_uvel_min             =  -4.3440991562267E+00
(PID.TID 0000.0001) %MON dynstat_uvel_mean            =   5.4803580594967E-03
(PID.TID 0000.0001) %MON dynstat_uvel_sd              =   2.1622944992501E+00
(PID.TID 0000.0001) %MON dynstat_uvel_del2            =   1.0993708114540E-02
(PID.TID 0000.0001) %MON dynstat_vvel_max             =   0.0000000000000E+00
(PID.TID 0000.0001) %MON dynstat_vvel_min             =   0.0000000000000E+00
(PID.TID 0000.0001) %MON dynstat_vvel_mean            =   0.0000000000000E+00
(PID.TID 0000.0001) %MON dynstat_vvel_sd              =   0.0000000000000E+00
(PID.TID 0000.0001) %MON dynstat_vvel_del2            =   0.0000000000000E+00
(PID.TID 0000.0001) %MON dynstat_wvel_max             =   3.0564919953170E-02
(PID.TID 0000.0001) %MON dynstat_wvel_min             =  -3.2552907489789E-02
(PID.TID 0000.0001) %MON dynstat_wvel_mean            =   1.3255162510118E-05
(PID.TID 0000.0001) %MON dynstat_wvel_sd              =   1.6794568266546E-02
(PID.TID 0000.0001) %MON dynstat_wvel_del2            =   6.4110930927480E-04
(PID.TID 0000.0001) %MON dynstat_theta_max            =   5.4600882367816E-02
(PID.TID 0000.0001) %MON dynstat_theta_min            =   2.2264111042992E-05
(PID.TID 0000.0001) %MON dynstat_theta_mean           =   1.7623723478206E-02
(PID.TID 0000.0001) %MON dynstat_theta_sd             =   1.5013635203575E-02
(PID.TID 0000.0001) %MON dynstat_theta_del2           =   5.1215484900482E-04
(PID.TID 0000.0001) %MON dynstat_salt_max             =   4.7759473149654E-02
(PID.TID 0000.0001) %MON dynstat_salt_min             =  -9.7456872016469E-03
(PID.TID 0000.0001) %MON dynstat_salt_mean            =   1.7622701963821E-02
(PID.TID 0000.0001) %MON dynstat_salt_sd              =   1.2173394488288E-02
(PID.TID 0000.0001) %MON dynstat_salt_del2            =   4.6457558336462E-04
(PID.TID 0000.0001) %MON advcfl_uvel_max              =   5.2129189874721E-01
(PID.TID 0000.0001) %MON advcfl_vvel_max              =   0.0000000000000E+00
(PID.TID 0000.0001) %MON advcfl_wvel_max              =   3.9063488987747E-01
(PID.TID 0000.0001) %MON advcfl_W_hf_max              =   5.2013648908700E-01
(PID.TID 0000.0001) %MON pe_b_mean                    =   2.9404335694629E+00
(PID.TID 0000.0001) %MON ke_max                       =   9.3438034535232E+00
(PID.TID 0000.0001) %MON ke_mean                      =   2.2637442652554E+00
(PID.TID 0000.0001) %MON ke_vol                       =   3.0000000000000E+12
(PID.TID 0000.0001) // =======================================================
(PID.TID 0000.0001) // End MONITOR dynamic field statistics
(PID.TID 0000.0001) // =======================================================
 Computing Diagnostic #    107  ADVx_TH      Counter:      20   Parms: UU      MR      
           Vector  Mate for  ADVx_TH      Diagnostic #    108  ADVy_TH  not enabled
 Computing Diagnostic #    106  ADVr_TH      Counter:      20   Parms: WM      LR      
 Computing Diagnostic #    124  ADVx_SLT     Counter:      20   Parms: UU      MR      
           Vector  Mate for  ADVx_SLT     Diagnostic #    125  ADVy_SLT not enabled
 Computing Diagnostic #    123  ADVr_SLT     Counter:      20   Parms: WM      LR      
 Compute Stats, Diag. #     30  UVEL      vol(   0 ): 2.905E+12  Parms: UUR     MR      
 Compute Stats, Diag. #     32  WVEL      vol(   0 ): 3.000E+12  Parms: WM      LR      
 Compute Stats, Diag. #     26  THETA     vol(   0 ): 3.000E+12  Parms: SMR     MR      
 Compute Stats, Diag. #     27  SALT      vol(   0 ): 3.000E+12  Parms: SMR     MR      
 Compute Stats, Diag. #     23  ETAN      vol(   0 ): 2.000E+09  Parms: SM      M1      
 Compute Stats, Diag. #     95  RSURF     vol(   0 ): 2.000E+09  Parms: SM      M1      
 Compute Stats, Diag. #    107  ADVx_TH   vol(   0 ): 2.905E+12  Parms: UU      MR      
 Compute Stats, Diag. #    106  ADVr_TH   vol(   0 ): 3.000E+12  Parms: WM      LR      
 Compute Stats, Diag. #    124  ADVx_SLT  vol(   0 ): 2.905E+12  Parms: UU      MR      
 Compute Stats, Diag. #    123  ADVr_SLT  vol(   0 ): 3.000E+12  Parms: WM      LR      
 Compute Stats, Diag. #    105  gSinAB    vol(   0 ): 3.000E+12  Parms: SMR     MR      
 Compute Stats, Diag. #     30  UVEL      vol(   0 ): 2.905E+12  Parms: UUR     MR      
 Compute Stats, Diag. #     32  WVEL      vol(   0 ): 3.000E+12  Parms: WM      LR      
 Compute Stats, Diag. #     26  THETA     vol(   0 ): 3.000E+12  Parms: SMR     MR      
 Compute Stats, Diag. #     27  SALT      vol(   0 ): 3.000E+12  Parms: SMR     MR      
 Compute Stats, Diag. #     23  ETAN      vol(   0 ): 2.000E+09  Parms: SM      M1      
 Compute Stats, Diag. #     95  RSURF     vol(   0 ): 2.000E+09  Parms: SM      M1      
 Compute Stats, Diag. #    107  ADVx_TH   vol(   0 ): 2.905E+12  Parms: UU      MR      
 Compute Stats, Diag. #    106  ADVr_TH   vol(   0 ): 3.000E+12  Parms: WM      LR      
 Compute Stats, Diag. #    124  ADVx_SLT  vol(   0 ): 2.905E+12  Parms: UU      MR      
 Compute Stats, Diag. #    123  ADVr_SLT  vol(   0 ): 3.000E+12  Parms: WM      LR      
 Compute Stats, Diag. #    105  gSinAB    vol(   0 ): 3.000E+12  Parms: SMR     MR      
(PID.TID 0000.0001) // =======================================================
(PID.TID 0000.0001) // Begin MONITOR dynamic field statistics
(PID.TID 0000.0001) // =======================================================
(PID.TID 0000.0001) %MON time_tsnumber                =                   190
(PID.TID 0000.0001) %MON time_secondsf                =   2.2800000000000E+05
(PID.TID 0000.0001) %MON dynstat_eta_max              =   4.5548951516153E+01
(PID.TID 0000.0001) %MON dynstat_eta_min              =  -4.4080336379189E+01
(PID.TID 0000.0001) %MON dynstat_eta_mean             =   0.0000000000000E+00
(PID.TID 0000.0001) %MON dynstat_eta_sd               =   3.1654604338004E+01
(PID.TID 0000.0001) %MON dynstat_eta_del2             =   6.4229158640981E+00
(PID.TID 0000.0001) %MON dynstat_uvel_max             =   4.3284392146754E+00
(PID.TID 0000.0001) %MON dynstat_uvel_min             =  -4.3440991562267E+00
(PID.TID 0000.0001) %MON dynstat_uvel_mean            =   5.4810375128641E-03
(PID.TID 0000.0001) %MON dynstat_uvel_sd              =   2.1624889948512E+00
(PID.TID 0000.0001) %MON dynstat_uvel_del2            =   1.0993708114540E-02
(PID.TID 0000.0001) %MON dynstat_vvel_max             =   0.0000000000000E+00
(PID.TID 0000.0001) %MON dynstat_vvel_min             =   0.0000000000000E+00
(PID.TID 0000.0001) %MON dynstat_vvel_mean            =   0.0000000000000E+00
(PID.TID 0000.0001) %MON dynstat_vvel_sd              =   0.0000000000000E+00
(PID.TID 0000.0001) %MON dynstat_vvel_del2            =   0.0000000000000E+00
(PID.TID 0000.0001) %MON dynstat_wvel_max             =   3.0528132044482E-02
(PID.TID 0000.0001) %MON dynstat_wvel_min             =  -3.2626331842490E-02
(PID.TID 0000.0001) %MON dynstat_wvel_mean            =   1.3256802405851E-05
(PID.TID 0000.0001) %MON dynstat_wvel_sd              =   1.6793198825557E-02
(PID.TID 0000.0001) %MON dynstat_wvel_del2            =   6.4151123594558E-04
(PID.TID 0000.0001) %MON dynstat_theta_max            =   5.4090733758606E-02
(PID.TID 0000.0001) %MON dynstat_theta_min            =   3.6870203580460E-05
(PID.TID 0000.0001) %MON dynstat_theta_mean           =   1.7623888761965E-02
(PID.TID 0000.0001) %MON dynstat_theta_sd             =   1.3850837676003E-02
(PID.TID 0000.0001) %MON dynstat_theta_del2           =   4.2846093305860E-04
(PID.TID 0000.0001) %MON dynstat_salt_max             =   4.6590507953603E-02
(PID.TID 0000.0001) %MON dynstat_salt_min             =  -9.0335507141432E-03
(PID.TID 0000.0001) %MON dynstat_salt_mean            =   1.7622838132047E-02
(PID.TID 0000.0001) %MON dynstat_salt_sd              =   1.0996813933155E-02
(PID.TID 0000.0001) %MON dynstat_salt_del2            =   4.1084164070483E-04
(PID.TID 0000.0001) %MON advcfl_uvel_max              =   5.2129189874721E-01
(PID.TID 0000.0001) %MON advcfl_vvel_max              =   0.0000000000000E+00
(PID.TID 0000.0001) %MON advcfl_wvel_max              =   3.9151598210987E-01
(PID.TID 0000.0001) %MON advcfl_W_hf_max              =   5.2007011892857E-01
(PID.TID 0000.0001) %MON pe_b_mean                    =   3.2765857008515E+00
(PID.TID 0000.0001) %MON ke_max                       =   9.3438671411212E+00
(PID.TID 0000.0001) %MON ke_mean                      =   2.2641515263142E+00
(PID.TID 0000.0001) %MON ke_vol                       =   3.0000000000000E+12
(PID.TID 0000.0001) // =======================================================
(PID.TID 0000.0001) // End MONITOR dynamic field statistics
(PID.TID 0000.0001) // =======================================================
 Compute Stats, Diag. #     30  UVEL      vol(   0 ): 2.905E+12  Parms: UUR     MR      
 Compute Stats, Diag. #     32  WVEL      vol(   0 ): 3.000E+12  Parms: WM      LR      
 Compute Stats, Diag. #     26  THETA     vol(   0 ): 3.000E+12  Parms: SMR     MR      
 Compute Stats, Diag. #     27  SALT      vol(   0 ): 3.000E+12  Parms: SMR     MR      
 Compute Stats, Diag. #     23  ETAN      vol(   0 ): 2.000E+09  Parms: SM      M1      
 Compute Stats, Diag. #     95  RSURF     vol(   0 ): 2.000E+09  Parms: SM      M1      
 Compute Stats, Diag. #    107  ADVx_TH   vol(   0 ): 2.905E+12  Parms: UU      MR      
 Compute Stats, Diag. #    106  ADVr_TH   vol(   0 ): 3.000E+12  Parms: WM      LR      
 Compute Stats, Diag. #    124  ADVx_SLT  vol(   0 ): 2.905E+12  Parms: UU      MR      
 Compute Stats, Diag. #    123  ADVr_SLT  vol(   0 ): 3.000E+12  Parms: WM      LR      
 Compute Stats, Diag. #    105  gSinAB    vol(   0 ): 3.000E+12  Parms: SMR     MR      
 Compute Stats, Diag. #     30  UVEL      vol(   0 ): 2.905E+12  Parms: UUR     MR      
 Compute Stats, Diag. #     32  WVEL      vol(   0 ): 3.000E+12  Parms: WM      LR      
 Compute Stats, Diag. #     26  THETA     vol(   0 ): 3.000E+12  Parms: SMR     MR      
 Compute Stats, Diag. #     27  SALT      vol(   0 ): 3.000E+12  Parms: SMR     MR      
 Compute Stats, Diag. #     23  ETAN      vol(   0 ): 2.000E+09  Parms: SM      M1      
 Compute Stats, Diag. #     95  RSURF     vol(   0 ): 2.000E+09  Parms: SM      M1      
 Compute Stats, Diag. #    107  ADVx_TH   vol(   0 ): 2.905E+12  Parms: UU      MR      
 Compute Stats, Diag. #    106  ADVr_TH   vol(   0 ): 3.000E+12  Parms: WM      LR      
 Compute Stats, Diag. #    124  ADVx_SLT  vol(   0 ): 2.905E+12  Parms: UU      MR      
 Compute Stats, Diag. #    123  ADVr_SLT  vol(   0 ): 3.000E+12  Parms: WM      LR      
 Compute Stats, Diag. #    105  gSinAB    vol(   0 ): 3.000E+12  Parms: SMR     MR      
(PID.TID 0000.0001) // =======================================================
(PID.TID 0000.0001) // Begin MONITOR dynamic field statistics
(PID.TID 0000.0001) // =======================================================
(PID.TID 0000.0001) %MON time_tsnumber                =                   200
(PID.TID 0000.0001) %MON time_secondsf                =   2.4000000000000E+05
(PID.TID 0000.0001) %MON dynstat_eta_max              =   4.8000759646749E+01
(PID.TID 0000.0001) %MON dynstat_eta_min              =  -4.6372533190999E+01
(PID.TID 0000.0001) %MON dynstat_eta_mean             =  -2.4414062500000E-15
(PID.TID 0000.0001) %MON dynstat_eta_sd               =   3.3322485246735E+01
(PID.TID 0000.0001) %MON dynstat_eta_del2             =   6.7631811863382E+00
(PID.TID 0000.0001) %MON dynstat_uvel_max             =   4.3284392146754E+00
(PID.TID 0000.0001) %MON dynstat_uvel_min             =  -4.3440991562267E+00
(PID.TID 0000.0001) %MON dynstat_uvel_mean            =   5.4817121623986E-03
(PID.TID 0000.0001) %MON dynstat_uvel_sd              =   2.1626820573490E+00
(PID.TID 0000.0001) %MON dynstat_uvel_del2            =   1.0993708114540E-02
(PID.TID 0000.0001) %MON dynstat_vvel_max             =   0.0000000000000E+00
(PID.TID 0000.0001) %MON dynstat_vvel_min             =   0.0000000000000E+00
(PID.TID 0000.0001) %MON dynstat_vvel_mean            =   0.0000000000000E+00
(PID.TID 0000.0001) %MON dynstat_vvel_sd              =   0.0000000000000E+00
(PID.TID 0000.0001) %MON dynstat_vvel_del2            =   0.0000000000000E+00
(PID.TID 0000.0001) %MON dynstat_wvel_max             =   3.0491387958099E-02
(PID.TID 0000.0001) %MON dynstat_wvel_min             =  -3.2699907506337E-02
(PID.TID 0000.0001) %MON dynstat_wvel_mean            =   1.3258430681288E-05
(PID.TID 0000.0001) %MON dynstat_wvel_sd              =   1.6791846956468E-02
(PID.TID 0000.0001) %MON dynstat_wvel_del2            =   6.4191581890365E-04
(PID.TID 0000.0001) %MON dynstat_theta_max            =   5.2875529348853E-02
(PID.TID 0000.0001) %MON dynstat_theta_min            =   8.2233779994756E-05
(PID.TID 0000.0001) %MON dynstat_theta_mean           =   1.7623905951657E-02
(PID.TID 0000.0001) %MON dynstat_theta_sd             =   1.2951960548160E-02
(PID.TID 0000.0001) %MON dynstat_theta_del2           =   3.8239000409999E-04
(PID.TID 0000.0001) %MON dynstat_salt_max             =   4.4760030863375E-02
(PID.TID 0000.0001) %MON dynstat_salt_min             =  -8.7804053761406E-03
(PID.TID 0000.0001) %MON dynstat_salt_mean            =   1.7622828317552E-02
(PID.TID 0000.0001) %MON dynstat_salt_sd              =   9.9855351075261E-03
(PID.TID 0000.0001) %MON dynstat_salt_del2            =   3.4401279004093E-04
(PID.TID 0000.0001) %MON advcfl_uvel_max              =   5.2129189874721E-01
(PID.TID 0000.0001) %MON advcfl_vvel_max              =   0.0000000000000E+00
(PID.TID 0000.0001) %MON advcfl_wvel_max              =   3.9239889007604E-01
(PID.TID 0000.0001) %MON advcfl_W_hf_max              =   5.2000378585575E-01
(PID.TID 0000.0001) %MON pe_b_mean                    =   3.6309688352718E+00
(PID.TID 0000.0001) %MON ke_max                       =   9.3439309803059E+00
(PID.TID 0000.0001) %MON ke_mean                      =   2.2645558227766E+00
(PID.TID 0000.0001) %MON ke_vol                       =   3.0000000000000E+12
(PID.TID 0000.0001) // =======================================================
(PID.TID 0000.0001) // End MONITOR dynamic field statistics
(PID.TID 0000.0001) // =======================================================
 Computing Diagnostic #    107  ADVx_TH      Counter:      20   Parms: UU      MR      
           Vector  Mate for  ADVx_TH      Diagnostic #    108  ADVy_TH  not enabled
 Computing Diagnostic #    106  ADVr_TH      Counter:      20   Parms: WM      LR      
 Computing Diagnostic #    124  ADVx_SLT     Counter:      20   Parms: UU      MR      
           Vector  Mate for  ADVx_SLT     Diagnostic #    125  ADVy_SLT not enabled
 Computing Diagnostic #    123  ADVr_SLT     Counter:      20   Parms: WM      LR      
(PID.TID 0000.0001) DIAGSTATS_CLOSE_IO: close file: dynStDiag.0000000000.txt , unit=     9
(PID.TID 0000.0001) %CHECKPOINT       200 ckptA
(PID.TID 0000.0001)   Seconds in section "ALL                    [THE_MODEL_MAIN]":
(PID.TID 0000.0001)           User time:   2.9900000000000002
(PID.TID 0000.0001)         System time:  2.00000000000000004E-002
(PID.TID 0000.0001)     Wall clock time:   3.0285701751708984
(PID.TID 0000.0001)          No. starts:           1
(PID.TID 0000.0001)           No. stops:           1
(PID.TID 0000.0001)   Seconds in section "INITIALISE_FIXED       [THE_MODEL_MAIN]":
(PID.TID 0000.0001)           User time:  2.00000000000000004E-002
(PID.TID 0000.0001)         System time:   0.0000000000000000
(PID.TID 0000.0001)     Wall clock time:  2.17499732971191406E-002
(PID.TID 0000.0001)          No. starts:           1
(PID.TID 0000.0001)           No. stops:           1
(PID.TID 0000.0001)   Seconds in section "THE_MAIN_LOOP          [THE_MODEL_MAIN]":
(PID.TID 0000.0001)           User time:   2.9700000000000002
(PID.TID 0000.0001)         System time:  2.00000000000000004E-002
(PID.TID 0000.0001)     Wall clock time:   3.0067820549011230
(PID.TID 0000.0001)          No. starts:           1
(PID.TID 0000.0001)           No. stops:           1
(PID.TID 0000.0001)   Seconds in section "INITIALISE_VARIA    [THE_MAIN_LOOP]":
(PID.TID 0000.0001)           User time:   0.0000000000000000
(PID.TID 0000.0001)         System time:   0.0000000000000000
(PID.TID 0000.0001)     Wall clock time:  1.01780891418457031E-002
(PID.TID 0000.0001)          No. starts:           1
(PID.TID 0000.0001)           No. stops:           1
(PID.TID 0000.0001)   Seconds in section "MAIN LOOP           [THE_MAIN_LOOP]":
(PID.TID 0000.0001)           User time:   2.9700000000000002
(PID.TID 0000.0001)         System time:  2.00000000000000004E-002
(PID.TID 0000.0001)     Wall clock time:   2.9965748786926270
(PID.TID 0000.0001)          No. starts:           1
(PID.TID 0000.0001)           No. stops:           1
(PID.TID 0000.0001)   Seconds in section "FORWARD_STEP        [THE_MAIN_LOOP]":
(PID.TID 0000.0001)           User time:   2.9699999999999949
(PID.TID 0000.0001)         System time:  1.99999999999999935E-002
(PID.TID 0000.0001)     Wall clock time:   2.9947972297668457
(PID.TID 0000.0001)          No. starts:         200
(PID.TID 0000.0001)           No. stops:         200
(PID.TID 0000.0001)   Seconds in section "UPDATE_R_STAR       [FORWARD_STEP]":
(PID.TID 0000.0001)           User time:  0.29999999999999982
(PID.TID 0000.0001)         System time:   0.0000000000000000
(PID.TID 0000.0001)     Wall clock time:  0.32487702369689941
(PID.TID 0000.0001)          No. starts:         400
(PID.TID 0000.0001)           No. stops:         400
(PID.TID 0000.0001)   Seconds in section "DO_STATEVARS_DIAGS  [FORWARD_STEP]":
(PID.TID 0000.0001)           User time:  9.99999999999978684E-003
(PID.TID 0000.0001)         System time:   0.0000000000000000
(PID.TID 0000.0001)     Wall clock time:  1.90792083740234375E-002
(PID.TID 0000.0001)          No. starts:         600
(PID.TID 0000.0001)           No. stops:         600
(PID.TID 0000.0001)   Seconds in section "LOAD_FIELDS_DRIVER  [FORWARD_STEP]":
(PID.TID 0000.0001)           User time:   0.0000000000000000
(PID.TID 0000.0001)         System time:   0.0000000000000000
(PID.TID 0000.0001)     Wall clock time:  5.36870956420898438E-003
(PID.TID 0000.0001)          No. starts:         200
(PID.TID 0000.0001)           No. stops:         200
(PID.TID 0000.0001)   Seconds in section "EXTERNAL_FLDS_LOAD [LOAD_FLDS_DRIVER]":
(PID.TID 0000.0001)           User time:   0.0000000000000000
(PID.TID 0000.0001)         System time:   0.0000000000000000
(PID.TID 0000.0001)     Wall clock time:  1.79386138916015625E-003
(PID.TID 0000.0001)          No. starts:         200
(PID.TID 0000.0001)           No. stops:         200
(PID.TID 0000.0001)   Seconds in section "DO_ATMOSPHERIC_PHYS [FORWARD_STEP]":
(PID.TID 0000.0001)           User time:   0.0000000000000000
(PID.TID 0000.0001)         System time:   0.0000000000000000
(PID.TID 0000.0001)     Wall clock time:  1.79672241210937500E-003
(PID.TID 0000.0001)          No. starts:         200
(PID.TID 0000.0001)           No. stops:         200
(PID.TID 0000.0001)   Seconds in section "DO_OCEANIC_PHYS     [FORWARD_STEP]":
(PID.TID 0000.0001)           User time:  5.00000000000002665E-002
(PID.TID 0000.0001)         System time:   0.0000000000000000
(PID.TID 0000.0001)     Wall clock time:  4.77602481842041016E-002
(PID.TID 0000.0001)          No. starts:         200
(PID.TID 0000.0001)           No. stops:         200
(PID.TID 0000.0001)   Seconds in section "INTEGR_CONTINUITY   [FORWARD_STEP]":
(PID.TID 0000.0001)           User time:  5.00000000000002665E-002
(PID.TID 0000.0001)         System time:   0.0000000000000000
(PID.TID 0000.0001)     Wall clock time:  5.59282302856445313E-002
(PID.TID 0000.0001)          No. starts:         200
(PID.TID 0000.0001)           No. stops:         200
(PID.TID 0000.0001)   Seconds in section "CALC_R_STAR         [FORWARD_STEP]":
(PID.TID 0000.0001)           User time:  2.99999999999998046E-002
(PID.TID 0000.0001)         System time:   0.0000000000000000
(PID.TID 0000.0001)     Wall clock time:  2.74138450622558594E-002
(PID.TID 0000.0001)          No. starts:         200
(PID.TID 0000.0001)           No. stops:         200
(PID.TID 0000.0001)   Seconds in section "BLOCKING_EXCHANGES  [FORWARD_STEP]":
(PID.TID 0000.0001)           User time:  0.30999999999999783
(PID.TID 0000.0001)         System time:   0.0000000000000000
(PID.TID 0000.0001)     Wall clock time:  0.28800511360168457
(PID.TID 0000.0001)          No. starts:         400
(PID.TID 0000.0001)           No. stops:         400
(PID.TID 0000.0001)   Seconds in section "THERMODYNAMICS      [FORWARD_STEP]":
(PID.TID 0000.0001)           User time:   1.9999999999999880
(PID.TID 0000.0001)         System time:   0.0000000000000000
(PID.TID 0000.0001)     Wall clock time:   2.0112881660461426
(PID.TID 0000.0001)          No. starts:         200
(PID.TID 0000.0001)           No. stops:         200
(PID.TID 0000.0001)   Seconds in section "TRC_CORRECTION_STEP [FORWARD_STEP]":
(PID.TID 0000.0001)           User time:  7.00000000000002842E-002
(PID.TID 0000.0001)         System time:   0.0000000000000000
(PID.TID 0000.0001)     Wall clock time:  4.25112247467041016E-002
(PID.TID 0000.0001)          No. starts:         200
(PID.TID 0000.0001)           No. stops:         200
(PID.TID 0000.0001)   Seconds in section "MONITOR             [FORWARD_STEP]":
(PID.TID 0000.0001)           User time:  3.00000000000002487E-002
(PID.TID 0000.0001)         System time:   0.0000000000000000
(PID.TID 0000.0001)     Wall clock time:  2.28309631347656250E-002
(PID.TID 0000.0001)          No. starts:         200
(PID.TID 0000.0001)           No. stops:         200
(PID.TID 0000.0001)   Seconds in section "DO_THE_MODEL_IO     [FORWARD_STEP]":
(PID.TID 0000.0001)           User time:  9.99999999999992006E-002
(PID.TID 0000.0001)         System time:  1.99999999999999935E-002
(PID.TID 0000.0001)     Wall clock time:  0.11214613914489746
(PID.TID 0000.0001)          No. starts:         200
(PID.TID 0000.0001)           No. stops:         200
(PID.TID 0000.0001)   Seconds in section "DO_WRITE_PICKUP     [FORWARD_STEP]":
(PID.TID 0000.0001)           User time:   0.0000000000000000
(PID.TID 0000.0001)         System time:   0.0000000000000000
(PID.TID 0000.0001)     Wall clock time:  2.55823135375976563E-003
(PID.TID 0000.0001)          No. starts:         200
(PID.TID 0000.0001)           No. stops:         200
(PID.TID 0000.0001) // ======================================================
(PID.TID 0000.0001) // Tile <-> Tile communication statistics
(PID.TID 0000.0001) // ======================================================
(PID.TID 0000.0001) // o Tile number: 000001
(PID.TID 0000.0001) //         No. X exchanges =              0
(PID.TID 0000.0001) //            Max. X spins =              0
(PID.TID 0000.0001) //            Min. X spins =     1000000000
(PID.TID 0000.0001) //          Total. X spins =              0
(PID.TID 0000.0001) //            Avg. X spins =       0.00E+00
(PID.TID 0000.0001) //         No. Y exchanges =              0
(PID.TID 0000.0001) //            Max. Y spins =              0
(PID.TID 0000.0001) //            Min. Y spins =     1000000000
(PID.TID 0000.0001) //          Total. Y spins =              0
(PID.TID 0000.0001) //            Avg. Y spins =       0.00E+00
(PID.TID 0000.0001) // o Tile number: 000002
(PID.TID 0000.0001) //         No. X exchanges =              0
(PID.TID 0000.0001) //            Max. X spins =              0
(PID.TID 0000.0001) //            Min. X spins =     1000000000
(PID.TID 0000.0001) //          Total. X spins =              0
(PID.TID 0000.0001) //            Avg. X spins =       0.00E+00
(PID.TID 0000.0001) //         No. Y exchanges =              0
(PID.TID 0000.0001) //            Max. Y spins =              0
(PID.TID 0000.0001) //            Min. Y spins =     1000000000
(PID.TID 0000.0001) //          Total. Y spins =              0
(PID.TID 0000.0001) //            Avg. Y spins =       0.00E+00
(PID.TID 0000.0001) // o Thread number: 000001
(PID.TID 0000.0001) //            No. barriers =          75512
(PID.TID 0000.0001) //      Max. barrier spins =              1
(PID.TID 0000.0001) //      Min. barrier spins =              1
(PID.TID 0000.0001) //     Total barrier spins =          75512
(PID.TID 0000.0001) //      Avg. barrier spins =       1.00E+00
PROGRAM MAIN: Execution ended Normally
