(PID.TID 0000.0001) 
(PID.TID 0000.0001) // ======================================================
(PID.TID 0000.0001) //                      MITgcm UV
(PID.TID 0000.0001) //                      =========
(PID.TID 0000.0001) // ======================================================
(PID.TID 0000.0001) // execution environment starting up...
(PID.TID 0000.0001) 
(PID.TID 0000.0001) // MITgcmUV version:  checkpoint67n
(PID.TID 0000.0001) // Build user:        jm_c
(PID.TID 0000.0001) // Build host:        villon
(PID.TID 0000.0001) // Build date:        Thu Dec 19 17:54:20 EST 2019
(PID.TID 0000.0001) 
(PID.TID 0000.0001) // =======================================================
(PID.TID 0000.0001) // Execution Environment parameter file "eedata"
(PID.TID 0000.0001) // =======================================================
(PID.TID 0000.0001) ># Example "eedata" file
(PID.TID 0000.0001) ># Lines beginning "#" are comments
(PID.TID 0000.0001) >#  nTx      :: No. threads per process in X
(PID.TID 0000.0001) >#  nTy      :: No. threads per process in Y
(PID.TID 0000.0001) ># debugMode :: print debug msg (sequence of S/R calls)
(PID.TID 0000.0001) > &EEPARMS
(PID.TID 0000.0001) > /
(PID.TID 0000.0001) ># Note: Some systems use & as the namelist terminator (as shown here).
(PID.TID 0000.0001) >#       Other systems use a / character.
(PID.TID 0000.0001) 
(PID.TID 0000.0001) // =======================================================
(PID.TID 0000.0001) // Computational Grid Specification ( see files "SIZE.h" )
(PID.TID 0000.0001) //                                  ( and "eedata"       )
(PID.TID 0000.0001) // =======================================================
(PID.TID 0000.0001)      nPx =    1 ; /* No. processes in X */
(PID.TID 0000.0001)      nPy =    1 ; /* No. processes in Y */
(PID.TID 0000.0001)      nSx =    1 ; /* No. tiles in X per process */
(PID.TID 0000.0001)      nSy =    4 ; /* No. tiles in Y per process */
(PID.TID 0000.0001)      sNx =    1 ; /* Tile size in X */
(PID.TID 0000.0001)      sNy =   50 ; /* Tile size in Y */
(PID.TID 0000.0001)      OLx =    3 ; /* Tile overlap distance in X */
(PID.TID 0000.0001)      OLy =    3 ; /* Tile overlap distance in Y */
(PID.TID 0000.0001)      nTx =    1 ; /* No. threads in X per process */
(PID.TID 0000.0001)      nTy =    1 ; /* No. threads in Y per process */
(PID.TID 0000.0001)       Nr =   90 ; /* No. levels in the vertical   */
(PID.TID 0000.0001)       Nx =    1 ; /* Total domain size in X ( = nPx*nSx*sNx ) */
(PID.TID 0000.0001)       Ny =  200 ; /* Total domain size in Y ( = nPy*nSy*sNy ) */
(PID.TID 0000.0001)   nTiles =    4 ; /* Total no. tiles per process ( = nSx*nSy ) */
(PID.TID 0000.0001)   nProcs =    1 ; /* Total no. processes ( = nPx*nPy ) */
(PID.TID 0000.0001) nThreads =    1 ; /* Total no. threads per process ( = nTx*nTy ) */
(PID.TID 0000.0001) usingMPI =    F ; /* Flag used to control whether MPI is in use */
(PID.TID 0000.0001)                   /*  note: To execute a program with MPI calls */
(PID.TID 0000.0001)                   /*  it must be launched appropriately e.g     */
(PID.TID 0000.0001)                   /*  "mpirun -np 64 ......"                    */
(PID.TID 0000.0001) useCoupler=    F ;/* Flag used to control communications with   */
(PID.TID 0000.0001)                   /*  other model components, through a coupler */
(PID.TID 0000.0001) useNest2W_parent =    F ;/* Control 2-W Nesting comm */
(PID.TID 0000.0001) useNest2W_child  =    F ;/* Control 2-W Nesting comm */
(PID.TID 0000.0001) debugMode =    F ; /* print debug msg. (sequence of S/R calls)  */
(PID.TID 0000.0001) printMapIncludesZeros=    F ; /* print zeros in Std.Output maps */
(PID.TID 0000.0001) maxLengthPrt1D=   65 /* maxLength of 1D array printed to StdOut */
(PID.TID 0000.0001) 
(PID.TID 0000.0001) // ======================================================
(PID.TID 0000.0001) // Mapping of tiles to threads
(PID.TID 0000.0001) // ======================================================
(PID.TID 0000.0001) // -o- Thread   1, tiles (   1:   1,   1:   4)
(PID.TID 0000.0001) 
(PID.TID 0000.0001) // ======================================================
(PID.TID 0000.0001) // Tile <-> Tile connectvity table
(PID.TID 0000.0001) // ======================================================
(PID.TID 0000.0001) // Tile number: 000001 (process no. = 000000)
(PID.TID 0000.0001) //        WEST: Tile = 000001, Process = 000000, Comm = put
(PID.TID 0000.0001) //                bi = 000001, bj = 000001
(PID.TID 0000.0001) //        EAST: Tile = 000001, Process = 000000, Comm = put
(PID.TID 0000.0001) //                bi = 000001, bj = 000001
(PID.TID 0000.0001) //       SOUTH: Tile = 000004, Process = 000000, Comm = put
(PID.TID 0000.0001) //                bi = 000001, bj = 000004
(PID.TID 0000.0001) //       NORTH: Tile = 000002, Process = 000000, Comm = put
(PID.TID 0000.0001) //                bi = 000001, bj = 000002
(PID.TID 0000.0001) // Tile number: 000002 (process no. = 000000)
(PID.TID 0000.0001) //        WEST: Tile = 000002, Process = 000000, Comm = put
(PID.TID 0000.0001) //                bi = 000001, bj = 000002
(PID.TID 0000.0001) //        EAST: Tile = 000002, Process = 000000, Comm = put
(PID.TID 0000.0001) //                bi = 000001, bj = 000002
(PID.TID 0000.0001) //       SOUTH: Tile = 000001, Process = 000000, Comm = put
(PID.TID 0000.0001) //                bi = 000001, bj = 000001
(PID.TID 0000.0001) //       NORTH: Tile = 000003, Process = 000000, Comm = put
(PID.TID 0000.0001) //                bi = 000001, bj = 000003
(PID.TID 0000.0001) // Tile number: 000003 (process no. = 000000)
(PID.TID 0000.0001) //        WEST: Tile = 000003, Process = 000000, Comm = put
(PID.TID 0000.0001) //                bi = 000001, bj = 000003
(PID.TID 0000.0001) //        EAST: Tile = 000003, Process = 000000, Comm = put
(PID.TID 0000.0001) //                bi = 000001, bj = 000003
(PID.TID 0000.0001) //       SOUTH: Tile = 000002, Process = 000000, Comm = put
(PID.TID 0000.0001) //                bi = 000001, bj = 000002
(PID.TID 0000.0001) //       NORTH: Tile = 000004, Process = 000000, Comm = put
(PID.TID 0000.0001) //                bi = 000001, bj = 000004
(PID.TID 0000.0001) // Tile number: 000004 (process no. = 000000)
(PID.TID 0000.0001) //        WEST: Tile = 000004, Process = 000000, Comm = put
(PID.TID 0000.0001) //                bi = 000001, bj = 000004
(PID.TID 0000.0001) //        EAST: Tile = 000004, Process = 000000, Comm = put
(PID.TID 0000.0001) //                bi = 000001, bj = 000004
(PID.TID 0000.0001) //       SOUTH: Tile = 000003, Process = 000000, Comm = put
(PID.TID 0000.0001) //                bi = 000001, bj = 000003
(PID.TID 0000.0001) //       NORTH: Tile = 000001, Process = 000000, Comm = put
(PID.TID 0000.0001) //                bi = 000001, bj = 000001
(PID.TID 0000.0001) 
(PID.TID 0000.0001)  INI_PARMS: opening model parameter file "data"
(PID.TID 0000.0001)  OPEN_COPY_DATA_FILE: opening file data
(PID.TID 0000.0001) // =======================================================
(PID.TID 0000.0001) // Parameter file "data"
(PID.TID 0000.0001) // =======================================================
(PID.TID 0000.0001) ># ====================
(PID.TID 0000.0001) ># | Model parameters |
(PID.TID 0000.0001) ># ====================
(PID.TID 0000.0001) >#
(PID.TID 0000.0001) ># Continuous equation parameters
(PID.TID 0000.0001) > &PARM01
(PID.TID 0000.0001) > tRef = 90*-1.9,
(PID.TID 0000.0001) > sRef = 90*34.4,
(PID.TID 0000.0001) > eosType='JMD95Z',
(PID.TID 0000.0001) > HeatCapacity_Cp = 3974.0,
(PID.TID 0000.0001) > rhoConst=1030.,
(PID.TID 0000.0001) > gravity=9.81,
(PID.TID 0000.0001) > viscAr=1.E-3,
(PID.TID 0000.0001) > viscAh= 300.,
(PID.TID 0000.0001) > no_slip_sides=.FALSE.,
(PID.TID 0000.0001) > no_slip_bottom=.FALSE.,
(PID.TID 0000.0001) > diffKhT= 10.,
(PID.TID 0000.0001) > diffKrT=5.E-5,
(PID.TID 0000.0001) > diffKhS= 10.,
(PID.TID 0000.0001) > diffKrS=5.E-5,
(PID.TID 0000.0001) > bottomDragQuadratic=2.5E-3,
(PID.TID 0000.0001) > staggerTimestep = .TRUE.,
(PID.TID 0000.0001) > tempAdvScheme=77,
(PID.TID 0000.0001) > saltAdvScheme=77,
(PID.TID 0000.0001) > vectorInvariantMomentum = .TRUE.,
(PID.TID 0000.0001) ># momImplVertAdv=.TRUE.,
(PID.TID 0000.0001) >#tempImplVertAdv=.TRUE.,
(PID.TID 0000.0001) >#saltImplVertAdv=.TRUE.,
(PID.TID 0000.0001) > implicitDiffusion = .TRUE.,
(PID.TID 0000.0001) > implicitViscosity = .TRUE.,
(PID.TID 0000.0001) > selectImplicitDrag = 2,
(PID.TID 0000.0001) > implicitFreeSurface=.TRUE.,
(PID.TID 0000.0001) > useRealFreshWaterFlux = .TRUE.,
(PID.TID 0000.0001) > exactConserv=.TRUE.,
(PID.TID 0000.0001) ># start NLFS (without rstar)
(PID.TID 0000.0001) > nonlinFreeSurf=4,
(PID.TID 0000.0001) > hFacInf=0.05,
(PID.TID 0000.0001) > hFacSup=2.0,
(PID.TID 0000.0001) ># end NLFS
(PID.TID 0000.0001) > hFacMin=0.10,
(PID.TID 0000.0001) >#integr_GeoPot = 1,
(PID.TID 0000.0001) > ivdc_kappa = 1.,
(PID.TID 0000.0001) > useJamartWetPoints=.TRUE.,
(PID.TID 0000.0001) > selectBotDragQuadr=1,
(PID.TID 0000.0001) >#bottomVisc_pCell=.TRUE.,
(PID.TID 0000.0001) >#-
(PID.TID 0000.0001) > readBinaryPrec=64,
(PID.TID 0000.0001) > writeBinaryPrec=64,
(PID.TID 0000.0001) > useSingleCpuIO=.TRUE.,
(PID.TID 0000.0001) >#globalFiles=.TRUE.,
(PID.TID 0000.0001) > debuglevel = 2,
(PID.TID 0000.0001) > plotLevel = 0,
(PID.TID 0000.0001) > /
(PID.TID 0000.0001) >
(PID.TID 0000.0001) ># Elliptic solver parameters
(PID.TID 0000.0001) > &PARM02
(PID.TID 0000.0001) > cg2dMaxIters=300,
(PID.TID 0000.0001) > cg2dTargetResidual=1.E-11,
(PID.TID 0000.0001) >#printResidualFreq=100,
(PID.TID 0000.0001) > /
(PID.TID 0000.0001) >
(PID.TID 0000.0001) >#Time stepping parameters
(PID.TID 0000.0001) > &PARM03
(PID.TID 0000.0001) >#nIter0=2880,
(PID.TID 0000.0001) >#nTimeSteps=288,
(PID.TID 0000.0001) >#startTime=0.,
(PID.TID 0000.0001) >#endTime=2592000.,
(PID.TID 0000.0001) > deltaT=300.0,
(PID.TID 0000.0001) > forcing_In_AB  = .FALSE.,
(PID.TID 0000.0001) > abEps=0.1,
(PID.TID 0000.0001) > pChkptFreq= 2592000.,
(PID.TID 0000.0001) > chkptFreq = 2592000.,
(PID.TID 0000.0001) > dumpFreq =  86400.,
(PID.TID 0000.0001) > monitorFreq= 7200.,
(PID.TID 0000.0001) > monitorSelect=1,
(PID.TID 0000.0001) > monitorFreq=1800.,
(PID.TID 0000.0001) > dumpFreq = 10800.,
(PID.TID 0000.0001) >#- for testing purpose:
(PID.TID 0000.0001) > nIter0=2898,
(PID.TID 0000.0001) > nTimeSteps=20,
(PID.TID 0000.0001) >#dumpFreq = 1200.,
(PID.TID 0000.0001) > monitorFreq=1.,
(PID.TID 0000.0001) > /
(PID.TID 0000.0001) >
(PID.TID 0000.0001) ># Gridding parameters
(PID.TID 0000.0001) > &PARM04
(PID.TID 0000.0001) > usingCartesianGrid=.FALSE.,
(PID.TID 0000.0001) > usingSphericalPolarGrid=.TRUE.,
(PID.TID 0000.0001) > delR=90*10.,
(PID.TID 0000.0001) > delX=1*.125,
(PID.TID 0000.0001) > delY=200*.0078125,
(PID.TID 0000.0001) > xgOrigin = 0.,
(PID.TID 0000.0001) > ygOrigin = -75.5,
(PID.TID 0000.0001) > pCellMix_select=20,
(PID.TID 0000.0001) > pcellMix_delR = 10.,
(PID.TID 0000.0001) >#interViscAr_pCell = .TRUE.,
(PID.TID 0000.0001) >#interDiffKr_pCell = .TRUE.,
(PID.TID 0000.0001) > pCellMix_viscAr = 90*1.E-3,
(PID.TID 0000.0001) > pCellMix_diffKr = 90*1.E-4,
(PID.TID 0000.0001) ># current default: diffKzT=5.E-5, viscAz=1.E-3,
(PID.TID 0000.0001) > /
(PID.TID 0000.0001) >
(PID.TID 0000.0001) ># Input datasets
(PID.TID 0000.0001) > &PARM05
(PID.TID 0000.0001) > bathyFile='bathy_flat.bin',
(PID.TID 0000.0001) > hydrogThetaFile='temp_ini.bin',	
(PID.TID 0000.0001) > hydrogSaltFile ='salt_ini.bin',
(PID.TID 0000.0001) ># pSurfInitFile ='etai_ini.bin'
(PID.TID 0000.0001) > /
(PID.TID 0000.0001) 
(PID.TID 0000.0001)  INI_PARMS ; starts to read PARM01
(PID.TID 0000.0001)  INI_PARMS ; read PARM01 : OK
(PID.TID 0000.0001)  INI_PARMS ; starts to read PARM02
(PID.TID 0000.0001)  INI_PARMS ; read PARM02 : OK
(PID.TID 0000.0001)  INI_PARMS ; starts to read PARM03
(PID.TID 0000.0001)  INI_PARMS ; read PARM03 : OK
(PID.TID 0000.0001)  INI_PARMS ; starts to read PARM04
(PID.TID 0000.0001)  INI_PARMS ; read PARM04 : OK
(PID.TID 0000.0001)  INI_PARMS ; starts to read PARM05
(PID.TID 0000.0001)  INI_PARMS ; read PARM05 : OK
(PID.TID 0000.0001)  INI_PARMS: finished reading file "data"
(PID.TID 0000.0001)  PACKAGES_BOOT: opening data.pkg
(PID.TID 0000.0001)  OPEN_COPY_DATA_FILE: opening file data.pkg
(PID.TID 0000.0001) // =======================================================
(PID.TID 0000.0001) // Parameter file "data.pkg"
(PID.TID 0000.0001) // =======================================================
(PID.TID 0000.0001) ># Packages (lines beginning "#" are comments)
(PID.TID 0000.0001) > &PACKAGES
(PID.TID 0000.0001) > useOBCS=.TRUE.,
(PID.TID 0000.0001) > useShelfIce=.TRUE.,
(PID.TID 0000.0001) > useDiagnostics = .TRUE.,
(PID.TID 0000.0001) > /
(PID.TID 0000.0001) 
(PID.TID 0000.0001)  PACKAGES_BOOT: finished reading data.pkg
(PID.TID 0000.0001)  PACKAGES_BOOT: On/Off package Summary
 --------  pkgs with a standard "usePKG" On/Off switch in "data.pkg":  --------
 pkg/obcs                 compiled   and   used ( useOBCS                  = T )
 pkg/shelfice             compiled   and   used ( useShelfIce              = T )
 pkg/diagnostics          compiled   and   used ( useDiagnostics           = T )
 -------- pkgs without standard "usePKG" On/Off switch in "data.pkg":  --------
 pkg/generic_advdiff      compiled   and   used ( useGAD                   = T )
 pkg/mom_common           compiled   and   used ( momStepping              = T )
 pkg/mom_vecinv           compiled   and   used ( +vectorInvariantMomentum = T )
 pkg/mom_fluxform         compiled but not used ( & not vectorInvariantMom = F )
 pkg/monitor              compiled   and   used ( monitorFreq > 0.         = T )
 pkg/debug                compiled but not used ( debugMode                = F )
 pkg/rw                   compiled   and   used
 pkg/mdsio                compiled   and   used
(PID.TID 0000.0001)  PACKAGES_BOOT: End of package Summary
(PID.TID 0000.0001) 
(PID.TID 0000.0001)  OBCS_READPARMS: opening data.obcs
(PID.TID 0000.0001)  OPEN_COPY_DATA_FILE: opening file data.obcs
(PID.TID 0000.0001) // =======================================================
(PID.TID 0000.0001) // Parameter file "data.obcs"
(PID.TID 0000.0001) // =======================================================
(PID.TID 0000.0001) ># Open-boundaries
(PID.TID 0000.0001) > &OBCS_PARM01
(PID.TID 0000.0001) > OB_Jnorth=1*200,
(PID.TID 0000.0001) > useOBCSprescribe=.TRUE.,
(PID.TID 0000.0001) >#OBWuFile='uVel_obc.bin',
(PID.TID 0000.0001) > OBNvFile='vVel_obc.bin',
(PID.TID 0000.0001) > OBNtFile='temp_obc.bin',
(PID.TID 0000.0001) > OBNsFile='salt_obc.bin',
(PID.TID 0000.0001) > OBCS_u1_adv_T=1,
(PID.TID 0000.0001) > OBCS_u1_adv_S=1,
(PID.TID 0000.0001) >#--
(PID.TID 0000.0001) > useOBCSsponge=.TRUE.,
(PID.TID 0000.0001) > useLinearSponge = .TRUE.,
(PID.TID 0000.0001) >#- default is =T for these specific switches:
(PID.TID 0000.0001) >#OBCSsponge_VatNS=.TRUE.,
(PID.TID 0000.0001) > OBCSsponge_UatNS=.FALSE.,
(PID.TID 0000.0001) >#--
(PID.TID 0000.0001) > OBCSprintDiags = .FALSE.,
(PID.TID 0000.0001) > /
(PID.TID 0000.0001) >
(PID.TID 0000.0001) ># Orlanski parameters
(PID.TID 0000.0001) > &OBCS_PARM02
(PID.TID 0000.0001) >#Cmax=0.45,
(PID.TID 0000.0001) >#cVelTimeScale=1000.,
(PID.TID 0000.0001) > /
(PID.TID 0000.0001) >
(PID.TID 0000.0001) ># Sponge layer parameters
(PID.TID 0000.0001) > &OBCS_PARM03
(PID.TID 0000.0001) > spongeThickness = 10,
(PID.TID 0000.0001) > Vrelaxobcsbound = 864000.,
(PID.TID 0000.0001) > Urelaxobcsbound = 864000.,
(PID.TID 0000.0001) > /
(PID.TID 0000.0001) 
(PID.TID 0000.0001)  OBCS_READPARMS: finished reading data.obcs
(PID.TID 0000.0001)  OB_indexUnset = /* unset OB index value (i.e. no OB) */
(PID.TID 0000.0001)                       0
(PID.TID 0000.0001)     ;
(PID.TID 0000.0001)  Northern OB global indices : OB_Jnorth =
(PID.TID 0000.0001)                     200                     /* I =  1 */
(PID.TID 0000.0001)  Southern OB global indices : OB_Jsouth =
(PID.TID 0000.0001)                       0                     /* I =  1 */
(PID.TID 0000.0001)  Eastern  OB global indices : OB_Ieast =
(PID.TID 0000.0001)   200 @        0                            /* J =  1:200 */
(PID.TID 0000.0001)  Western  OB global indices : OB_Iwest =
(PID.TID 0000.0001)   200 @        0                            /* J =  1:200 */
(PID.TID 0000.0001) 
(PID.TID 0000.0001)  SHELFICE_READPARMS: opening data.shelfice
(PID.TID 0000.0001)  OPEN_COPY_DATA_FILE: opening file data.shelfice
(PID.TID 0000.0001) // =======================================================
(PID.TID 0000.0001) // Parameter file "data.shelfice"
(PID.TID 0000.0001) // =======================================================
(PID.TID 0000.0001) ># ===================================
(PID.TID 0000.0001) ># | Parameters for SHELFICE package |
(PID.TID 0000.0001) ># ===================================
(PID.TID 0000.0001) > &SHELFICE_PARM01
(PID.TID 0000.0001) > SHELFICEconserve = .TRUE.,
(PID.TID 0000.0001) > SHELFICEuseGammaFrict = .TRUE.,
(PID.TID 0000.0001) > SHELFICEDragQuadratic = 0.0015,
(PID.TID 0000.0001) > shiCdrag = 0.0015,
(PID.TID 0000.0001) > SHELFICEselectDragQuadr= 2,
(PID.TID 0000.0001) > SHELFICEMassStepping = .TRUE.,
(PID.TID 0000.0001) >#--
(PID.TID 0000.0001) > SHELFICEremeshFrequency = 600.0,
(PID.TID 0000.0001) >#- need to satisfy: splitThrs > 1 + mergeThrs / Sdz
(PID.TID 0000.0001) >#       with: Sdz = min{ delR(k+1)/delR(k) }_[k=1:Nr-1]
(PID.TID 0000.0001) > SHELFICEsplitThreshold = 1.12,
(PID.TID 0000.0001) > SHELFICEmergeThreshold = 0.10,
(PID.TID 0000.0001) >#--
(PID.TID 0000.0001) > SHELFICEtopoFile='shelficeTopo.Lin.bin',
(PID.TID 0000.0001) > SHELFICEmassFile='shelficeMass.Lin.bin',
(PID.TID 0000.0001) > SHELFICEMassDynTendFile='shelfice_dMdt.r02.bin',
(PID.TID 0000.0001) >#SHELFICEwriteState = .TRUE.,
(PID.TID 0000.0001) > /
(PID.TID 0000.0001) 
(PID.TID 0000.0001)  SHELFICE_READPARMS: finished reading data.shelfice
(PID.TID 0000.0001)  DIAGNOSTICS_READPARMS: opening data.diagnostics
(PID.TID 0000.0001)  OPEN_COPY_DATA_FILE: opening file data.diagnostics
(PID.TID 0000.0001) // =======================================================
(PID.TID 0000.0001) // Parameter file "data.diagnostics"
(PID.TID 0000.0001) // =======================================================
(PID.TID 0000.0001) ># Diagnostic Package Choices
(PID.TID 0000.0001) >#-----------------
(PID.TID 0000.0001) ># for each output-stream:
(PID.TID 0000.0001) >#  filename(n) : prefix of the output file name (only 8.c long) for outp.stream n
(PID.TID 0000.0001) >#  frequency(n):< 0 : write snap-shot output every |frequency| seconds
(PID.TID 0000.0001) >#               > 0 : write time-average output every frequency seconds
(PID.TID 0000.0001) >#  timePhase(n)     : write at time = timePhase + multiple of |frequency|
(PID.TID 0000.0001) >#  averagingFreq(n) : frequency (in s) for periodic averaging interval
(PID.TID 0000.0001) >#  averagingPhase(n): phase     (in s) for periodic averaging interval
(PID.TID 0000.0001) >#  repeatCycle(n)   : number of averaging intervals in 1 cycle
(PID.TID 0000.0001) >#  levels(:,n) : list of levels to write to file (Notes: declared as REAL)
(PID.TID 0000.0001) >#                 when this entry is missing, select all common levels of this list
(PID.TID 0000.0001) >#  fields(:,n) : list of diagnostics fields (8.c) (see "available_diagnostics.log"
(PID.TID 0000.0001) >#                 file for the list of all available diag. in this particular config)
(PID.TID 0000.0001) >#-----------------
(PID.TID 0000.0001) > &DIAGNOSTICS_LIST
(PID.TID 0000.0001) ># diag_mnc     = .FALSE.,
(PID.TID 0000.0001) >  dumpAtLast   = .TRUE.,
(PID.TID 0000.0001) >  fields(1:13,1) = 'ETAN    ','RSURF   ','oceTAUX ','oceTAUY ',
(PID.TID 0000.0001) >                   'oceQnet ','oceFWflx','MXLDEPTH',
(PID.TID 0000.0001) >                   'SHIfwFlx','SHIhtFlx','SHIgammT','SHIgammS',
(PID.TID 0000.0001) >                   'SHI_mass','SHIuStar',
(PID.TID 0000.0001) >#                  'surForcT','surForcS','TFLUX   ','SFLUX   ','oceFreez',
(PID.TID 0000.0001) >#                  'TRELAX  ','SRELAX  ',
(PID.TID 0000.0001) >#  fields(1,1)='ETAN'
(PID.TID 0000.0001) >   filename(1) = 'surfDiag',
(PID.TID 0000.0001) ># frequency(1) =  2592000.,
(PID.TID 0000.0001) ># frequency(1) =  86400.,
(PID.TID 0000.0001) >  frequency(1) =  10800.,
(PID.TID 0000.0001) >#-
(PID.TID 0000.0001) >  fields(1:10,2) = 'UVEL    ','VVEL    ','WVEL    ',
(PID.TID 0000.0001) >                   'THETA   ','SALT    ','RHOAnoma', 'CONVADJ'
(PID.TID 0000.0001) >                   'hFactorC','hFactorW','hFactorS',
(PID.TID 0000.0001) >   filename(2) = 'dynDiag',
(PID.TID 0000.0001) >  fileFlags(2) = '  h     ',
(PID.TID 0000.0001) ># frequency(2) =  2592000.,
(PID.TID 0000.0001) ># frequency(2) =  86400.,
(PID.TID 0000.0001) >  frequency(2) =  10800.,
(PID.TID 0000.0001) >#-
(PID.TID 0000.0001) >  fields(1:7,3) =  'ETAN    ','RSURF   ',
(PID.TID 0000.0001) >                   'oceQnet ','oceFWflx',
(PID.TID 0000.0001) >                   'SHIfwFlx','SHIhtFlx','SHIuStar',
(PID.TID 0000.0001) >#  filename(3) = 'surfInst',
(PID.TID 0000.0001) ># frequency(3) =  -86400.,
(PID.TID 0000.0001) >  frequency(3) =  -300.,
(PID.TID 0000.0001) >  timePhase(3) = 0.,
(PID.TID 0000.0001) >#-
(PID.TID 0000.0001) >  fields(1:8,4)  = 'UVEL    ','VVEL    ','WVEL    ',
(PID.TID 0000.0001) >                   'THETA   ','SALT    ',
(PID.TID 0000.0001) >                   'hFactorC','hFactorW','hFactorS',
(PID.TID 0000.0001) >#  filename(4) = 'dynInst',
(PID.TID 0000.0001) ># frequency(4) =  -86400.,
(PID.TID 0000.0001) >  frequency(4) =  -300.,
(PID.TID 0000.0001) >  timePhase(4) = 0.,
(PID.TID 0000.0001) > /
(PID.TID 0000.0001) >
(PID.TID 0000.0001) >#--------------------
(PID.TID 0000.0001) ># Parameter for Diagnostics of per level statistics:
(PID.TID 0000.0001) >#--------------------
(PID.TID 0000.0001) >#  diagSt_mnc (logical): write stat-diags to NetCDF files (default=diag_mnc)
(PID.TID 0000.0001) >#  diagSt_regMaskFile : file containing the region-mask to read-in
(PID.TID 0000.0001) >#  nSetRegMskFile   : number of region-mask sets within the region-mask file
(PID.TID 0000.0001) >#  set_regMask(i)   : region-mask set-index that identifies the region "i"
(PID.TID 0000.0001) >#  val_regMask(i)   : region "i" identifier value in the region mask
(PID.TID 0000.0001) >#--for each output-stream:
(PID.TID 0000.0001) >#  stat_fName(n) : prefix of the output file name (max 80c long) for outp.stream n
(PID.TID 0000.0001) >#  stat_freq(n):< 0 : write snap-shot output every |stat_freq| seconds
(PID.TID 0000.0001) >#               > 0 : write time-average output every stat_freq seconds
(PID.TID 0000.0001) >#  stat_phase(n)    : write at time = stat_phase + multiple of |stat_freq|
(PID.TID 0000.0001) >#  stat_region(:,n) : list of "regions" (default: 1 region only=global)
(PID.TID 0000.0001) >#  stat_fields(:,n) : list of selected diagnostics fields (8.c) in outp.stream n
(PID.TID 0000.0001) >#                (see "available_diagnostics.log" file for the full list of diags)
(PID.TID 0000.0001) >#--------------------
(PID.TID 0000.0001) > &DIAG_STATIS_PARMS
(PID.TID 0000.0001) >#- regional mask: =1 : under-ice ; =2 : open-ocean
(PID.TID 0000.0001) >  diagSt_regMaskFile='under_Ice_mask.bin',
(PID.TID 0000.0001) >  nSetRegMskFile=1,
(PID.TID 0000.0001) >  set_regMask(1)= 1,  1,
(PID.TID 0000.0001) >  val_regMask(1)= 1., 2.,
(PID.TID 0000.0001) >#---
(PID.TID 0000.0001) > stat_fields(1:6,1) = 'ETAN    ','THETA   ','SALT    ',
(PID.TID 0000.0001) >                      'UVEL    ','VVEL    ','WVEL    ',
(PID.TID 0000.0001) >    stat_fname(1) = 'dynStDiag',
(PID.TID 0000.0001) >     stat_freq(1) = 21600.,
(PID.TID 0000.0001) >     stat_freq(1) = 3600.,
(PID.TID 0000.0001) >#    stat_freq(1) = 1800.,
(PID.TID 0000.0001) >#-
(PID.TID 0000.0001) > stat_fields(1:2,2) = 'ETAN    ','RSURF   ',
(PID.TID 0000.0001) >   stat_region(1:3,2) = 0, 1, 2,
(PID.TID 0000.0001) >    stat_fname(2) = 'surfStDiag',
(PID.TID 0000.0001) >     stat_freq(2) = 10800.,
(PID.TID 0000.0001) >     stat_freq(2) = 1800.,
(PID.TID 0000.0001) >#    stat_freq(2) =  900.,
(PID.TID 0000.0001) > /
(PID.TID 0000.0001) >
(PID.TID 0000.0001) 
(PID.TID 0000.0001) S/R DIAGNOSTICS_READPARMS, read namelist "diagnostics_list": start
(PID.TID 0000.0001) S/R DIAGNOSTICS_READPARMS, read namelist "diagnostics_list": OK
(PID.TID 0000.0001) S/R DIAGNOSTICS_READPARMS, read namelist "DIAG_STATIS_PARMS": start
(PID.TID 0000.0001) S/R DIAGNOSTICS_READPARMS, read namelist "DIAG_STATIS_PARMS": OK
(PID.TID 0000.0001)  DIAGNOSTICS_READPARMS: global parameter summary:
(PID.TID 0000.0001)  dumpAtLast = /* always write time-ave diags at the end */
(PID.TID 0000.0001)                   T
(PID.TID 0000.0001)     ;
(PID.TID 0000.0001)  diag_mnc =   /* write NetCDF output files */
(PID.TID 0000.0001)                   F
(PID.TID 0000.0001)     ;
(PID.TID 0000.0001)  useMissingValue = /* put MissingValue where mask = 0 */
(PID.TID 0000.0001)                   F
(PID.TID 0000.0001)     ;
(PID.TID 0000.0001)  diagCG_maxIters = /* max number of iters in diag_cg2d */
(PID.TID 0000.0001)                     300
(PID.TID 0000.0001)     ;
(PID.TID 0000.0001)  diagCG_resTarget = /* residual target for diag_cg2d */
(PID.TID 0000.0001)                 9.999999999999999E-12
(PID.TID 0000.0001)     ;
(PID.TID 0000.0001)  diagCG_pcOffDFac = /* preconditioner off-diagonal factor */
(PID.TID 0000.0001)                 9.611687812379854E-01
(PID.TID 0000.0001)     ;
(PID.TID 0000.0001) -----------------------------------------------------
(PID.TID 0000.0001)  DIAGNOSTICS_READPARMS: active diagnostics summary:
(PID.TID 0000.0001) -----------------------------------------------------
(PID.TID 0000.0001) Creating Output Stream: surfDiag
(PID.TID 0000.0001) Output Frequency:      10800.000000 ; Phase:           0.000000
(PID.TID 0000.0001)  Averaging Freq.:      10800.000000 , Phase:           0.000000 , Cycle:   1
(PID.TID 0000.0001)  missing value: -9.990000000000E+02
(PID.TID 0000.0001)  Levels:    will be set later
(PID.TID 0000.0001)  Fields:    ETAN     RSURF    oceTAUX  oceTAUY  oceQnet  oceFWflx MXLDEPTH SHIfwFlx SHIhtFlx SHIgammT
(PID.TID 0000.0001)  Fields:    SHIgammS SHI_mass SHIuStar
(PID.TID 0000.0001) Creating Output Stream: dynDiag
(PID.TID 0000.0001) Output Frequency:      10800.000000 ; Phase:           0.000000
(PID.TID 0000.0001)  Averaging Freq.:      10800.000000 , Phase:           0.000000 , Cycle:   1
(PID.TID 0000.0001)  missing value: -9.990000000000E+02 ; F-Flags="  h     "
(PID.TID 0000.0001)  Levels:    will be set later
(PID.TID 0000.0001)  Fields:    UVEL     VVEL     WVEL     THETA    SALT     RHOAnoma CONVADJ  hFactorC hFactorW hFactorS
(PID.TID 0000.0001) -----------------------------------------------------
(PID.TID 0000.0001)  DIAGNOSTICS_READPARMS: statistics diags. summary:
(PID.TID 0000.0001) Creating Stats. Output Stream: dynStDiag
(PID.TID 0000.0001) Output Frequency:       3600.000000 ; Phase:           0.000000
(PID.TID 0000.0001)  Regions:   0
(PID.TID 0000.0001)  Fields:    ETAN     THETA    SALT     UVEL     VVEL     WVEL
(PID.TID 0000.0001) Creating Stats. Output Stream: surfStDiag
(PID.TID 0000.0001) Output Frequency:       1800.000000 ; Phase:           0.000000
(PID.TID 0000.0001)  Regions:   0  1  2
(PID.TID 0000.0001)  Fields:    ETAN     RSURF
(PID.TID 0000.0001) -----------------------------------------------------
(PID.TID 0000.0001) 
(PID.TID 0000.0001) SET_PARMS: done
(PID.TID 0000.0001) Enter INI_VERTICAL_GRID: setInterFDr=    T ; setCenterDr=    F
(PID.TID 0000.0001) %MON XC_max                       =   6.2500000000000E-02
(PID.TID 0000.0001) %MON XC_min                       =   6.2500000000000E-02
(PID.TID 0000.0001) %MON XC_mean                      =   6.2500000000000E-02
(PID.TID 0000.0001) %MON XC_sd                        =   0.0000000000000E+00
(PID.TID 0000.0001) %MON XG_max                       =   0.0000000000000E+00
(PID.TID 0000.0001) %MON XG_min                       =   0.0000000000000E+00
(PID.TID 0000.0001) %MON XG_mean                      =   0.0000000000000E+00
(PID.TID 0000.0001) %MON XG_sd                        =   0.0000000000000E+00
(PID.TID 0000.0001) %MON DXC_max                      =   3.8442425521008E+03
(PID.TID 0000.0001) %MON DXC_min                      =   3.4804943086928E+03
(PID.TID 0000.0001) %MON DXC_mean                     =   3.6625920273213E+03
(PID.TID 0000.0001) %MON DXC_sd                       =   1.0553274203243E+02
(PID.TID 0000.0001) %MON DXF_max                      =   3.8442425521008E+03
(PID.TID 0000.0001) %MON DXF_min                      =   3.4804943086928E+03
(PID.TID 0000.0001) %MON DXF_mean                     =   3.6625920273213E+03
(PID.TID 0000.0001) %MON DXF_sd                       =   1.0553274203243E+02
(PID.TID 0000.0001) %MON DXG_max                      =   3.8433320467246E+03
(PID.TID 0000.0001) %MON DXG_min                      =   3.4795770285808E+03
(PID.TID 0000.0001) %MON DXG_mean                     =   3.6616780787817E+03
(PID.TID 0000.0001) %MON DXG_sd                       =   1.0553470753176E+02
(PID.TID 0000.0001) %MON DXV_max                      =   3.8433320467246E+03
(PID.TID 0000.0001) %MON DXV_min                      =   3.4795770285808E+03
(PID.TID 0000.0001) %MON DXV_mean                     =   3.6616780787817E+03
(PID.TID 0000.0001) %MON DXV_sd                       =   1.0553470753176E+02
(PID.TID 0000.0001) %MON YC_max                       =  -7.3941406250000E+01
(PID.TID 0000.0001) %MON YC_min                       =  -7.5496093750000E+01
(PID.TID 0000.0001) %MON YC_mean                      =  -7.4718750000000E+01
(PID.TID 0000.0001) %MON YC_sd                        =   4.5104925958293E-01
(PID.TID 0000.0001) %MON YG_max                       =  -7.3945312500000E+01
(PID.TID 0000.0001) %MON YG_min                       =  -7.5500000000000E+01
(PID.TID 0000.0001) %MON YG_mean                      =  -7.4722656250000E+01
(PID.TID 0000.0001) %MON YG_sd                        =   4.5104925958293E-01
(PID.TID 0000.0001) %MON DYC_max                      =   8.6857401056280E+02
(PID.TID 0000.0001) %MON DYC_min                      =   8.6857401056280E+02
(PID.TID 0000.0001) %MON DYC_mean                     =   8.6857401056280E+02
(PID.TID 0000.0001) %MON DYC_sd                       =   7.9580786405131E-13
(PID.TID 0000.0001) %MON DYF_max                      =   8.6857401056280E+02
(PID.TID 0000.0001) %MON DYF_min                      =   8.6857401056280E+02
(PID.TID 0000.0001) %MON DYF_mean                     =   8.6857401056280E+02
(PID.TID 0000.0001) %MON DYF_sd                       =   7.9580786405131E-13
(PID.TID 0000.0001) %MON DYG_max                      =   8.6857401056280E+02
(PID.TID 0000.0001) %MON DYG_min                      =   8.6857401056280E+02
(PID.TID 0000.0001) %MON DYG_mean                     =   8.6857401056280E+02
(PID.TID 0000.0001) %MON DYG_sd                       =   7.9580786405131E-13
(PID.TID 0000.0001) %MON DYU_max                      =   8.6857401056280E+02
(PID.TID 0000.0001) %MON DYU_min                      =   8.6857401056280E+02
(PID.TID 0000.0001) %MON DYU_mean                     =   8.6857401056280E+02
(PID.TID 0000.0001) %MON DYU_sd                       =   7.9580786405131E-13
(PID.TID 0000.0001) %MON RA_max                       =   3.3390091684621E+06
(PID.TID 0000.0001) %MON RA_min                       =   3.0230668981011E+06
(PID.TID 0000.0001) %MON RA_mean                      =   3.1812322437613E+06
(PID.TID 0000.0001) %MON RA_sd                        =   9.1662996921767E+04
(PID.TID 0000.0001) %MON RAW_max                      =   3.3390091684621E+06
(PID.TID 0000.0001) %MON RAW_min                      =   3.0230668981011E+06
(PID.TID 0000.0001) %MON RAW_mean                     =   3.1812322437613E+06
(PID.TID 0000.0001) %MON RAW_sd                       =   9.1662996921767E+04
(PID.TID 0000.0001) %MON RAS_max                      =   3.3382183271621E+06
(PID.TID 0000.0001) %MON RAS_min                      =   3.0222701724373E+06
(PID.TID 0000.0001) %MON RAS_mean                     =   3.1804384118135E+06
(PID.TID 0000.0001) %MON RAS_sd                       =   9.1664704103450E+04
(PID.TID 0000.0001) %MON RAZ_max                      =   3.3382183271621E+06
(PID.TID 0000.0001) %MON RAZ_min                      =   3.0222701724373E+06
(PID.TID 0000.0001) %MON RAZ_mean                     =   3.1804384118135E+06
(PID.TID 0000.0001) %MON RAZ_sd                       =   9.1664704103450E+04
(PID.TID 0000.0001) %MON AngleCS_max                  =   1.0000000000000E+00
(PID.TID 0000.0001) %MON AngleCS_min                  =   1.0000000000000E+00
(PID.TID 0000.0001) %MON AngleCS_mean                 =   1.0000000000000E+00
(PID.TID 0000.0001) %MON AngleCS_sd                   =   0.0000000000000E+00
(PID.TID 0000.0001) %MON AngleSN_max                  =   0.0000000000000E+00
(PID.TID 0000.0001) %MON AngleSN_min                  =   0.0000000000000E+00
(PID.TID 0000.0001) %MON AngleSN_mean                 =   0.0000000000000E+00
(PID.TID 0000.0001) %MON AngleSN_sd                   =   0.0000000000000E+00
(PID.TID 0000.0001)  MDS_READ_FIELD: opening global file: bathy_flat.bin
(PID.TID 0000.0001)  MDS_READ_FIELD: opening global file: shelficeTopo.Lin.bin
(PID.TID 0000.0001)  MDS_READ_META: opening file: pickup_shelfice.0000002898.meta
(PID.TID 0000.0001)  nRecords =   2 ; filePrec =  64 ; fileIter =      2898
(PID.TID 0000.0001)     nDims =   2 , dims:
(PID.TID 0000.0001)    1:   1   1   1
(PID.TID 0000.0001)    2: 200   1 200
(PID.TID 0000.0001)     nFlds =   2 , nFl3D =   0 , fields:
(PID.TID 0000.0001)  >SHI_mass< >R_Shelfi<
(PID.TID 0000.0001) missingVal=  1.00000000000000E+00 ; nTimRec =   1 , timeList:
(PID.TID 0000.0001)   8.694000000000E+05
(PID.TID 0000.0001) READ_MFLDS_3D_RL: read field: "R_Shelfi", #   2 in fldList, rec=   2
(PID.TID 0000.0001)  MDS_READ_FIELD: opening global file: pickup_shelfice.0000002898.data
(PID.TID 0000.0001) READ_MFLDS_CHECK: - normal end ; reset MFLDS file-name: pickup_shelfice.0000002898
(PID.TID 0000.0001) GAD_INIT_FIXED: GAD_OlMinSize=  2  0  1
(PID.TID 0000.0001) 
(PID.TID 0000.0001) // ===================================
(PID.TID 0000.0001) // GAD parameters :
(PID.TID 0000.0001) // ===================================
(PID.TID 0000.0001) tempAdvScheme =   /* Temp. Horiz.Advection scheme selector */
(PID.TID 0000.0001)                      77
(PID.TID 0000.0001)     ;
(PID.TID 0000.0001) tempVertAdvScheme =   /* Temp. Vert. Advection scheme selector */
(PID.TID 0000.0001)                      77
(PID.TID 0000.0001)     ;
(PID.TID 0000.0001) tempMultiDimAdvec =   /* use Muti-Dim Advec method for Temp */
(PID.TID 0000.0001)                   T
(PID.TID 0000.0001)     ;
(PID.TID 0000.0001) tempSOM_Advection = /* use 2nd Order Moment Advection for Temp */
(PID.TID 0000.0001)                   F
(PID.TID 0000.0001)     ;
(PID.TID 0000.0001) AdamsBashforthGt = /* apply Adams-Bashforth extrapolation on Gt */
(PID.TID 0000.0001)                   F
(PID.TID 0000.0001)     ;
(PID.TID 0000.0001) AdamsBashforth_T = /* apply Adams-Bashforth extrapolation on Temp */
(PID.TID 0000.0001)                   F
(PID.TID 0000.0001)     ;
(PID.TID 0000.0001) saltAdvScheme =   /* Salt. Horiz.advection scheme selector */
(PID.TID 0000.0001)                      77
(PID.TID 0000.0001)     ;
(PID.TID 0000.0001) saltVertAdvScheme =   /* Salt. Vert. Advection scheme selector */
(PID.TID 0000.0001)                      77
(PID.TID 0000.0001)     ;
(PID.TID 0000.0001) saltMultiDimAdvec =   /* use Muti-Dim Advec method for Salt */
(PID.TID 0000.0001)                   T
(PID.TID 0000.0001)     ;
(PID.TID 0000.0001) saltSOM_Advection = /* use 2nd Order Moment Advection for Salt */
(PID.TID 0000.0001)                   F
(PID.TID 0000.0001)     ;
(PID.TID 0000.0001) AdamsBashforthGs = /* apply Adams-Bashforth extrapolation on Gs */
(PID.TID 0000.0001)                   F
(PID.TID 0000.0001)     ;
(PID.TID 0000.0001) AdamsBashforth_S = /* apply Adams-Bashforth extrapolation on Salt */
(PID.TID 0000.0001)                   F
(PID.TID 0000.0001)     ;
(PID.TID 0000.0001) // ===================================
(PID.TID 0000.0001)  MDS_READ_FIELD: opening global file: shelficeMass.Lin.bin
(PID.TID 0000.0001)  MDS_READ_FIELD: opening global file: shelfice_dMdt.r02.bin
(PID.TID 0000.0001) ------------------------------------------------------------
(PID.TID 0000.0001) DIAGNOSTICS_SET_LEVELS: done
(PID.TID 0000.0001)  Total Nb of available Diagnostics: ndiagt=   206
(PID.TID 0000.0001)  write list of available Diagnostics to file: available_diagnostics.log
(PID.TID 0000.0001) SETDIAG: Allocate  1 x  1 Levels for Diagnostic #    23 ETAN
(PID.TID 0000.0001) SETDIAG: Allocate  1 x  1 Levels for Diagnostic #    96 RSURF
(PID.TID 0000.0001) SETDIAG: Allocate  1 x  1 Levels for Diagnostic #    80 oceTAUX
(PID.TID 0000.0001) SETDIAG: Allocate  1 x  1 Levels for Diagnostic #    81 oceTAUY
(PID.TID 0000.0001) SETDIAG: Allocate  1 x  1 Levels for Diagnostic #    86 oceQnet
(PID.TID 0000.0001) SETDIAG: Allocate  1 x  1 Levels for Diagnostic #    84 oceFWflx
(PID.TID 0000.0001) SETDIAG: Allocate  1 x  1 Levels for Diagnostic #    77 MXLDEPTH
(PID.TID 0000.0001) SETDIAG: Allocate  1 x  1 Levels for Diagnostic #   196 SHIfwFlx
(PID.TID 0000.0001) SETDIAG: Allocate  1 x  1 Levels for Diagnostic #   197 SHIhtFlx
(PID.TID 0000.0001) SETDIAG: Allocate  1 x  1 Levels for Diagnostic #   202 SHIgammT
(PID.TID 0000.0001) SETDIAG: Allocate  1 x  1 Levels for Diagnostic #   203 SHIgammS
(PID.TID 0000.0001) SETDIAG: Allocate  1 x  1 Levels for Diagnostic #   205 SHI_mass
(PID.TID 0000.0001) SETDIAG: Allocate  1 x  1 Levels for Diagnostic #   204 SHIuStar
(PID.TID 0000.0001) SETDIAG: Allocate 90 x  1 Levels for Diagnostic #    30 UVEL
(PID.TID 0000.0001) SETDIAG: Allocate 90 x  1 Levels for Diagnostic #    31 VVEL
(PID.TID 0000.0001) SETDIAG: Allocate 90 x  1 Levels for Diagnostic #    32 WVEL
(PID.TID 0000.0001) SETDIAG: Allocate 90 x  1 Levels for Diagnostic #    26 THETA
(PID.TID 0000.0001) SETDIAG: Allocate 90 x  1 Levels for Diagnostic #    27 SALT
(PID.TID 0000.0001) SETDIAG: Allocate 90 x  1 Levels for Diagnostic #    64 RHOAnoma
(PID.TID 0000.0001) SETDIAG: Allocate 90 x  1 Levels for Diagnostic #    79 CONVADJ
(PID.TID 0000.0001) SETDIAG: Allocate 90 x  1 Levels for Diagnostic #    97 hFactorC
(PID.TID 0000.0001) SETDIAG: Allocate 90 x  1 Levels for Diagnostic #    98 hFactorW
(PID.TID 0000.0001) SETDIAG: Allocate 90 x  1 Levels for Diagnostic #    99 hFactorS
(PID.TID 0000.0001)   space allocated for all diagnostics:     913 levels
(PID.TID 0000.0001)   set mate pointer for diag #    80  oceTAUX  , Parms: UU      U1 , mate:    81
(PID.TID 0000.0001)   set mate pointer for diag #    81  oceTAUY  , Parms: VV      U1 , mate:    80
(PID.TID 0000.0001)   set mate pointer for diag #    30  UVEL     , Parms: UUR     MR , mate:    31
(PID.TID 0000.0001)   set mate pointer for diag #    31  VVEL     , Parms: VVR     MR , mate:    30
(PID.TID 0000.0001)   set mate pointer for diag #    98  hFactorW , Parms: SUr     MR , mate:    99
(PID.TID 0000.0001)   set mate pointer for diag #    99  hFactorS , Parms: SVr     MR , mate:    98
(PID.TID 0000.0001) DIAGNOSTICS_SET_POINTERS: Set levels for Outp.Stream: surfDiag
(PID.TID 0000.0001)  Levels:       1.
(PID.TID 0000.0001) DIAGNOSTICS_SET_POINTERS: Set levels for Outp.Stream: dynDiag
(PID.TID 0000.0001)  Levels:       1.   2.   3.   4.   5.   6.   7.   8.   9.  10.  11.  12.  13.  14.  15.  16.  17.  18.  19.  20.
(PID.TID 0000.0001)  Levels:      21.  22.  23.  24.  25.  26.  27.  28.  29.  30.  31.  32.  33.  34.  35.  36.  37.  38.  39.  40.
(PID.TID 0000.0001)  Levels:      41.  42.  43.  44.  45.  46.  47.  48.  49.  50.  51.  52.  53.  54.  55.  56.  57.  58.  59.  60.
(PID.TID 0000.0001)  Levels:      61.  62.  63.  64.  65.  66.  67.  68.  69.  70.  71.  72.  73.  74.  75.  76.  77.  78.  79.  80.
(PID.TID 0000.0001)  Levels:      81.  82.  83.  84.  85.  86.  87.  88.  89.  90.
(PID.TID 0000.0001) DIAGNOSTICS_SET_POINTERS: done
(PID.TID 0000.0001) ------------------------------------------------------------
 DIAGSTATS_SET_REGIONS: start reading region-mask file: under_Ice_mask.bin
 DIAGSTATS_SET_REGIONS:  reading set k=  1
(PID.TID 0000.0001)  MDS_READ_FIELD: opening global file: under_Ice_mask.bin
 DIAGSTATS_SET_REGIONS:          set k=  1 <= done
(PID.TID 0000.0001) DIAGSTATS_SET_REGIONS: define   2 regions:  1  2
(PID.TID 0000.0001) ------------------------------------------------------------
(PID.TID 0000.0001) SETDIAG: Allocate  1 Levels for Stats-Diag #    23 ETAN
(PID.TID 0000.0001) SETDIAG: Allocate 90 Levels for Stats-Diag #    26 THETA
(PID.TID 0000.0001) SETDIAG: Allocate 90 Levels for Stats-Diag #    27 SALT
(PID.TID 0000.0001) SETDIAG: Allocate 90 Levels for Stats-Diag #    30 UVEL
(PID.TID 0000.0001) SETDIAG: Allocate 90 Levels for Stats-Diag #    31 VVEL
(PID.TID 0000.0001) SETDIAG: Allocate 90 Levels for Stats-Diag #    32 WVEL
(PID.TID 0000.0001) SETDIAG: Allocate  1 Levels for Stats-Diag #    23 ETAN
(PID.TID 0000.0001) SETDIAG: Allocate  1 Levels for Stats-Diag #    96 RSURF
(PID.TID 0000.0001)   space allocated for all stats-diags:     453 levels
(PID.TID 0000.0001) DIAGSTATS_SET_POINTERS: done
(PID.TID 0000.0001) ------------------------------------------------------------
(PID.TID 0000.0001) DIAGSTATS_INI_IO: open file: dynStDiag.0000002898.txt , unit=     9
(PID.TID 0000.0001) DIAGSTATS_INI_IO: open file: surfStDiag.0000002898.txt , unit=    10
(PID.TID 0000.0001) %MON fCori_max                    =  -1.4015159676789E-04
(PID.TID 0000.0001) %MON fCori_min                    =  -1.4119455364709E-04
(PID.TID 0000.0001) %MON fCori_mean                   =  -1.4068166365717E-04
(PID.TID 0000.0001) %MON fCori_sd                     =   3.0261365422877E-07
(PID.TID 0000.0001) %MON fCoriG_max                   =  -1.4015434690248E-04
(PID.TID 0000.0001) %MON fCoriG_min                   =  -1.4119704352640E-04
(PID.TID 0000.0001) %MON fCoriG_mean                  =  -1.4068428382408E-04
(PID.TID 0000.0001) %MON fCoriG_sd                    =   3.0253815470279E-07
(PID.TID 0000.0001) %MON fCoriCos_max                 =   4.0342980532288E-05
(PID.TID 0000.0001) %MON fCoriCos_min                 =   3.6525664610211E-05
(PID.TID 0000.0001) %MON fCoriCos_mean                =   3.8436669084574E-05
(PID.TID 0000.0001) %MON fCoriCos_sd                  =   1.1075017508994E-06
(PID.TID 0000.0001) INI_CG2D: CG2D normalisation factor =  2.5122464529823177E-04
(PID.TID 0000.0001) 
(PID.TID 0000.0001) // =======================================================
(PID.TID 0000.0001) // Model configuration
(PID.TID 0000.0001) // =======================================================
(PID.TID 0000.0001) //
(PID.TID 0000.0001) // "Physical" paramters ( PARM01 in namelist )
(PID.TID 0000.0001) //
(PID.TID 0000.0001) buoyancyRelation = /* Type of relation to get Buoyancy */
(PID.TID 0000.0001)               'OCEANIC'
(PID.TID 0000.0001)     ;
(PID.TID 0000.0001) fluidIsAir   =  /* fluid major constituent is Air */
(PID.TID 0000.0001)                   F
(PID.TID 0000.0001)     ;
(PID.TID 0000.0001) fluidIsWater =  /* fluid major constituent is Water */
(PID.TID 0000.0001)                   T
(PID.TID 0000.0001)     ;
(PID.TID 0000.0001) usingPCoords =  /* use p (or p*) vertical coordinate */
(PID.TID 0000.0001)                   F
(PID.TID 0000.0001)     ;
(PID.TID 0000.0001) usingZCoords =  /* use z (or z*) vertical coordinate */
(PID.TID 0000.0001)                   T
(PID.TID 0000.0001)     ;
(PID.TID 0000.0001) tRef =   /* Reference temperature profile ( oC or K ) */
(PID.TID 0000.0001)    90 @ -1.900000000000000E+00              /* K =  1: 90 */
(PID.TID 0000.0001)     ;
(PID.TID 0000.0001) sRef =   /* Reference salinity profile ( psu ) */
(PID.TID 0000.0001)    90 @  3.440000000000000E+01              /* K =  1: 90 */
(PID.TID 0000.0001)     ;
(PID.TID 0000.0001) useStrainTensionVisc= /* Use StrainTension Form of Viscous Operator */
(PID.TID 0000.0001)                   F
(PID.TID 0000.0001)     ;
(PID.TID 0000.0001) useVariableVisc = /* Use variable horizontal viscosity */
(PID.TID 0000.0001)                   F
(PID.TID 0000.0001)     ;
(PID.TID 0000.0001) useHarmonicVisc = /* Use harmonic horizontal viscosity */
(PID.TID 0000.0001)                   T
(PID.TID 0000.0001)     ;
(PID.TID 0000.0001) useBiharmonicVisc= /* Use biharmonic horiz.  viscosity */
(PID.TID 0000.0001)                   F
(PID.TID 0000.0001)     ;
(PID.TID 0000.0001) useSmag3D = /* Use isotropic 3-D Smagorinsky viscosity */
(PID.TID 0000.0001)                   F
(PID.TID 0000.0001)     ;
(PID.TID 0000.0001) viscAh  =   /* Lateral harmonic viscosity ( m^2/s ) */
(PID.TID 0000.0001)                 3.000000000000000E+02
(PID.TID 0000.0001)     ;
(PID.TID 0000.0001) viscA4  =   /* Lateral biharmonic viscosity ( m^4/s ) */
(PID.TID 0000.0001)                 0.000000000000000E+00
(PID.TID 0000.0001)     ;
(PID.TID 0000.0001) no_slip_sides =  /* Viscous BCs: No-slip sides */
(PID.TID 0000.0001)                   F
(PID.TID 0000.0001)     ;
(PID.TID 0000.0001) sideDragFactor = /* side-drag scaling factor (non-dim) */
(PID.TID 0000.0001)                 2.000000000000000E+00
(PID.TID 0000.0001)     ;
(PID.TID 0000.0001) viscArNr = /* vertical profile of vertical viscosity ( m^2/s )*/
(PID.TID 0000.0001)    90 @  1.000000000000000E-03              /* K =  1: 90 */
(PID.TID 0000.0001)     ;
(PID.TID 0000.0001) no_slip_bottom =  /* Viscous BCs: No-slip bottom */
(PID.TID 0000.0001)                   F
(PID.TID 0000.0001)     ;
(PID.TID 0000.0001) bottomVisc_pCell = /* Partial-cell in bottom Visc. BC */
(PID.TID 0000.0001)                   F
(PID.TID 0000.0001)     ;
(PID.TID 0000.0001) bottomDragLinear = /* linear bottom-drag coefficient ( m/s ) */
(PID.TID 0000.0001)                 0.000000000000000E+00
(PID.TID 0000.0001)     ;
(PID.TID 0000.0001) bottomDragQuadratic = /* quadratic bottom-drag coefficient (-) */
(PID.TID 0000.0001)                 2.500000000000000E-03
(PID.TID 0000.0001)     ;
(PID.TID 0000.0001) selectBotDragQuadr = /* select quadratic bottom drag options */
(PID.TID 0000.0001)                       1
(PID.TID 0000.0001)     ;
(PID.TID 0000.0001) diffKhT =   /* Laplacian diffusion of heat laterally ( m^2/s ) */
(PID.TID 0000.0001)                 1.000000000000000E+01
(PID.TID 0000.0001)     ;
(PID.TID 0000.0001) diffK4T =   /* Biharmonic diffusion of heat laterally ( m^4/s ) */
(PID.TID 0000.0001)                 0.000000000000000E+00
(PID.TID 0000.0001)     ;
(PID.TID 0000.0001) diffKhS =   /* Laplacian diffusion of salt laterally ( m^2/s ) */
(PID.TID 0000.0001)                 1.000000000000000E+01
(PID.TID 0000.0001)     ;
(PID.TID 0000.0001) diffK4S =   /* Biharmonic diffusion of salt laterally ( m^4/s ) */
(PID.TID 0000.0001)                 0.000000000000000E+00
(PID.TID 0000.0001)     ;
(PID.TID 0000.0001) diffKrNrT = /* vertical profile of vertical diffusion of Temp ( m^2/s )*/
(PID.TID 0000.0001)    90 @  5.000000000000000E-05              /* K =  1: 90 */
(PID.TID 0000.0001)     ;
(PID.TID 0000.0001) diffKrNrS = /* vertical profile of vertical diffusion of Salt ( m^2/s )*/
(PID.TID 0000.0001)    90 @  5.000000000000000E-05              /* K =  1: 90 */
(PID.TID 0000.0001)     ;
(PID.TID 0000.0001) diffKrBL79surf = /* Surface diffusion for Bryan and Lewis 79 ( m^2/s ) */
(PID.TID 0000.0001)                 0.000000000000000E+00
(PID.TID 0000.0001)     ;
(PID.TID 0000.0001) diffKrBL79deep = /* Deep diffusion for Bryan and Lewis 1979 ( m^2/s ) */
(PID.TID 0000.0001)                 0.000000000000000E+00
(PID.TID 0000.0001)     ;
(PID.TID 0000.0001) diffKrBL79scl = /* Depth scale for Bryan and Lewis 1979 ( m ) */
(PID.TID 0000.0001)                 2.000000000000000E+02
(PID.TID 0000.0001)     ;
(PID.TID 0000.0001) diffKrBL79Ho = /* Turning depth for Bryan and Lewis 1979 ( m ) */
(PID.TID 0000.0001)                -2.000000000000000E+03
(PID.TID 0000.0001)     ;
(PID.TID 0000.0001) ivdc_kappa = /* Implicit Vertical Diffusivity for Convection ( m^2/s) */
(PID.TID 0000.0001)                 1.000000000000000E+00
(PID.TID 0000.0001)     ;
(PID.TID 0000.0001) hMixCriteria=  /* Criteria for mixed-layer diagnostic */
(PID.TID 0000.0001)                -8.000000000000000E-01
(PID.TID 0000.0001)     ;
(PID.TID 0000.0001) dRhoSmall =  /* Parameter for mixed-layer diagnostic */
(PID.TID 0000.0001)                 1.000000000000000E-06
(PID.TID 0000.0001)     ;
(PID.TID 0000.0001) hMixSmooth=  /* Smoothing parameter for mixed-layer diagnostic */
(PID.TID 0000.0001)                 0.000000000000000E+00
(PID.TID 0000.0001)     ;
(PID.TID 0000.0001) eosType =  /* Type of Equation of State */
(PID.TID 0000.0001)               'JMD95Z'
(PID.TID 0000.0001)     ;
(PID.TID 0000.0001) selectP_inEOS_Zc = /* select pressure to use in EOS (0,1,2,3) */
(PID.TID 0000.0001)                       0
(PID.TID 0000.0001)     0= -g*rhoConst*z ; 1= pRef (from tRef,sRef); 2= Hyd P ; 3= Hyd+NH P
(PID.TID 0000.0001)     ;
(PID.TID 0000.0001) HeatCapacity_Cp =  /* Specific heat capacity ( J/kg/K ) */
(PID.TID 0000.0001)                 3.974000000000000E+03
(PID.TID 0000.0001)     ;
(PID.TID 0000.0001) celsius2K = /* 0 degree Celsius converted to Kelvin ( K ) */
(PID.TID 0000.0001)                 2.731500000000000E+02
(PID.TID 0000.0001)     ;
(PID.TID 0000.0001) rhoConst  = /* Reference density (Boussinesq)  ( kg/m^3 ) */
(PID.TID 0000.0001)                 1.030000000000000E+03
(PID.TID 0000.0001)     ;
(PID.TID 0000.0001) rhoFacC = /* normalized Reference density @ cell-Center (-) */
(PID.TID 0000.0001)    90 @  1.000000000000000E+00              /* K =  1: 90 */
(PID.TID 0000.0001)     ;
(PID.TID 0000.0001) rhoFacF = /* normalized Reference density @ W-Interface (-) */
(PID.TID 0000.0001)    91 @  1.000000000000000E+00              /* K =  1: 91 */
(PID.TID 0000.0001)     ;
(PID.TID 0000.0001) rhoConstFresh = /* Fresh-water reference density ( kg/m^3 ) */
(PID.TID 0000.0001)                 1.030000000000000E+03
(PID.TID 0000.0001)     ;
(PID.TID 0000.0001) gravity =   /* Gravitational acceleration ( m/s^2 ) */
(PID.TID 0000.0001)                 9.810000000000000E+00
(PID.TID 0000.0001)     ;
(PID.TID 0000.0001) gBaro =   /* Barotropic gravity ( m/s^2 ) */
(PID.TID 0000.0001)                 9.810000000000000E+00
(PID.TID 0000.0001)     ;
(PID.TID 0000.0001) gravFacC = /* gravity factor (vs surf.) @ cell-Center (-) */
(PID.TID 0000.0001)    90 @  1.000000000000000E+00              /* K =  1: 90 */
(PID.TID 0000.0001)     ;
(PID.TID 0000.0001) gravFacF = /* gravity factor (vs surf.) @ W-Interface (-) */
(PID.TID 0000.0001)    91 @  1.000000000000000E+00              /* K =  1: 91 */
(PID.TID 0000.0001)     ;
(PID.TID 0000.0001) rotationPeriod =   /* Rotation Period ( s ) */
(PID.TID 0000.0001)                 8.616400000000000E+04
(PID.TID 0000.0001)     ;
(PID.TID 0000.0001) omega =   /* Angular velocity ( rad/s ) */
(PID.TID 0000.0001)                 7.292123516990375E-05
(PID.TID 0000.0001)     ;
(PID.TID 0000.0001) f0 =   /* Reference coriolis parameter ( 1/s ) */
(PID.TID 0000.0001)                 1.000000000000000E-04
(PID.TID 0000.0001)     ;
(PID.TID 0000.0001) beta =   /* Beta ( 1/(m.s) ) */
(PID.TID 0000.0001)                 9.999999999999999E-12
(PID.TID 0000.0001)     ;
(PID.TID 0000.0001) fPrime =   /* Second coriolis parameter ( 1/s ) */
(PID.TID 0000.0001)                 0.000000000000000E+00
(PID.TID 0000.0001)     ;
(PID.TID 0000.0001) rigidLid =   /* Rigid lid on/off flag */
(PID.TID 0000.0001)                   F
(PID.TID 0000.0001)     ;
(PID.TID 0000.0001) implicitFreeSurface =   /* Implicit free surface on/off flag */
(PID.TID 0000.0001)                   T
(PID.TID 0000.0001)     ;
(PID.TID 0000.0001) freeSurfFac =   /* Implicit free surface factor */
(PID.TID 0000.0001)                 1.000000000000000E+00
(PID.TID 0000.0001)     ;
(PID.TID 0000.0001) implicSurfPress =  /* Surface Pressure implicit factor (0-1)*/
(PID.TID 0000.0001)                 1.000000000000000E+00
(PID.TID 0000.0001)     ;
(PID.TID 0000.0001) implicDiv2DFlow =  /* Barot. Flow Div. implicit factor (0-1)*/
(PID.TID 0000.0001)                 1.000000000000000E+00
(PID.TID 0000.0001)     ;
(PID.TID 0000.0001) uniformLin_PhiSurf = /* use uniform Bo_surf on/off flag*/
(PID.TID 0000.0001)                   T
(PID.TID 0000.0001)     ;
(PID.TID 0000.0001) uniformFreeSurfLev = /* free-surface level-index is uniform */
(PID.TID 0000.0001)                   F
(PID.TID 0000.0001)     ;
(PID.TID 0000.0001) hFacMin =   /* minimum partial cell factor (hFac) */
(PID.TID 0000.0001)                 1.000000000000000E-01
(PID.TID 0000.0001)     ;
(PID.TID 0000.0001) hFacMinDr = /* minimum partial cell thickness ( m) */
(PID.TID 0000.0001)                 0.000000000000000E+00
(PID.TID 0000.0001)     ;
(PID.TID 0000.0001) exactConserv =  /* Exact Volume Conservation on/off flag*/
(PID.TID 0000.0001)                   T
(PID.TID 0000.0001)     ;
(PID.TID 0000.0001) linFSConserveTr = /* Tracer correction for Lin Free Surface on/off flag*/
(PID.TID 0000.0001)                   F
(PID.TID 0000.0001)     ;
(PID.TID 0000.0001) nonlinFreeSurf = /* Non-linear Free Surf. options (-1,0,1,2,3)*/
(PID.TID 0000.0001)                       4
(PID.TID 0000.0001)      -1,0= Off ; 1,2,3= On, 2=+rescale gU,gV, 3=+update cg2d solv.
(PID.TID 0000.0001)     ;
(PID.TID 0000.0001) hFacInf =   /* lower threshold for hFac (nonlinFreeSurf only)*/
(PID.TID 0000.0001)                 5.000000000000000E-02
(PID.TID 0000.0001)     ;
(PID.TID 0000.0001) hFacSup =   /* upper threshold for hFac (nonlinFreeSurf only)*/
(PID.TID 0000.0001)                 2.000000000000000E+00
(PID.TID 0000.0001)     ;
(PID.TID 0000.0001) select_rStar = /* r* Vertical coord. options (=0 r coord.; >0 uses r*)*/
(PID.TID 0000.0001)                       0
(PID.TID 0000.0001)     ;
(PID.TID 0000.0001) useRealFreshWaterFlux = /* Real Fresh Water Flux on/off flag*/
(PID.TID 0000.0001)                   T
(PID.TID 0000.0001)     ;
(PID.TID 0000.0001) temp_EvPrRn = /* Temp. of Evap/Prec/R (UNSET=use local T)(oC)*/
(PID.TID 0000.0001)                 1.234567000000000E+05
(PID.TID 0000.0001)     ;
(PID.TID 0000.0001) salt_EvPrRn = /* Salin. of Evap/Prec/R (UNSET=use local S)(psu)*/
(PID.TID 0000.0001)                 0.000000000000000E+00
(PID.TID 0000.0001)     ;
(PID.TID 0000.0001) selectAddFluid = /* option for mass source/sink of fluid (=0: off) */
(PID.TID 0000.0001)                       0
(PID.TID 0000.0001)     ;
(PID.TID 0000.0001) temp_addMass = /* Temp. of addMass array (UNSET=use local T)(oC)*/
(PID.TID 0000.0001)                 1.234567000000000E+05
(PID.TID 0000.0001)     ;
(PID.TID 0000.0001) salt_addMass = /* Salin. of addMass array (UNSET=use local S)(psu)*/
(PID.TID 0000.0001)                 0.000000000000000E+00
(PID.TID 0000.0001)     ;
(PID.TID 0000.0001) use3Dsolver = /* use 3-D pressure solver on/off flag */
(PID.TID 0000.0001)                   F
(PID.TID 0000.0001)     ;
(PID.TID 0000.0001) nonHydrostatic =  /* Non-Hydrostatic on/off flag */
(PID.TID 0000.0001)                   F
(PID.TID 0000.0001)     ;
(PID.TID 0000.0001) nh_Am2 = /* Non-Hydrostatic terms scaling factor */
(PID.TID 0000.0001)                 1.000000000000000E+00
(PID.TID 0000.0001)     ;
(PID.TID 0000.0001) implicitNHPress = /* Non-Hyd Pressure implicit factor (0-1)*/
(PID.TID 0000.0001)                 1.000000000000000E+00
(PID.TID 0000.0001)     ;
(PID.TID 0000.0001) selectNHfreeSurf = /* Non-Hyd (free-)Surface option */
(PID.TID 0000.0001)                       0
(PID.TID 0000.0001)     ;
(PID.TID 0000.0001) quasiHydrostatic = /* Quasi-Hydrostatic on/off flag */
(PID.TID 0000.0001)                   F
(PID.TID 0000.0001)     ;
(PID.TID 0000.0001) calc_wVelocity = /* vertical velocity calculation on/off flag */
(PID.TID 0000.0001)                   T
(PID.TID 0000.0001)     ;
(PID.TID 0000.0001) momStepping =  /* Momentum equation on/off flag */
(PID.TID 0000.0001)                   T
(PID.TID 0000.0001)     ;
(PID.TID 0000.0001) vectorInvariantMomentum= /* Vector-Invariant Momentum on/off */
(PID.TID 0000.0001)                   T
(PID.TID 0000.0001)     ;
(PID.TID 0000.0001) momAdvection =  /* Momentum advection on/off flag */
(PID.TID 0000.0001)                   T
(PID.TID 0000.0001)     ;
(PID.TID 0000.0001) momViscosity =  /* Momentum viscosity on/off flag */
(PID.TID 0000.0001)                   T
(PID.TID 0000.0001)     ;
(PID.TID 0000.0001) momImplVertAdv= /* Momentum implicit vert. advection on/off*/
(PID.TID 0000.0001)                   F
(PID.TID 0000.0001)     ;
(PID.TID 0000.0001) implicitViscosity = /* Implicit viscosity on/off flag */
(PID.TID 0000.0001)                   T
(PID.TID 0000.0001)     ;
(PID.TID 0000.0001) selectImplicitDrag= /* Implicit bot Drag options (0,1,2)*/
(PID.TID 0000.0001)                       2
(PID.TID 0000.0001)     0= Expl. ; 1= Impl. on provis. Vel ; 2= Fully Impl (with surf.P)
(PID.TID 0000.0001)     ;
(PID.TID 0000.0001) metricTerms =  /* metric-Terms on/off flag */
(PID.TID 0000.0001)                   T
(PID.TID 0000.0001)     ;
(PID.TID 0000.0001) useNHMTerms = /* Non-Hydrostatic Metric-Terms on/off */
(PID.TID 0000.0001)                   F
(PID.TID 0000.0001)     ;
(PID.TID 0000.0001) selectCoriMap = /* Coriolis Map options (0,1,2,3)*/
(PID.TID 0000.0001)                       2
(PID.TID 0000.0001)     0= f-Plane ; 1= Beta-Plane ; 2= Spherical ; 3= read from file
(PID.TID 0000.0001)     ;
(PID.TID 0000.0001) use3dCoriolis = /* 3-D Coriolis on/off flag */
(PID.TID 0000.0001)                   F
(PID.TID 0000.0001)     ;
(PID.TID 0000.0001) useCoriolis =  /* Coriolis on/off flag */
(PID.TID 0000.0001)                   T
(PID.TID 0000.0001)     ;
(PID.TID 0000.0001) useCDscheme =  /* CD scheme on/off flag */
(PID.TID 0000.0001)                   F
(PID.TID 0000.0001)     ;
(PID.TID 0000.0001) selectCoriScheme= /* Scheme selector for Coriolis-Term */
(PID.TID 0000.0001)                       1
(PID.TID 0000.0001)    = 0 : original discretization (simple averaging, no hFac)
(PID.TID 0000.0001)    = 1 : Wet-point averaging (Jamar & Ozer 1986)
(PID.TID 0000.0001)    = 2 : hFac weighted average (Angular Mom. conserving)
(PID.TID 0000.0001)    = 3 : energy conserving scheme using hFac weighted average
(PID.TID 0000.0001)     ;
(PID.TID 0000.0001) useAbsVorticity= /* V.I Works with f+zeta in Coriolis */
(PID.TID 0000.0001)                   F
(PID.TID 0000.0001)     ;
(PID.TID 0000.0001) selectVortScheme= /* V.I Scheme selector for Vorticity-Term */
(PID.TID 0000.0001)                       1
(PID.TID 0000.0001)    = 0 : enstrophy (Shallow-Water Eq.) conserving scheme by Sadourny, JAS 75
(PID.TID 0000.0001)    = 1 : same as 0 with modified hFac
(PID.TID 0000.0001)    = 2 : energy conserving scheme (used by Sadourny in JAS 75 paper)
(PID.TID 0000.0001)    = 3 : energy (general) and enstrophy (2D, nonDiv.) conserving scheme
(PID.TID 0000.0001)          from Sadourny (Burridge & Haseler, ECMWF Rep.4, 1977)
(PID.TID 0000.0001)     ;
(PID.TID 0000.0001) useJamartMomAdv= /* V.I Non-linear terms Jamart flag */
(PID.TID 0000.0001)                   F
(PID.TID 0000.0001)     ;
(PID.TID 0000.0001) upwindVorticity= /* V.I Upwind bias vorticity flag */
(PID.TID 0000.0001)                   F
(PID.TID 0000.0001)     ;
(PID.TID 0000.0001) highOrderVorticity= /* V.I High order vort. advect. flag */
(PID.TID 0000.0001)                   F
(PID.TID 0000.0001)     ;
(PID.TID 0000.0001) upwindShear= /* V.I Upwind vertical Shear advection flag */
(PID.TID 0000.0001)                   F
(PID.TID 0000.0001)     ;
(PID.TID 0000.0001) selectKEscheme= /* V.I Kinetic Energy scheme selector */
(PID.TID 0000.0001)                       0
(PID.TID 0000.0001)     ;
(PID.TID 0000.0001) momForcing =  /* Momentum forcing on/off flag */
(PID.TID 0000.0001)                   T
(PID.TID 0000.0001)     ;
(PID.TID 0000.0001) momTidalForcing = /* Momentum Tidal forcing on/off flag */
(PID.TID 0000.0001)                   T
(PID.TID 0000.0001)     ;
(PID.TID 0000.0001) momPressureForcing =  /* Momentum pressure term on/off flag */
(PID.TID 0000.0001)                   T
(PID.TID 0000.0001)     ;
(PID.TID 0000.0001) implicitIntGravWave= /* Implicit Internal Gravity Wave flag */
(PID.TID 0000.0001)                   F
(PID.TID 0000.0001)     ;
(PID.TID 0000.0001) staggerTimeStep =    /* Stagger time stepping on/off flag */
(PID.TID 0000.0001)                   T
(PID.TID 0000.0001)     ;
(PID.TID 0000.0001) doResetHFactors = /* reset thickness factors @ each time-step */
(PID.TID 0000.0001)                   F
(PID.TID 0000.0001)     ;
(PID.TID 0000.0001) multiDimAdvection =  /* enable/disable Multi-Dim Advection */
(PID.TID 0000.0001)                   T
(PID.TID 0000.0001)     ;
(PID.TID 0000.0001) useMultiDimAdvec =   /* Multi-Dim Advection is/is-not used */
(PID.TID 0000.0001)                   T
(PID.TID 0000.0001)     ;
(PID.TID 0000.0001) implicitDiffusion = /* Implicit Diffusion on/off flag */
(PID.TID 0000.0001)                   T
(PID.TID 0000.0001)     ;
(PID.TID 0000.0001) tempStepping =  /* Temperature equation on/off flag */
(PID.TID 0000.0001)                   T
(PID.TID 0000.0001)     ;
(PID.TID 0000.0001) tempAdvection = /* Temperature advection on/off flag */
(PID.TID 0000.0001)                   T
(PID.TID 0000.0001)     ;
(PID.TID 0000.0001) tempImplVertAdv = /* Temp. implicit vert. advection on/off */
(PID.TID 0000.0001)                   F
(PID.TID 0000.0001)     ;
(PID.TID 0000.0001) tempForcing  =  /* Temperature forcing on/off flag */
(PID.TID 0000.0001)                   T
(PID.TID 0000.0001)     ;
(PID.TID 0000.0001) doThetaClimRelax = /* apply SST relaxation on/off flag */
(PID.TID 0000.0001)                   F
(PID.TID 0000.0001)     ;
(PID.TID 0000.0001) tempIsActiveTr = /* Temp. is a dynamically Active Tracer */
(PID.TID 0000.0001)                   T
(PID.TID 0000.0001)     ;
(PID.TID 0000.0001) saltStepping =  /* Salinity equation on/off flag */
(PID.TID 0000.0001)                   T
(PID.TID 0000.0001)     ;
(PID.TID 0000.0001) saltAdvection = /* Salinity advection on/off flag */
(PID.TID 0000.0001)                   T
(PID.TID 0000.0001)     ;
(PID.TID 0000.0001) saltImplVertAdv = /* Sali. implicit vert. advection on/off */
(PID.TID 0000.0001)                   F
(PID.TID 0000.0001)     ;
(PID.TID 0000.0001) saltForcing  =  /* Salinity forcing on/off flag */
(PID.TID 0000.0001)                   T
(PID.TID 0000.0001)     ;
(PID.TID 0000.0001) doSaltClimRelax = /* apply SSS relaxation on/off flag */
(PID.TID 0000.0001)                   F
(PID.TID 0000.0001)     ;
(PID.TID 0000.0001) saltIsActiveTr = /* Salt  is a dynamically Active Tracer */
(PID.TID 0000.0001)                   T
(PID.TID 0000.0001)     ;
(PID.TID 0000.0001)  readBinaryPrec = /* Precision used for reading binary files */
(PID.TID 0000.0001)                      64
(PID.TID 0000.0001)     ;
(PID.TID 0000.0001) writeBinaryPrec = /* Precision used for writing binary files */
(PID.TID 0000.0001)                      64
(PID.TID 0000.0001)     ;
(PID.TID 0000.0001)  rwSuffixType =   /* select format of mds file suffix */
(PID.TID 0000.0001)                       0
(PID.TID 0000.0001)    = 0 : myIter (I10.10) ;   = 1 : 100*myTime (100th sec) ;
(PID.TID 0000.0001)    = 2 : myTime (seconds);   = 3 : myTime/360 (10th of hr);
(PID.TID 0000.0001)    = 4 : myTime/3600 (hours)
(PID.TID 0000.0001)     ;
(PID.TID 0000.0001)  globalFiles = /* write "global" (=not per tile) files */
(PID.TID 0000.0001)                   F
(PID.TID 0000.0001)     ;
(PID.TID 0000.0001)  useSingleCpuIO = /* only master MPI process does I/O */
(PID.TID 0000.0001)                   T
(PID.TID 0000.0001)     ;
(PID.TID 0000.0001)  useSingleCpuInput = /* only master process reads input */
(PID.TID 0000.0001)                   T
(PID.TID 0000.0001)     ;
(PID.TID 0000.0001) /* debLev[*]  : level of debug & auxiliary message printing */
(PID.TID 0000.0001) debLevZero =  0 ; /* level of disabled aux. msg printing */
(PID.TID 0000.0001)    debLevA =  1 ; /* level of minimum  aux. msg printing */
(PID.TID 0000.0001)    debLevB =  2 ; /* level of low aux. print (report read-file opening)*/
(PID.TID 0000.0001)    debLevC =  3 ; /* level of moderate debug prt (most pkgs debug msg) */
(PID.TID 0000.0001)    debLevD =  4 ; /* level of enhanced debug prt (add DEBUG_STATS prt) */
(PID.TID 0000.0001)    debLevE =  5 ; /* level of extensive debug printing */
(PID.TID 0000.0001) debugLevel =  /* select debug printing level */
(PID.TID 0000.0001)                       2
(PID.TID 0000.0001)     ;
(PID.TID 0000.0001)  plotLevel =  /* select PLOT_FIELD printing level */
(PID.TID 0000.0001)                       0
(PID.TID 0000.0001)     ;
(PID.TID 0000.0001) //
(PID.TID 0000.0001) // Elliptic solver(s) paramters ( PARM02 in namelist )
(PID.TID 0000.0001) //
(PID.TID 0000.0001) cg2dMaxIters =   /* Upper limit on 2d con. grad iterations  */
(PID.TID 0000.0001)                     300
(PID.TID 0000.0001)     ;
(PID.TID 0000.0001) cg2dChkResFreq =   /* 2d con. grad convergence test frequency */
(PID.TID 0000.0001)                       1
(PID.TID 0000.0001)     ;
(PID.TID 0000.0001) cg2dUseMinResSol= /* use cg2d last-iter(=0) / min-resid.(=1) solution */
(PID.TID 0000.0001)                       0
(PID.TID 0000.0001)     ;
(PID.TID 0000.0001) cg2dTargetResidual =   /* 2d con. grad target residual  */
(PID.TID 0000.0001)                 9.999999999999999E-12
(PID.TID 0000.0001)     ;
(PID.TID 0000.0001) cg2dTargetResWunit =   /* CG2d target residual [W units] */
(PID.TID 0000.0001)                -1.000000000000000E+00
(PID.TID 0000.0001)     ;
(PID.TID 0000.0001) cg2dPreCondFreq =   /* Freq. for updating cg2d preconditioner */
(PID.TID 0000.0001)                       1
(PID.TID 0000.0001)     ;
(PID.TID 0000.0001) useSRCGSolver =  /* use single reduction CG solver(s) */
(PID.TID 0000.0001)                   F
(PID.TID 0000.0001)     ;
(PID.TID 0000.0001) printResidualFreq = /* Freq. for printing CG residual */
(PID.TID 0000.0001)                       0
(PID.TID 0000.0001)     ;
(PID.TID 0000.0001) //
(PID.TID 0000.0001) // Time stepping paramters ( PARM03 in namelist )
(PID.TID 0000.0001) //
(PID.TID 0000.0001) deltaTMom =   /* Momentum equation timestep ( s ) */
(PID.TID 0000.0001)                 3.000000000000000E+02
(PID.TID 0000.0001)     ;
(PID.TID 0000.0001) deltaTFreeSurf = /* FreeSurface equation timestep ( s ) */
(PID.TID 0000.0001)                 3.000000000000000E+02
(PID.TID 0000.0001)     ;
(PID.TID 0000.0001) dTtracerLev =  /* Tracer equation timestep ( s ) */
(PID.TID 0000.0001)    90 @  3.000000000000000E+02              /* K =  1: 90 */
(PID.TID 0000.0001)     ;
(PID.TID 0000.0001) deltaTClock  =   /* Model clock timestep ( s ) */
(PID.TID 0000.0001)                 3.000000000000000E+02
(PID.TID 0000.0001)     ;
(PID.TID 0000.0001) cAdjFreq =   /* Convective adjustment interval ( s ) */
(PID.TID 0000.0001)                 0.000000000000000E+00
(PID.TID 0000.0001)     ;
(PID.TID 0000.0001) momForcingOutAB = /* =1: take Momentum Forcing out of Adams-Bash. stepping */
(PID.TID 0000.0001)                       1
(PID.TID 0000.0001)     ;
(PID.TID 0000.0001) tracForcingOutAB = /* =1: take T,S,pTr Forcing out of Adams-Bash. stepping */
(PID.TID 0000.0001)                       1
(PID.TID 0000.0001)     ;
(PID.TID 0000.0001) momDissip_In_AB = /* put Dissipation Tendency in Adams-Bash. stepping */
(PID.TID 0000.0001)                   T
(PID.TID 0000.0001)     ;
(PID.TID 0000.0001) doAB_onGtGs = /* apply AB on Tendencies (rather than on T,S)*/
(PID.TID 0000.0001)                   T
(PID.TID 0000.0001)     ;
(PID.TID 0000.0001) abEps =   /* Adams-Bashforth-2 stabilizing weight */
(PID.TID 0000.0001)                 1.000000000000000E-01
(PID.TID 0000.0001)     ;
(PID.TID 0000.0001) applyExchUV_early = /* Apply EXCH to U,V earlier in time-step */
(PID.TID 0000.0001)                   F
(PID.TID 0000.0001)     ;
(PID.TID 0000.0001) pickupStrictlyMatch= /* stop if pickup do not strictly match */
(PID.TID 0000.0001)                   T
(PID.TID 0000.0001)     ;
(PID.TID 0000.0001) nIter0   =   /* Run starting timestep number */
(PID.TID 0000.0001)                    2898
(PID.TID 0000.0001)     ;
(PID.TID 0000.0001) nTimeSteps = /* Number of timesteps */
(PID.TID 0000.0001)                      20
(PID.TID 0000.0001)     ;
(PID.TID 0000.0001) nEndIter =   /* Run ending timestep number */
(PID.TID 0000.0001)                    2918
(PID.TID 0000.0001)     ;
(PID.TID 0000.0001) baseTime =   /* Model base time ( s ) */
(PID.TID 0000.0001)                 0.000000000000000E+00
(PID.TID 0000.0001)     ;
(PID.TID 0000.0001) startTime =  /* Run start time ( s ) */
(PID.TID 0000.0001)                 8.694000000000000E+05
(PID.TID 0000.0001)     ;
(PID.TID 0000.0001) endTime  =   /* Integration ending time ( s ) */
(PID.TID 0000.0001)                 8.754000000000000E+05
(PID.TID 0000.0001)     ;
(PID.TID 0000.0001) pChkPtFreq = /* Permanent restart/pickup file interval ( s ) */
(PID.TID 0000.0001)                 2.592000000000000E+06
(PID.TID 0000.0001)     ;
(PID.TID 0000.0001) chkPtFreq  = /* Rolling restart/pickup file interval ( s ) */
(PID.TID 0000.0001)                 2.592000000000000E+06
(PID.TID 0000.0001)     ;
(PID.TID 0000.0001) pickup_write_mdsio =   /* Model IO flag. */
(PID.TID 0000.0001)                   T
(PID.TID 0000.0001)     ;
(PID.TID 0000.0001) pickup_read_mdsio =   /* Model IO flag. */
(PID.TID 0000.0001)                   T
(PID.TID 0000.0001)     ;
(PID.TID 0000.0001) writePickupAtEnd =   /* Model IO flag. */
(PID.TID 0000.0001)                   T
(PID.TID 0000.0001)     ;
(PID.TID 0000.0001) dumpFreq =   /* Model state write out interval ( s ). */
(PID.TID 0000.0001)                 1.080000000000000E+04
(PID.TID 0000.0001)     ;
(PID.TID 0000.0001) dumpInitAndLast= /* write out Initial & Last iter. model state */
(PID.TID 0000.0001)                   T
(PID.TID 0000.0001)     ;
(PID.TID 0000.0001) snapshot_mdsio =   /* Model IO flag. */
(PID.TID 0000.0001)                   T
(PID.TID 0000.0001)     ;
(PID.TID 0000.0001) monitorFreq =   /* Monitor output interval ( s ). */
(PID.TID 0000.0001)                 1.000000000000000E+00
(PID.TID 0000.0001)     ;
(PID.TID 0000.0001) monitorSelect = /* select group of variables to monitor */
(PID.TID 0000.0001)                       1
(PID.TID 0000.0001)     ;
(PID.TID 0000.0001) monitor_stdio =   /* Model IO flag. */
(PID.TID 0000.0001)                   T
(PID.TID 0000.0001)     ;
(PID.TID 0000.0001) externForcingPeriod =   /* forcing period (s) */
(PID.TID 0000.0001)                 0.000000000000000E+00
(PID.TID 0000.0001)     ;
(PID.TID 0000.0001) externForcingCycle =   /* period of the cyle (s). */
(PID.TID 0000.0001)                 0.000000000000000E+00
(PID.TID 0000.0001)     ;
(PID.TID 0000.0001) tauThetaClimRelax =   /* relaxation time scale (s) */
(PID.TID 0000.0001)                 0.000000000000000E+00
(PID.TID 0000.0001)     ;
(PID.TID 0000.0001) tauSaltClimRelax =   /* relaxation time scale (s) */
(PID.TID 0000.0001)                 0.000000000000000E+00
(PID.TID 0000.0001)     ;
(PID.TID 0000.0001) latBandClimRelax =   /* max. Lat. where relaxation */
(PID.TID 0000.0001)                 1.800000000000000E+02
(PID.TID 0000.0001)     ;
(PID.TID 0000.0001) //
(PID.TID 0000.0001) // Gridding paramters ( PARM04 in namelist )
(PID.TID 0000.0001) //
(PID.TID 0000.0001) usingCartesianGrid = /* Cartesian coordinates flag ( True/False ) */
(PID.TID 0000.0001)                   F
(PID.TID 0000.0001)     ;
(PID.TID 0000.0001) usingCylindricalGrid = /* Cylindrical coordinates flag ( True/False ) */
(PID.TID 0000.0001)                   F
(PID.TID 0000.0001)     ;
(PID.TID 0000.0001) usingSphericalPolarGrid = /* Spherical coordinates flag ( True/False ) */
(PID.TID 0000.0001)                   T
(PID.TID 0000.0001)     ;
(PID.TID 0000.0001) usingCurvilinearGrid = /* Curvilinear coordinates flag ( True/False ) */
(PID.TID 0000.0001)                   F
(PID.TID 0000.0001)     ;
(PID.TID 0000.0001) useMin4hFacEdges = /* set hFacW,S as minimum of adjacent hFacC factor */
(PID.TID 0000.0001)                   F
(PID.TID 0000.0001)     ;
(PID.TID 0000.0001) interViscAr_pCell = /* account for partial-cell in interior vert. viscosity */
(PID.TID 0000.0001)                   F
(PID.TID 0000.0001)     ;
(PID.TID 0000.0001) interDiffKr_pCell = /* account for partial-cell in interior vert. diffusion */
(PID.TID 0000.0001)                   F
(PID.TID 0000.0001)     ;
(PID.TID 0000.0001) pCellMix_select = /* option to enhance mixing near surface & bottom */
(PID.TID 0000.0001)                      20
(PID.TID 0000.0001)     ;
(PID.TID 0000.0001) pCellMix_maxFac = /* maximum enhanced mixing factor */
(PID.TID 0000.0001)                 1.000000000000000E+04
(PID.TID 0000.0001)     ;
(PID.TID 0000.0001) pCellMix_delR = /* thickness criteria for too thin partial-cell (  m ) */
(PID.TID 0000.0001)                 1.000000000000000E+01
(PID.TID 0000.0001)     ;
(PID.TID 0000.0001) pCellMix_viscAr = /* vertical viscosity   for too thin partial-cell */
(PID.TID 0000.0001)    90 @  1.000000000000000E-03              /* K =  1: 90 */
(PID.TID 0000.0001)     ;
(PID.TID 0000.0001) pCellMix_diffKr = /* vertical diffusivity for too thin partial-cell */
(PID.TID 0000.0001)    90 @  1.000000000000000E-04              /* K =  1: 90 */
(PID.TID 0000.0001)     ;
(PID.TID 0000.0001) selectSigmaCoord = /* Hybrid-Sigma Vert. Coordinate option */
(PID.TID 0000.0001)                       0
(PID.TID 0000.0001)     ;
(PID.TID 0000.0001) rSigmaBnd = /* r/sigma transition ( units of r ==  m ) */
(PID.TID 0000.0001)                 1.234567000000000E+05
(PID.TID 0000.0001)     ;
(PID.TID 0000.0001) rkSign =   /* index orientation relative to vertical coordinate */
(PID.TID 0000.0001)                -1.000000000000000E+00
(PID.TID 0000.0001)     ;
(PID.TID 0000.0001) gravitySign = /* gravity orientation relative to vertical coordinate */
(PID.TID 0000.0001)                -1.000000000000000E+00
(PID.TID 0000.0001)     ;
(PID.TID 0000.0001) seaLev_Z =  /* reference height of sea-level [m] */
(PID.TID 0000.0001)                 0.000000000000000E+00
(PID.TID 0000.0001)     ;
(PID.TID 0000.0001) top_Pres =  /* reference pressure at the top [Pa] */
(PID.TID 0000.0001)                 0.000000000000000E+00
(PID.TID 0000.0001)     ;
(PID.TID 0000.0001) mass2rUnit = /* convert mass per unit area [kg/m2] to r-units [m] */
(PID.TID 0000.0001)                 9.708737864077669E-04
(PID.TID 0000.0001)     ;
(PID.TID 0000.0001) rUnit2mass = /* convert r-units [m] to mass per unit area [kg/m2] */
(PID.TID 0000.0001)                 1.030000000000000E+03
(PID.TID 0000.0001)     ;
(PID.TID 0000.0001) drC =   /* C spacing ( units of r ) */
(PID.TID 0000.0001)                 5.000000000000000E+00,      /* K =  1 */
(PID.TID 0000.0001)    89 @  1.000000000000000E+01,             /* K =  2: 90 */
(PID.TID 0000.0001)                 5.000000000000000E+00       /* K = 91 */
(PID.TID 0000.0001)     ;
(PID.TID 0000.0001) drF =   /* W spacing ( units of r ) */
(PID.TID 0000.0001)    90 @  1.000000000000000E+01              /* K =  1: 90 */
(PID.TID 0000.0001)     ;
(PID.TID 0000.0001) delX = /* U spacing ( m - cartesian, degrees - spherical ) */
(PID.TID 0000.0001)                 1.250000000000000E-01       /* I =  1 */
(PID.TID 0000.0001)     ;
(PID.TID 0000.0001) delY = /* V spacing ( m - cartesian, degrees - spherical ) */
(PID.TID 0000.0001)   200 @  7.812500000000000E-03              /* J =  1:200 */
(PID.TID 0000.0001)     ;
(PID.TID 0000.0001) xgOrigin = /* X-axis origin of West  edge (cartesian: m, lat-lon: deg) */
(PID.TID 0000.0001)                 0.000000000000000E+00
(PID.TID 0000.0001)     ;
(PID.TID 0000.0001) ygOrigin = /* Y-axis origin of South edge (cartesian: m, lat-lon: deg) */
(PID.TID 0000.0001)                -7.550000000000000E+01
(PID.TID 0000.0001)     ;
(PID.TID 0000.0001) rSphere =  /* Radius ( ignored - cartesian, m - spherical ) */
(PID.TID 0000.0001)                 6.370000000000000E+06
(PID.TID 0000.0001)     ;
(PID.TID 0000.0001) deepAtmosphere = /* Deep/Shallow Atmosphere flag (True/False) */
(PID.TID 0000.0001)                   F
(PID.TID 0000.0001)     ;
(PID.TID 0000.0001) xC =  /* xC(:,1,:,1) : P-point X coord ( deg. or m if cartesian) */
(PID.TID 0000.0001)                 6.250000000000000E-02       /* I =  1 */
(PID.TID 0000.0001)     ;
(PID.TID 0000.0001) yC =  /* yC(1,:,1,:) : P-point Y coord ( deg. or m if cartesian) */
(PID.TID 0000.0001)                -7.549609375000000E+01,      /* J =  1 */
(PID.TID 0000.0001)                -7.548828125000000E+01,      /* J =  2 */
(PID.TID 0000.0001)                -7.548046875000000E+01,      /* J =  3 */
(PID.TID 0000.0001)      . . .
(PID.TID 0000.0001)                -7.512890625000000E+01,      /* J = 48 */
(PID.TID 0000.0001)                -7.512109375000000E+01,      /* J = 49 */
(PID.TID 0000.0001)                -7.511328125000000E+01,      /* J = 50 */
(PID.TID 0000.0001)                -7.510546875000000E+01,      /* J = 51 */
(PID.TID 0000.0001)                -7.509765625000000E+01,      /* J = 52 */
(PID.TID 0000.0001)                -7.508984375000000E+01,      /* J = 53 */
(PID.TID 0000.0001)      . . .
(PID.TID 0000.0001)                -7.473828125000000E+01,      /* J = 98 */
(PID.TID 0000.0001)                -7.473046875000000E+01,      /* J = 99 */
(PID.TID 0000.0001)                -7.472265625000000E+01,      /* J =100 */
(PID.TID 0000.0001)                -7.471484375000000E+01,      /* J =101 */
(PID.TID 0000.0001)                -7.470703125000000E+01,      /* J =102 */
(PID.TID 0000.0001)                -7.469921875000000E+01,      /* J =103 */
(PID.TID 0000.0001)      . . .
(PID.TID 0000.0001)                -7.434765625000000E+01,      /* J =148 */
(PID.TID 0000.0001)                -7.433984375000000E+01,      /* J =149 */
(PID.TID 0000.0001)                -7.433203125000000E+01,      /* J =150 */
(PID.TID 0000.0001)                -7.432421875000000E+01,      /* J =151 */
(PID.TID 0000.0001)                -7.431640625000000E+01,      /* J =152 */
(PID.TID 0000.0001)                -7.430859375000000E+01,      /* J =153 */
(PID.TID 0000.0001)      . . .
(PID.TID 0000.0001)                -7.395703125000000E+01,      /* J =198 */
(PID.TID 0000.0001)                -7.394921875000000E+01,      /* J =199 */
(PID.TID 0000.0001)                -7.394140625000000E+01       /* J =200 */
(PID.TID 0000.0001)     ;
(PID.TID 0000.0001) rcoord = /* P-point R coordinate (  units of r ) */
(PID.TID 0000.0001)                -5.000000000000000E+00,      /* K =  1 */
(PID.TID 0000.0001)                -1.500000000000000E+01,      /* K =  2 */
(PID.TID 0000.0001)                -2.500000000000000E+01,      /* K =  3 */
(PID.TID 0000.0001)                -3.500000000000000E+01,      /* K =  4 */
(PID.TID 0000.0001)                -4.500000000000000E+01,      /* K =  5 */
(PID.TID 0000.0001)                -5.500000000000000E+01,      /* K =  6 */
(PID.TID 0000.0001)                -6.500000000000000E+01,      /* K =  7 */
(PID.TID 0000.0001)                -7.500000000000000E+01,      /* K =  8 */
(PID.TID 0000.0001)                -8.500000000000000E+01,      /* K =  9 */
(PID.TID 0000.0001)                -9.500000000000000E+01,      /* K = 10 */
(PID.TID 0000.0001)                -1.050000000000000E+02,      /* K = 11 */
(PID.TID 0000.0001)                -1.150000000000000E+02,      /* K = 12 */
(PID.TID 0000.0001)                -1.250000000000000E+02,      /* K = 13 */
(PID.TID 0000.0001)                -1.350000000000000E+02,      /* K = 14 */
(PID.TID 0000.0001)                -1.450000000000000E+02,      /* K = 15 */
(PID.TID 0000.0001)                -1.550000000000000E+02,      /* K = 16 */
(PID.TID 0000.0001)                -1.650000000000000E+02,      /* K = 17 */
(PID.TID 0000.0001)                -1.750000000000000E+02,      /* K = 18 */
(PID.TID 0000.0001)                -1.850000000000000E+02,      /* K = 19 */
(PID.TID 0000.0001)                -1.950000000000000E+02,      /* K = 20 */
(PID.TID 0000.0001)                -2.050000000000000E+02,      /* K = 21 */
(PID.TID 0000.0001)                -2.150000000000000E+02,      /* K = 22 */
(PID.TID 0000.0001)                -2.250000000000000E+02,      /* K = 23 */
(PID.TID 0000.0001)                -2.350000000000000E+02,      /* K = 24 */
(PID.TID 0000.0001)                -2.450000000000000E+02,      /* K = 25 */
(PID.TID 0000.0001)                -2.550000000000000E+02,      /* K = 26 */
(PID.TID 0000.0001)                -2.650000000000000E+02,      /* K = 27 */
(PID.TID 0000.0001)                -2.750000000000000E+02,      /* K = 28 */
(PID.TID 0000.0001)                -2.850000000000000E+02,      /* K = 29 */
(PID.TID 0000.0001)                -2.950000000000000E+02,      /* K = 30 */
(PID.TID 0000.0001)                -3.050000000000000E+02,      /* K = 31 */
(PID.TID 0000.0001)                -3.150000000000000E+02,      /* K = 32 */
(PID.TID 0000.0001)                -3.250000000000000E+02,      /* K = 33 */
(PID.TID 0000.0001)                -3.350000000000000E+02,      /* K = 34 */
(PID.TID 0000.0001)                -3.450000000000000E+02,      /* K = 35 */
(PID.TID 0000.0001)                -3.550000000000000E+02,      /* K = 36 */
(PID.TID 0000.0001)                -3.650000000000000E+02,      /* K = 37 */
(PID.TID 0000.0001)                -3.750000000000000E+02,      /* K = 38 */
(PID.TID 0000.0001)                -3.850000000000000E+02,      /* K = 39 */
(PID.TID 0000.0001)                -3.950000000000000E+02,      /* K = 40 */
(PID.TID 0000.0001)                -4.050000000000000E+02,      /* K = 41 */
(PID.TID 0000.0001)                -4.150000000000000E+02,      /* K = 42 */
(PID.TID 0000.0001)                -4.250000000000000E+02,      /* K = 43 */
(PID.TID 0000.0001)                -4.350000000000000E+02,      /* K = 44 */
(PID.TID 0000.0001)                -4.450000000000000E+02,      /* K = 45 */
(PID.TID 0000.0001)                -4.550000000000000E+02,      /* K = 46 */
(PID.TID 0000.0001)                -4.650000000000000E+02,      /* K = 47 */
(PID.TID 0000.0001)                -4.750000000000000E+02,      /* K = 48 */
(PID.TID 0000.0001)                -4.850000000000000E+02,      /* K = 49 */
(PID.TID 0000.0001)                -4.950000000000000E+02,      /* K = 50 */
(PID.TID 0000.0001)                -5.050000000000000E+02,      /* K = 51 */
(PID.TID 0000.0001)                -5.150000000000000E+02,      /* K = 52 */
(PID.TID 0000.0001)                -5.250000000000000E+02,      /* K = 53 */
(PID.TID 0000.0001)                -5.350000000000000E+02,      /* K = 54 */
(PID.TID 0000.0001)                -5.450000000000000E+02,      /* K = 55 */
(PID.TID 0000.0001)                -5.550000000000000E+02,      /* K = 56 */
(PID.TID 0000.0001)                -5.650000000000000E+02,      /* K = 57 */
(PID.TID 0000.0001)                -5.750000000000000E+02,      /* K = 58 */
(PID.TID 0000.0001)                -5.850000000000000E+02,      /* K = 59 */
(PID.TID 0000.0001)                -5.950000000000000E+02,      /* K = 60 */
(PID.TID 0000.0001)                -6.050000000000000E+02,      /* K = 61 */
(PID.TID 0000.0001)                -6.150000000000000E+02,      /* K = 62 */
(PID.TID 0000.0001)                -6.250000000000000E+02,      /* K = 63 */
(PID.TID 0000.0001)                -6.350000000000000E+02,      /* K = 64 */
(PID.TID 0000.0001)                -6.450000000000000E+02,      /* K = 65 */
(PID.TID 0000.0001)                -6.550000000000000E+02,      /* K = 66 */
(PID.TID 0000.0001)                -6.650000000000000E+02,      /* K = 67 */
(PID.TID 0000.0001)                -6.750000000000000E+02,      /* K = 68 */
(PID.TID 0000.0001)                -6.850000000000000E+02,      /* K = 69 */
(PID.TID 0000.0001)                -6.950000000000000E+02,      /* K = 70 */
(PID.TID 0000.0001)                -7.050000000000000E+02,      /* K = 71 */
(PID.TID 0000.0001)                -7.150000000000000E+02,      /* K = 72 */
(PID.TID 0000.0001)                -7.250000000000000E+02,      /* K = 73 */
(PID.TID 0000.0001)                -7.350000000000000E+02,      /* K = 74 */
(PID.TID 0000.0001)                -7.450000000000000E+02,      /* K = 75 */
(PID.TID 0000.0001)                -7.550000000000000E+02,      /* K = 76 */
(PID.TID 0000.0001)                -7.650000000000000E+02,      /* K = 77 */
(PID.TID 0000.0001)                -7.750000000000000E+02,      /* K = 78 */
(PID.TID 0000.0001)                -7.850000000000000E+02,      /* K = 79 */
(PID.TID 0000.0001)                -7.950000000000000E+02,      /* K = 80 */
(PID.TID 0000.0001)                -8.050000000000000E+02,      /* K = 81 */
(PID.TID 0000.0001)                -8.150000000000000E+02,      /* K = 82 */
(PID.TID 0000.0001)                -8.250000000000000E+02,      /* K = 83 */
(PID.TID 0000.0001)                -8.350000000000000E+02,      /* K = 84 */
(PID.TID 0000.0001)                -8.450000000000000E+02,      /* K = 85 */
(PID.TID 0000.0001)                -8.550000000000000E+02,      /* K = 86 */
(PID.TID 0000.0001)                -8.650000000000000E+02,      /* K = 87 */
(PID.TID 0000.0001)                -8.750000000000000E+02,      /* K = 88 */
(PID.TID 0000.0001)                -8.850000000000000E+02,      /* K = 89 */
(PID.TID 0000.0001)                -8.950000000000000E+02       /* K = 90 */
(PID.TID 0000.0001)     ;
(PID.TID 0000.0001) rF =   /* W-Interf. R coordinate (  units of r ) */
(PID.TID 0000.0001)                 0.000000000000000E+00,      /* K =  1 */
(PID.TID 0000.0001)                -1.000000000000000E+01,      /* K =  2 */
(PID.TID 0000.0001)                -2.000000000000000E+01,      /* K =  3 */
(PID.TID 0000.0001)                -3.000000000000000E+01,      /* K =  4 */
(PID.TID 0000.0001)                -4.000000000000000E+01,      /* K =  5 */
(PID.TID 0000.0001)                -5.000000000000000E+01,      /* K =  6 */
(PID.TID 0000.0001)                -6.000000000000000E+01,      /* K =  7 */
(PID.TID 0000.0001)                -7.000000000000000E+01,      /* K =  8 */
(PID.TID 0000.0001)                -8.000000000000000E+01,      /* K =  9 */
(PID.TID 0000.0001)                -9.000000000000000E+01,      /* K = 10 */
(PID.TID 0000.0001)                -1.000000000000000E+02,      /* K = 11 */
(PID.TID 0000.0001)                -1.100000000000000E+02,      /* K = 12 */
(PID.TID 0000.0001)                -1.200000000000000E+02,      /* K = 13 */
(PID.TID 0000.0001)                -1.300000000000000E+02,      /* K = 14 */
(PID.TID 0000.0001)                -1.400000000000000E+02,      /* K = 15 */
(PID.TID 0000.0001)                -1.500000000000000E+02,      /* K = 16 */
(PID.TID 0000.0001)                -1.600000000000000E+02,      /* K = 17 */
(PID.TID 0000.0001)                -1.700000000000000E+02,      /* K = 18 */
(PID.TID 0000.0001)                -1.800000000000000E+02,      /* K = 19 */
(PID.TID 0000.0001)                -1.900000000000000E+02,      /* K = 20 */
(PID.TID 0000.0001)                -2.000000000000000E+02,      /* K = 21 */
(PID.TID 0000.0001)                -2.100000000000000E+02,      /* K = 22 */
(PID.TID 0000.0001)                -2.200000000000000E+02,      /* K = 23 */
(PID.TID 0000.0001)                -2.300000000000000E+02,      /* K = 24 */
(PID.TID 0000.0001)                -2.400000000000000E+02,      /* K = 25 */
(PID.TID 0000.0001)                -2.500000000000000E+02,      /* K = 26 */
(PID.TID 0000.0001)                -2.600000000000000E+02,      /* K = 27 */
(PID.TID 0000.0001)                -2.700000000000000E+02,      /* K = 28 */
(PID.TID 0000.0001)                -2.800000000000000E+02,      /* K = 29 */
(PID.TID 0000.0001)                -2.900000000000000E+02,      /* K = 30 */
(PID.TID 0000.0001)                -3.000000000000000E+02,      /* K = 31 */
(PID.TID 0000.0001)                -3.100000000000000E+02,      /* K = 32 */
(PID.TID 0000.0001)                -3.200000000000000E+02,      /* K = 33 */
(PID.TID 0000.0001)                -3.300000000000000E+02,      /* K = 34 */
(PID.TID 0000.0001)                -3.400000000000000E+02,      /* K = 35 */
(PID.TID 0000.0001)                -3.500000000000000E+02,      /* K = 36 */
(PID.TID 0000.0001)                -3.600000000000000E+02,      /* K = 37 */
(PID.TID 0000.0001)                -3.700000000000000E+02,      /* K = 38 */
(PID.TID 0000.0001)                -3.800000000000000E+02,      /* K = 39 */
(PID.TID 0000.0001)                -3.900000000000000E+02,      /* K = 40 */
(PID.TID 0000.0001)                -4.000000000000000E+02,      /* K = 41 */
(PID.TID 0000.0001)                -4.100000000000000E+02,      /* K = 42 */
(PID.TID 0000.0001)                -4.200000000000000E+02,      /* K = 43 */
(PID.TID 0000.0001)                -4.300000000000000E+02,      /* K = 44 */
(PID.TID 0000.0001)                -4.400000000000000E+02,      /* K = 45 */
(PID.TID 0000.0001)                -4.500000000000000E+02,      /* K = 46 */
(PID.TID 0000.0001)                -4.600000000000000E+02,      /* K = 47 */
(PID.TID 0000.0001)                -4.700000000000000E+02,      /* K = 48 */
(PID.TID 0000.0001)                -4.800000000000000E+02,      /* K = 49 */
(PID.TID 0000.0001)                -4.900000000000000E+02,      /* K = 50 */
(PID.TID 0000.0001)                -5.000000000000000E+02,      /* K = 51 */
(PID.TID 0000.0001)                -5.100000000000000E+02,      /* K = 52 */
(PID.TID 0000.0001)                -5.200000000000000E+02,      /* K = 53 */
(PID.TID 0000.0001)                -5.300000000000000E+02,      /* K = 54 */
(PID.TID 0000.0001)                -5.400000000000000E+02,      /* K = 55 */
(PID.TID 0000.0001)                -5.500000000000000E+02,      /* K = 56 */
(PID.TID 0000.0001)                -5.600000000000000E+02,      /* K = 57 */
(PID.TID 0000.0001)                -5.700000000000000E+02,      /* K = 58 */
(PID.TID 0000.0001)                -5.800000000000000E+02,      /* K = 59 */
(PID.TID 0000.0001)                -5.900000000000000E+02,      /* K = 60 */
(PID.TID 0000.0001)                -6.000000000000000E+02,      /* K = 61 */
(PID.TID 0000.0001)                -6.100000000000000E+02,      /* K = 62 */
(PID.TID 0000.0001)                -6.200000000000000E+02,      /* K = 63 */
(PID.TID 0000.0001)                -6.300000000000000E+02,      /* K = 64 */
(PID.TID 0000.0001)                -6.400000000000000E+02,      /* K = 65 */
(PID.TID 0000.0001)                -6.500000000000000E+02,      /* K = 66 */
(PID.TID 0000.0001)                -6.600000000000000E+02,      /* K = 67 */
(PID.TID 0000.0001)                -6.700000000000000E+02,      /* K = 68 */
(PID.TID 0000.0001)                -6.800000000000000E+02,      /* K = 69 */
(PID.TID 0000.0001)                -6.900000000000000E+02,      /* K = 70 */
(PID.TID 0000.0001)                -7.000000000000000E+02,      /* K = 71 */
(PID.TID 0000.0001)                -7.100000000000000E+02,      /* K = 72 */
(PID.TID 0000.0001)                -7.200000000000000E+02,      /* K = 73 */
(PID.TID 0000.0001)                -7.300000000000000E+02,      /* K = 74 */
(PID.TID 0000.0001)                -7.400000000000000E+02,      /* K = 75 */
(PID.TID 0000.0001)                -7.500000000000000E+02,      /* K = 76 */
(PID.TID 0000.0001)                -7.600000000000000E+02,      /* K = 77 */
(PID.TID 0000.0001)                -7.700000000000000E+02,      /* K = 78 */
(PID.TID 0000.0001)                -7.800000000000000E+02,      /* K = 79 */
(PID.TID 0000.0001)                -7.900000000000000E+02,      /* K = 80 */
(PID.TID 0000.0001)                -8.000000000000000E+02,      /* K = 81 */
(PID.TID 0000.0001)                -8.100000000000000E+02,      /* K = 82 */
(PID.TID 0000.0001)                -8.200000000000000E+02,      /* K = 83 */
(PID.TID 0000.0001)                -8.300000000000000E+02,      /* K = 84 */
(PID.TID 0000.0001)                -8.400000000000000E+02,      /* K = 85 */
(PID.TID 0000.0001)                -8.500000000000000E+02,      /* K = 86 */
(PID.TID 0000.0001)                -8.600000000000000E+02,      /* K = 87 */
(PID.TID 0000.0001)                -8.700000000000000E+02,      /* K = 88 */
(PID.TID 0000.0001)                -8.800000000000000E+02,      /* K = 89 */
(PID.TID 0000.0001)                -8.900000000000000E+02,      /* K = 90 */
(PID.TID 0000.0001)                -9.000000000000000E+02       /* K = 91 */
(PID.TID 0000.0001)     ;
(PID.TID 0000.0001) deepFacC = /* deep-model grid factor @ cell-Center (-) */
(PID.TID 0000.0001)    90 @  1.000000000000000E+00              /* K =  1: 90 */
(PID.TID 0000.0001)     ;
(PID.TID 0000.0001) deepFacF = /* deep-model grid factor @ W-Interface (-) */
(PID.TID 0000.0001)    91 @  1.000000000000000E+00              /* K =  1: 91 */
(PID.TID 0000.0001)     ;
(PID.TID 0000.0001) rVel2wUnit = /* convert units: rVel -> wSpeed (=1 if z-coord)*/
(PID.TID 0000.0001)    91 @  1.000000000000000E+00              /* K =  1: 91 */
(PID.TID 0000.0001)     ;
(PID.TID 0000.0001) wUnit2rVel = /* convert units: wSpeed -> rVel (=1 if z-coord)*/
(PID.TID 0000.0001)    91 @  1.000000000000000E+00              /* K =  1: 91 */
(PID.TID 0000.0001)     ;
(PID.TID 0000.0001) dBdrRef = /* Vertical grad. of reference buoyancy [(m/s/r)^2] */
(PID.TID 0000.0001)    90 @  0.000000000000000E+00              /* K =  1: 90 */
(PID.TID 0000.0001)     ;
(PID.TID 0000.0001) rotateGrid = /* use rotated grid ( True/False ) */
(PID.TID 0000.0001)                   F
(PID.TID 0000.0001)     ;
(PID.TID 0000.0001) phiEuler = /* Euler angle, rotation about original z-coordinate [rad] */
(PID.TID 0000.0001)                 0.000000000000000E+00
(PID.TID 0000.0001)     ;
(PID.TID 0000.0001) thetaEuler = /* Euler angle, rotation about new x-coordinate [rad] */
(PID.TID 0000.0001)                 0.000000000000000E+00
(PID.TID 0000.0001)     ;
(PID.TID 0000.0001) psiEuler = /* Euler angle, rotation about new z-coordinate [rad] */
(PID.TID 0000.0001)                 0.000000000000000E+00
(PID.TID 0000.0001)     ;
(PID.TID 0000.0001) dxF =  /* dxF(:,1,:,1) ( units: m ) */
(PID.TID 0000.0001)                 3.480494308692804E+03       /* I =  1 */
(PID.TID 0000.0001)     ;
(PID.TID 0000.0001) dxF =  /* dxF(1,:,1,:) ( units: m ) */
(PID.TID 0000.0001)                 3.480494308692804E+03,      /* J =  1 */
(PID.TID 0000.0001)                 3.482328820379661E+03,      /* J =  2 */
(PID.TID 0000.0001)                 3.484163267321765E+03,      /* J =  3 */
(PID.TID 0000.0001)      . . .
(PID.TID 0000.0001)                 3.566645816073358E+03,      /* J = 48 */
(PID.TID 0000.0001)                 3.568477247907144E+03,      /* J = 49 */
(PID.TID 0000.0001)                 3.570308613394474E+03,      /* J = 50 */
(PID.TID 0000.0001)                 3.572139912501299E+03,      /* J = 51 */
(PID.TID 0000.0001)                 3.573971145193570E+03,      /* J = 52 */
(PID.TID 0000.0001)                 3.575802311437242E+03,      /* J = 53 */
(PID.TID 0000.0001)      . . .
(PID.TID 0000.0001)                 3.658135466271199E+03,      /* J = 98 */
(PID.TID 0000.0001)                 3.659963539095986E+03,      /* J = 99 */
(PID.TID 0000.0001)                 3.661791543873371E+03,      /* J =100 */
(PID.TID 0000.0001)                 3.663619480569366E+03,      /* J =101 */
(PID.TID 0000.0001)                 3.665447349149982E+03,      /* J =102 */
(PID.TID 0000.0001)                 3.667275149581241E+03,      /* J =103 */
(PID.TID 0000.0001)      . . .
(PID.TID 0000.0001)                 3.749455083590816E+03,      /* J =148 */
(PID.TID 0000.0001)                 3.751279712436410E+03,      /* J =149 */
(PID.TID 0000.0001)                 3.753104271536817E+03,      /* J =150 */
(PID.TID 0000.0001)                 3.754928760858113E+03,      /* J =151 */
(PID.TID 0000.0001)                 3.756753180366378E+03,      /* J =152 */
(PID.TID 0000.0001)                 3.758577530027691E+03,      /* J =153 */
(PID.TID 0000.0001)      . . .
(PID.TID 0000.0001)                 3.840600423427959E+03,      /* J =198 */
(PID.TID 0000.0001)                 3.842421523484243E+03,      /* J =199 */
(PID.TID 0000.0001)                 3.844242552100798E+03       /* J =200 */
(PID.TID 0000.0001)     ;
(PID.TID 0000.0001) dyF =  /* dyF(:,1,:,1) ( units: m ) */
(PID.TID 0000.0001)                 8.685740105628031E+02       /* I =  1 */
(PID.TID 0000.0001)     ;
(PID.TID 0000.0001) dyF =  /* dyF(1,:,1,:) ( units: m ) */
(PID.TID 0000.0001)   200 @  8.685740105628031E+02              /* J =  1:200 */
(PID.TID 0000.0001)     ;
(PID.TID 0000.0001) dxG =  /* dxG(:,1,:,1) ( units: m ) */
(PID.TID 0000.0001)                 3.479577028580754E+03       /* I =  1 */
(PID.TID 0000.0001)     ;
(PID.TID 0000.0001) dxG =  /* dxG(1,:,1,:) ( units: m ) */
(PID.TID 0000.0001)                 3.479577028580754E+03,      /* J =  1 */
(PID.TID 0000.0001)                 3.481411572627197E+03,      /* J =  2 */
(PID.TID 0000.0001)                 3.483246051945940E+03,      /* J =  3 */
(PID.TID 0000.0001)      . . .
(PID.TID 0000.0001)                 3.565730075287186E+03,      /* J = 48 */
(PID.TID 0000.0001)                 3.567561540281431E+03,      /* J = 49 */
(PID.TID 0000.0001)                 3.569392938946246E+03,      /* J = 50 */
(PID.TID 0000.0001)                 3.571224271247576E+03,      /* J = 51 */
(PID.TID 0000.0001)                 3.573055537151380E+03,      /* J = 52 */
(PID.TID 0000.0001)                 3.574886736623609E+03,      /* J = 53 */
(PID.TID 0000.0001)      . . .
(PID.TID 0000.0001)                 3.657221404351649E+03,      /* J = 98 */
(PID.TID 0000.0001)                 3.659049511187392E+03,      /* J = 99 */
(PID.TID 0000.0001)                 3.660877549992727E+03,      /* J =100 */
(PID.TID 0000.0001)                 3.662705520733664E+03,      /* J =101 */
(PID.TID 0000.0001)                 3.664533423376220E+03,      /* J =102 */
(PID.TID 0000.0001)                 3.666361257886407E+03,      /* J =103 */
(PID.TID 0000.0001)      . . .
(PID.TID 0000.0001)                 3.748542743024177E+03,      /* J =148 */
(PID.TID 0000.0001)                 3.750367406729643E+03,      /* J =149 */
(PID.TID 0000.0001)                 3.752192000706884E+03,      /* J =150 */
(PID.TID 0000.0001)                 3.754016524921976E+03,      /* J =151 */
(PID.TID 0000.0001)                 3.755840979340996E+03,      /* J =152 */
(PID.TID 0000.0001)                 3.757665363930025E+03,      /* J =153 */
(PID.TID 0000.0001)      . . .
(PID.TID 0000.0001)                 3.839689846620502E+03,      /* J =198 */
(PID.TID 0000.0001)                 3.841510982383953E+03,      /* J =199 */
(PID.TID 0000.0001)                 3.843332046724602E+03       /* J =200 */
(PID.TID 0000.0001)     ;
(PID.TID 0000.0001) dyG =  /* dyG(:,1,:,1) ( units: m ) */
(PID.TID 0000.0001)                 8.685740105628031E+02       /* I =  1 */
(PID.TID 0000.0001)     ;
(PID.TID 0000.0001) dyG =  /* dyG(1,:,1,:) ( units: m ) */
(PID.TID 0000.0001)   200 @  8.685740105628031E+02              /* J =  1:200 */
(PID.TID 0000.0001)     ;
(PID.TID 0000.0001) dxC =  /* dxC(:,1,:,1) ( units: m ) */
(PID.TID 0000.0001)                 3.480494308692804E+03       /* I =  1 */
(PID.TID 0000.0001)     ;
(PID.TID 0000.0001) dxC =  /* dxC(1,:,1,:) ( units: m ) */
(PID.TID 0000.0001)                 3.480494308692804E+03,      /* J =  1 */
(PID.TID 0000.0001)                 3.482328820379661E+03,      /* J =  2 */
(PID.TID 0000.0001)                 3.484163267321765E+03,      /* J =  3 */
(PID.TID 0000.0001)      . . .
(PID.TID 0000.0001)                 3.566645816073358E+03,      /* J = 48 */
(PID.TID 0000.0001)                 3.568477247907144E+03,      /* J = 49 */
(PID.TID 0000.0001)                 3.570308613394474E+03,      /* J = 50 */
(PID.TID 0000.0001)                 3.572139912501299E+03,      /* J = 51 */
(PID.TID 0000.0001)                 3.573971145193570E+03,      /* J = 52 */
(PID.TID 0000.0001)                 3.575802311437242E+03,      /* J = 53 */
(PID.TID 0000.0001)      . . .
(PID.TID 0000.0001)                 3.658135466271199E+03,      /* J = 98 */
(PID.TID 0000.0001)                 3.659963539095986E+03,      /* J = 99 */
(PID.TID 0000.0001)                 3.661791543873371E+03,      /* J =100 */
(PID.TID 0000.0001)                 3.663619480569366E+03,      /* J =101 */
(PID.TID 0000.0001)                 3.665447349149982E+03,      /* J =102 */
(PID.TID 0000.0001)                 3.667275149581241E+03,      /* J =103 */
(PID.TID 0000.0001)      . . .
(PID.TID 0000.0001)                 3.749455083590816E+03,      /* J =148 */
(PID.TID 0000.0001)                 3.751279712436410E+03,      /* J =149 */
(PID.TID 0000.0001)                 3.753104271536817E+03,      /* J =150 */
(PID.TID 0000.0001)                 3.754928760858113E+03,      /* J =151 */
(PID.TID 0000.0001)                 3.756753180366378E+03,      /* J =152 */
(PID.TID 0000.0001)                 3.758577530027691E+03,      /* J =153 */
(PID.TID 0000.0001)      . . .
(PID.TID 0000.0001)                 3.840600423427959E+03,      /* J =198 */
(PID.TID 0000.0001)                 3.842421523484243E+03,      /* J =199 */
(PID.TID 0000.0001)                 3.844242552100798E+03       /* J =200 */
(PID.TID 0000.0001)     ;
(PID.TID 0000.0001) dyC =  /* dyC(:,1,:,1) ( units: m ) */
(PID.TID 0000.0001)                 8.685740105628031E+02       /* I =  1 */
(PID.TID 0000.0001)     ;
(PID.TID 0000.0001) dyC =  /* dyC(1,:,1,:) ( units: m ) */
(PID.TID 0000.0001)   200 @  8.685740105628031E+02              /* J =  1:200 */
(PID.TID 0000.0001)     ;
(PID.TID 0000.0001) dxV =  /* dxV(:,1,:,1) ( units: m ) */
(PID.TID 0000.0001)                 3.479577028580754E+03       /* I =  1 */
(PID.TID 0000.0001)     ;
(PID.TID 0000.0001) dxV =  /* dxV(1,:,1,:) ( units: m ) */
(PID.TID 0000.0001)                 3.479577028580754E+03,      /* J =  1 */
(PID.TID 0000.0001)                 3.481411572627197E+03,      /* J =  2 */
(PID.TID 0000.0001)                 3.483246051945940E+03,      /* J =  3 */
(PID.TID 0000.0001)      . . .
(PID.TID 0000.0001)                 3.565730075287186E+03,      /* J = 48 */
(PID.TID 0000.0001)                 3.567561540281431E+03,      /* J = 49 */
(PID.TID 0000.0001)                 3.569392938946246E+03,      /* J = 50 */
(PID.TID 0000.0001)                 3.571224271247576E+03,      /* J = 51 */
(PID.TID 0000.0001)                 3.573055537151380E+03,      /* J = 52 */
(PID.TID 0000.0001)                 3.574886736623609E+03,      /* J = 53 */
(PID.TID 0000.0001)      . . .
(PID.TID 0000.0001)                 3.657221404351649E+03,      /* J = 98 */
(PID.TID 0000.0001)                 3.659049511187392E+03,      /* J = 99 */
(PID.TID 0000.0001)                 3.660877549992727E+03,      /* J =100 */
(PID.TID 0000.0001)                 3.662705520733664E+03,      /* J =101 */
(PID.TID 0000.0001)                 3.664533423376220E+03,      /* J =102 */
(PID.TID 0000.0001)                 3.666361257886407E+03,      /* J =103 */
(PID.TID 0000.0001)      . . .
(PID.TID 0000.0001)                 3.748542743024177E+03,      /* J =148 */
(PID.TID 0000.0001)                 3.750367406729643E+03,      /* J =149 */
(PID.TID 0000.0001)                 3.752192000706884E+03,      /* J =150 */
(PID.TID 0000.0001)                 3.754016524921976E+03,      /* J =151 */
(PID.TID 0000.0001)                 3.755840979340996E+03,      /* J =152 */
(PID.TID 0000.0001)                 3.757665363930025E+03,      /* J =153 */
(PID.TID 0000.0001)      . . .
(PID.TID 0000.0001)                 3.839689846620502E+03,      /* J =198 */
(PID.TID 0000.0001)                 3.841510982383953E+03,      /* J =199 */
(PID.TID 0000.0001)                 3.843332046724602E+03       /* J =200 */
(PID.TID 0000.0001)     ;
(PID.TID 0000.0001) dyU =  /* dyU(:,1,:,1) ( units: m ) */
(PID.TID 0000.0001)                 8.685740105628031E+02       /* I =  1 */
(PID.TID 0000.0001)     ;
(PID.TID 0000.0001) dyU =  /* dyU(1,:,1,:) ( units: m ) */
(PID.TID 0000.0001)   200 @  8.685740105628031E+02              /* J =  1:200 */
(PID.TID 0000.0001)     ;
(PID.TID 0000.0001) rA  =  /* rA (:,1,:,1) ( units: m^2 ) */
(PID.TID 0000.0001)                 3.023066898101134E+06       /* I =  1 */
(PID.TID 0000.0001)     ;
(PID.TID 0000.0001) rA  =  /* rA (1,:,1,:) ( units: m^2 ) */
(PID.TID 0000.0001)                 3.023066898101134E+06,      /* J =  1 */
(PID.TID 0000.0001)                 3.024660307275373E+06,      /* J =  2 */
(PID.TID 0000.0001)                 3.026253660202500E+06,      /* J =  3 */
(PID.TID 0000.0001)      . . .
(PID.TID 0000.0001)                 3.097895858318695E+06,      /* J = 48 */
(PID.TID 0000.0001)                 3.099486592418468E+06,      /* J = 49 */
(PID.TID 0000.0001)                 3.101077268875517E+06,      /* J = 50 */
(PID.TID 0000.0001)                 3.102667887689842E+06,      /* J = 51 */
(PID.TID 0000.0001)                 3.104258448812304E+06,      /* J = 52 */
(PID.TID 0000.0001)                 3.105848952223243E+06,      /* J = 53 */
(PID.TID 0000.0001)      . . .
(PID.TID 0000.0001)                 3.177361390662241E+06,      /* J = 98 */
(PID.TID 0000.0001)                 3.178949207204807E+06,      /* J = 99 */
(PID.TID 0000.0001)                 3.180536964640239E+06,      /* J =100 */
(PID.TID 0000.0001)                 3.182124662948881E+06,      /* J =101 */
(PID.TID 0000.0001)                 3.183712302091420E+06,      /* J =102 */
(PID.TID 0000.0001)                 3.185299882048199E+06,      /* J =103 */
(PID.TID 0000.0001)      . . .
(PID.TID 0000.0001)                 3.256679236854395E+06,      /* J =148 */
(PID.TID 0000.0001)                 3.258264062049206E+06,      /* J =149 */
(PID.TID 0000.0001)                 3.259848826662644E+06,      /* J =150 */
(PID.TID 0000.0001)                 3.261433530675054E+06,      /* J =151 */
(PID.TID 0000.0001)                 3.263018174037294E+06,      /* J =152 */
(PID.TID 0000.0001)                 3.264602756729708E+06,      /* J =153 */
(PID.TID 0000.0001)      . . .
(PID.TID 0000.0001)                 3.335845710158952E+06,      /* J =198 */
(PID.TID 0000.0001)                 3.337427470343226E+06,      /* J =199 */
(PID.TID 0000.0001)                 3.339009168462061E+06       /* J =200 */
(PID.TID 0000.0001)     ;
(PID.TID 0000.0001) rAw =  /* rAw(:,1,:,1) ( units: m^2 ) */
(PID.TID 0000.0001)                 3.023066898101134E+06       /* I =  1 */
(PID.TID 0000.0001)     ;
(PID.TID 0000.0001) rAw =  /* rAw(1,:,1,:) ( units: m^2 ) */
(PID.TID 0000.0001)                 3.023066898101134E+06,      /* J =  1 */
(PID.TID 0000.0001)                 3.024660307275373E+06,      /* J =  2 */
(PID.TID 0000.0001)                 3.026253660202500E+06,      /* J =  3 */
(PID.TID 0000.0001)      . . .
(PID.TID 0000.0001)                 3.097895858318695E+06,      /* J = 48 */
(PID.TID 0000.0001)                 3.099486592418468E+06,      /* J = 49 */
(PID.TID 0000.0001)                 3.101077268875517E+06,      /* J = 50 */
(PID.TID 0000.0001)                 3.102667887689842E+06,      /* J = 51 */
(PID.TID 0000.0001)                 3.104258448812304E+06,      /* J = 52 */
(PID.TID 0000.0001)                 3.105848952223243E+06,      /* J = 53 */
(PID.TID 0000.0001)      . . .
(PID.TID 0000.0001)                 3.177361390662241E+06,      /* J = 98 */
(PID.TID 0000.0001)                 3.178949207204807E+06,      /* J = 99 */
(PID.TID 0000.0001)                 3.180536964640239E+06,      /* J =100 */
(PID.TID 0000.0001)                 3.182124662948881E+06,      /* J =101 */
(PID.TID 0000.0001)                 3.183712302091420E+06,      /* J =102 */
(PID.TID 0000.0001)                 3.185299882048199E+06,      /* J =103 */
(PID.TID 0000.0001)      . . .
(PID.TID 0000.0001)                 3.256679236854395E+06,      /* J =148 */
(PID.TID 0000.0001)                 3.258264062049206E+06,      /* J =149 */
(PID.TID 0000.0001)                 3.259848826662644E+06,      /* J =150 */
(PID.TID 0000.0001)                 3.261433530675054E+06,      /* J =151 */
(PID.TID 0000.0001)                 3.263018174037294E+06,      /* J =152 */
(PID.TID 0000.0001)                 3.264602756729708E+06,      /* J =153 */
(PID.TID 0000.0001)      . . .
(PID.TID 0000.0001)                 3.335845710158952E+06,      /* J =198 */
(PID.TID 0000.0001)                 3.337427470343226E+06,      /* J =199 */
(PID.TID 0000.0001)                 3.339009168462061E+06       /* J =200 */
(PID.TID 0000.0001)     ;
(PID.TID 0000.0001) rAs =  /* rAs(:,1,:,1) ( units: m^2 ) */
(PID.TID 0000.0001)                 3.022270172437319E+06       /* I =  1 */
(PID.TID 0000.0001)     ;
(PID.TID 0000.0001) rAs =  /* rAs(1,:,1,:) ( units: m^2 ) */
(PID.TID 0000.0001)                 3.022270172437319E+06,      /* J =  1 */
(PID.TID 0000.0001)                 3.023863609710542E+06,      /* J =  2 */
(PID.TID 0000.0001)                 3.025456990775968E+06,      /* J =  3 */
(PID.TID 0000.0001)      . . .
(PID.TID 0000.0001)                 3.097100469681044E+06,      /* J = 48 */
(PID.TID 0000.0001)                 3.098691232567779E+06,      /* J = 49 */
(PID.TID 0000.0001)                 3.100281937851104E+06,      /* J = 50 */
(PID.TID 0000.0001)                 3.101872585501534E+06,      /* J = 51 */
(PID.TID 0000.0001)                 3.103463175460099E+06,      /* J = 52 */
(PID.TID 0000.0001)                 3.105053707726799E+06,      /* J = 53 */
(PID.TID 0000.0001)      . . .
(PID.TID 0000.0001)                 3.176567460233155E+06,      /* J = 98 */
(PID.TID 0000.0001)                 3.178155306319459E+06,      /* J = 99 */
(PID.TID 0000.0001)                 3.179743093308458E+06,      /* J =100 */
(PID.TID 0000.0001)                 3.181330821190323E+06,      /* J =101 */
(PID.TID 0000.0001)                 3.182918489915914E+06,      /* J =102 */
(PID.TID 0000.0001)                 3.184506099465573E+06,      /* J =103 */
(PID.TID 0000.0001)      . . .
(PID.TID 0000.0001)                 3.255886801548804E+06,      /* J =148 */
(PID.TID 0000.0001)                 3.257471657024472E+06,      /* J =149 */
(PID.TID 0000.0001)                 3.259056451928596E+06,      /* J =150 */
(PID.TID 0000.0001)                 3.260641186251349E+06,      /* J =151 */
(PID.TID 0000.0001)                 3.262225859933760E+06,      /* J =152 */
(PID.TID 0000.0001)                 3.263810472975829E+06,      /* J =153 */
(PID.TID 0000.0001)      . . .
(PID.TID 0000.0001)                 3.335054806813161E+06,      /* J =198 */
(PID.TID 0000.0001)                 3.336636598005584E+06,      /* J =199 */
(PID.TID 0000.0001)                 3.338218327162052E+06       /* J =200 */
(PID.TID 0000.0001)     ;
(PID.TID 0000.0001) globalArea = /* Integrated horizontal Area (m^2) */
(PID.TID 0000.0001)                 6.298843726857016E+08
(PID.TID 0000.0001)     ;
(PID.TID 0000.0001) // =======================================================
(PID.TID 0000.0001) // End of Model config. summary
(PID.TID 0000.0001) // =======================================================
(PID.TID 0000.0001) 
(PID.TID 0000.0001) == Packages configuration : Check & print summary ==
(PID.TID 0000.0001) 
(PID.TID 0000.0001) OBCS_CHECK: #define ALLOW_OBCS
(PID.TID 0000.0001) OBCS_CHECK: start summary:
(PID.TID 0000.0001) useOBCSprescribe = /* prescribe OB values */
(PID.TID 0000.0001)                   T
(PID.TID 0000.0001)     ;
(PID.TID 0000.0001) useOBCSbalance = /* balance the flow through OB */
(PID.TID 0000.0001)                   F
(PID.TID 0000.0001)     ;
(PID.TID 0000.0001) OBCS_uvApplyFac = /* Factor to apply to U,V 2nd column/row */
(PID.TID 0000.0001)                 1.000000000000000E+00
(PID.TID 0000.0001)     ;
(PID.TID 0000.0001) OBCS_u1_adv_T = /* Temp uses upwind adv-scheme @ OB */
(PID.TID 0000.0001)                       1
(PID.TID 0000.0001)     ;
(PID.TID 0000.0001) OBCS_u1_adv_S = /* Salt uses upwind adv-scheme @ OB */
(PID.TID 0000.0001)                       1
(PID.TID 0000.0001)     ;
(PID.TID 0000.0001) OBCS_monitorFreq = /* monitor output frequency [s] */
(PID.TID 0000.0001)                 1.000000000000000E+00
(PID.TID 0000.0001)     ;
(PID.TID 0000.0001) OBCS_monSelect = /* select group of variables to monitor */
(PID.TID 0000.0001)                       0
(PID.TID 0000.0001)     ;
(PID.TID 0000.0001) useOBCStides = /* apply tidal forcing through OB */
(PID.TID 0000.0001)                   F
(PID.TID 0000.0001)     ;
(PID.TID 0000.0001) tidalPeriod = /* (s) */
(PID.TID 0000.0001)    10 @  0.000000000000000E+00              /* I =  1: 10 */
(PID.TID 0000.0001)     ;
(PID.TID 0000.0001) OB_indexNone = /* null value for OB index (i.e. no OB) */
(PID.TID 0000.0001)                     -99
(PID.TID 0000.0001)     ;
(PID.TID 0000.0001) ======== Tile bi=   1 , bj=   1 ========
(PID.TID 0000.0001)  OB_Jn = /* Northern OB local indices */
(PID.TID 0000.0001)     7 @      -99                            /* I = -2:  4 */
(PID.TID 0000.0001)  OB_Js = /* Southern OB local indices */
(PID.TID 0000.0001)     7 @      -99                            /* I = -2:  4 */
(PID.TID 0000.0001)  OB_Ie = /* Eastern OB local indices */
(PID.TID 0000.0001)    56 @      -99                            /* J = -2: 53 */
(PID.TID 0000.0001)  OB_Iw = /* Western OB local indices */
(PID.TID 0000.0001)    56 @      -99                            /* J = -2: 53 */
(PID.TID 0000.0001) ======== Tile bi=   1 , bj=   2 ========
(PID.TID 0000.0001)  OB_Jn = /* Northern OB local indices */
(PID.TID 0000.0001)     7 @      -99                            /* I = -2:  4 */
(PID.TID 0000.0001)  OB_Js = /* Southern OB local indices */
(PID.TID 0000.0001)     7 @      -99                            /* I = -2:  4 */
(PID.TID 0000.0001)  OB_Ie = /* Eastern OB local indices */
(PID.TID 0000.0001)    56 @      -99                            /* J = -2: 53 */
(PID.TID 0000.0001)  OB_Iw = /* Western OB local indices */
(PID.TID 0000.0001)    56 @      -99                            /* J = -2: 53 */
(PID.TID 0000.0001) ======== Tile bi=   1 , bj=   3 ========
(PID.TID 0000.0001)  OB_Jn = /* Northern OB local indices */
(PID.TID 0000.0001)     7 @      -99                            /* I = -2:  4 */
(PID.TID 0000.0001)  OB_Js = /* Southern OB local indices */
(PID.TID 0000.0001)     7 @      -99                            /* I = -2:  4 */
(PID.TID 0000.0001)  OB_Ie = /* Eastern OB local indices */
(PID.TID 0000.0001)    56 @      -99                            /* J = -2: 53 */
(PID.TID 0000.0001)  OB_Iw = /* Western OB local indices */
(PID.TID 0000.0001)    56 @      -99                            /* J = -2: 53 */
(PID.TID 0000.0001) ======== Tile bi=   1 , bj=   4 ========
(PID.TID 0000.0001)  OB_Jn = /* Northern OB local indices */
(PID.TID 0000.0001)     7 @       50                            /* I = -2:  4 */
(PID.TID 0000.0001)  OB_Js = /* Southern OB local indices */
(PID.TID 0000.0001)     7 @      -99                            /* I = -2:  4 */
(PID.TID 0000.0001)  OB_Ie = /* Eastern OB local indices */
(PID.TID 0000.0001)    56 @      -99                            /* J = -2: 53 */
(PID.TID 0000.0001)  OB_Iw = /* Western OB local indices */
(PID.TID 0000.0001)    56 @      -99                            /* J = -2: 53 */
(PID.TID 0000.0001) OBCS_CHECK: end summary.
(PID.TID 0000.0001) OBCS_CHECK: set-up OK
(PID.TID 0000.0001) OBCS_CHECK: check Inside Mask and OB locations: OK
(PID.TID 0000.0001) SHELFICE_CHECK: #define ALLOW_SHELFICE
(PID.TID 0000.0001) 
(PID.TID 0000.0001) SHELFICE_CHECK: start of SHELFICE config. summary
(PID.TID 0000.0001) SHELFICEisOn = /* package is turned on */
(PID.TID 0000.0001)                   T
(PID.TID 0000.0001)     ;
(PID.TID 0000.0001) useISOMIPTD = /* use simple isomip thermodynamics */
(PID.TID 0000.0001)                   F
(PID.TID 0000.0001)     ;
(PID.TID 0000.0001) SHELFICEconserve = /* use a conservative form of boundary conditions */
(PID.TID 0000.0001)                   T
(PID.TID 0000.0001)     ;
(PID.TID 0000.0001) SHELFICEboundaryLayer = /* use simple boundary layer scheme to suppress noise */
(PID.TID 0000.0001)                   F
(PID.TID 0000.0001)     ;
(PID.TID 0000.0001) SHELFICEadvDiffHeatFlux = /* use adv.-diff. instead of just diff. heat flux into the ice shelf */
(PID.TID 0000.0001)                   F
(PID.TID 0000.0001)     ;
(PID.TID 0000.0001) SHELFICEMassStepping = /* step forward ice shelf mass/thickness */
(PID.TID 0000.0001)                   T
(PID.TID 0000.0001)     ;
(PID.TID 0000.0001) no_slip_shelfice = /* use no slip boundary conditions */
(PID.TID 0000.0001)                   F
(PID.TID 0000.0001)     ;
(PID.TID 0000.0001) SHELFICEdragLinear    = /* linear drag coefficient */
(PID.TID 0000.0001)                 0.000000000000000E+00
(PID.TID 0000.0001)     ;
(PID.TID 0000.0001) SHELFICEdragQuadratic = /* quadratic drag coefficient */
(PID.TID 0000.0001)                 1.500000000000000E-03
(PID.TID 0000.0001)     ;
(PID.TID 0000.0001) SHELFICEselectDragQuadr = /* select quadratic drag option */
(PID.TID 0000.0001)                       2
(PID.TID 0000.0001)     ;
(PID.TID 0000.0001) SHELFICElatentHeat      = /* latent heat of ice */
(PID.TID 0000.0001)                 3.340000000000000E+05
(PID.TID 0000.0001)     ;
(PID.TID 0000.0001) SHELFICEheatCapacity_Cp = /* heat capacity of ice shelf */
(PID.TID 0000.0001)                 2.000000000000000E+03
(PID.TID 0000.0001)     ;
(PID.TID 0000.0001) rhoShelfice   = /* density of ice shelf */
(PID.TID 0000.0001)                 9.170000000000000E+02
(PID.TID 0000.0001)     ;
(PID.TID 0000.0001) SHELFICEkappa = /* thermal conductivity of ice shelf */
(PID.TID 0000.0001)                 1.540000000000000E-06
(PID.TID 0000.0001)     ;
(PID.TID 0000.0001) SHELFICEthetaSurface = /* surface temperature above i.s. */
(PID.TID 0000.0001)                -2.000000000000000E+01
(PID.TID 0000.0001)     ;
(PID.TID 0000.0001) SHELFICEheatTransCoeff = /* heat transfer coefficient */
(PID.TID 0000.0001)                 1.000000000000000E-04
(PID.TID 0000.0001)     ;
(PID.TID 0000.0001) SHELFICEsaltTransCoeff = /* salt transfer coefficient */
(PID.TID 0000.0001)                 5.050000000000000E-07
(PID.TID 0000.0001)     ;
(PID.TID 0000.0001) SHELFICEuseGammaFrict = /* use velocity dependent exchange coefficients */
(PID.TID 0000.0001)                   T
(PID.TID 0000.0001)     ;
(PID.TID 0000.0001) SHELFICE_oldCalcUStar = /* use old uStar expression */
(PID.TID 0000.0001)                   F
(PID.TID 0000.0001)     ;
(PID.TID 0000.0001) shiCdrag   = /* quadr. drag coefficient for uStar */
(PID.TID 0000.0001)                 1.500000000000000E-03
(PID.TID 0000.0001)     ;
(PID.TID 0000.0001) shiZetaN   = /* parameter for gammaTurb */
(PID.TID 0000.0001)                 5.200000000000000E-02
(PID.TID 0000.0001)     ;
(PID.TID 0000.0001) shiRc      = /* parameter for gammaTurb (not used) */
(PID.TID 0000.0001)                 2.000000000000000E-01
(PID.TID 0000.0001)     ;
(PID.TID 0000.0001) shiPrandtl = /* const. Prandtl No. for gammaTurb */
(PID.TID 0000.0001)                 1.380000000000000E+01
(PID.TID 0000.0001)     ;
(PID.TID 0000.0001) shiSchmidt = /* const. Schmidt No. for gammaTurb */
(PID.TID 0000.0001)                 2.432000000000000E+03
(PID.TID 0000.0001)     ;
(PID.TID 0000.0001) shiKinVisc = /* const. kin. viscosity for gammaTurb */
(PID.TID 0000.0001)                 1.950000000000000E-06
(PID.TID 0000.0001)     ;
(PID.TID 0000.0001) SHELFICEremeshFrequency = /* Frequency (in s) of Remeshing */
(PID.TID 0000.0001)                 6.000000000000000E+02
(PID.TID 0000.0001)     ;
(PID.TID 0000.0001) SHELFICEsplitThreshold = /* hFac remesh threshold above which cell splits */
(PID.TID 0000.0001)                 1.120000000000000E+00
(PID.TID 0000.0001)     ;
(PID.TID 0000.0001) SHELFICEmergeThreshold = /* hFac remesh threshold below which cell merges */
(PID.TID 0000.0001)                 1.000000000000000E-01
(PID.TID 0000.0001)     ;
(PID.TID 0000.0001) SHELFICEloadAnomalyFile = /* file name of loaded loadAnomaly field */
(PID.TID 0000.0001)               ''
(PID.TID 0000.0001)     ;
(PID.TID 0000.0001) SHELFICEmassFile = /* file name of loaded mass field */
(PID.TID 0000.0001)               'shelficeMass.Lin.bin'
(PID.TID 0000.0001)     ;
(PID.TID 0000.0001) SHELFICEtopoFile = /* file name of loaded under-ice topography */
(PID.TID 0000.0001)               'shelficeTopo.Lin.bin'
(PID.TID 0000.0001)     ;
(PID.TID 0000.0001) SHELFICEMassDynTendFile = /* file name of loaded dynamic mass tendency field */
(PID.TID 0000.0001)               'shelfice_dMdt.r02.bin'
(PID.TID 0000.0001)     ;
(PID.TID 0000.0001) SHELFICEwriteState  = /* do simple standard output */
(PID.TID 0000.0001)                   F
(PID.TID 0000.0001)     ;
(PID.TID 0000.0001) SHELFICE_dump_mdsio = /* use mdsio for snapshots */
(PID.TID 0000.0001)                   T
(PID.TID 0000.0001)     ;
(PID.TID 0000.0001) SHELFICE_tave_mdsio = /* use mdsio for time averages */
(PID.TID 0000.0001)                   T
(PID.TID 0000.0001)     ;
(PID.TID 0000.0001) SHELFICE_dump_mnc   = /* use netcdf for snapshots */
(PID.TID 0000.0001)                   F
(PID.TID 0000.0001)     ;
(PID.TID 0000.0001) SHELFICE_tave_mnc   = /* use netcdf for time averages */
(PID.TID 0000.0001)                   F
(PID.TID 0000.0001)     ;
(PID.TID 0000.0001) SHELFICE_dumpFreq = /* analoguous to dumpFreq */
(PID.TID 0000.0001)                 1.080000000000000E+04
(PID.TID 0000.0001)     ;
(PID.TID 0000.0001) SHELFICE_taveFreq = /* analoguous to taveFreq */
(PID.TID 0000.0001)                 0.000000000000000E+00
(PID.TID 0000.0001)     ;
(PID.TID 0000.0001) SHELFICE_CHECK: end of SHELFICE config. summary
(PID.TID 0000.0001) GAD_CHECK: #define ALLOW_GENERIC_ADVDIFF
(PID.TID 0000.0001) // =======================================================
(PID.TID 0000.0001) // Check Model config. (CONFIG_CHECK):
(PID.TID 0000.0001) // CONFIG_CHECK : Normal End
(PID.TID 0000.0001) // =======================================================
(PID.TID 0000.0001) 
(PID.TID 0000.0001)  MDS_READ_META: opening file: pickup.0000002898.meta
(PID.TID 0000.0001)  nRecords = 543 ; filePrec =  64 ; fileIter =      2898
(PID.TID 0000.0001)     nDims =   2 , dims:
(PID.TID 0000.0001)    1:   1   1   1
(PID.TID 0000.0001)    2: 200   1 200
(PID.TID 0000.0001)     nFlds =   9 , nFl3D =   6 , fields:
(PID.TID 0000.0001)  >Uvel    < >Vvel    < >Theta   < >Salt    < >GuNm1   < >GvNm1   < >EtaN    < >dEtaHdt < >EtaH    <
(PID.TID 0000.0001) missingVal=  1.00000000000000E+00 ; nTimRec =   1 , timeList:
(PID.TID 0000.0001)   8.694000000000E+05
(PID.TID 0000.0001) READ_MFLDS_3D_RL: read field: "Uvel    ", #   1 in fldList, rec=   1
(PID.TID 0000.0001)  MDS_READ_FIELD: opening global file: pickup.0000002898.data
(PID.TID 0000.0001) READ_MFLDS_3D_RL: read field: "Vvel    ", #   2 in fldList, rec=   2
(PID.TID 0000.0001)  MDS_READ_FIELD: opening global file: pickup.0000002898.data
(PID.TID 0000.0001) READ_MFLDS_3D_RL: read field: "Theta   ", #   3 in fldList, rec=   3
(PID.TID 0000.0001)  MDS_READ_FIELD: opening global file: pickup.0000002898.data
(PID.TID 0000.0001) READ_MFLDS_3D_RL: read field: "Salt    ", #   4 in fldList, rec=   4
(PID.TID 0000.0001)  MDS_READ_FIELD: opening global file: pickup.0000002898.data
(PID.TID 0000.0001) READ_MFLDS_3D_RL: read field: "GuNm1   ", #   5 in fldList, rec=   5
(PID.TID 0000.0001)  MDS_READ_FIELD: opening global file: pickup.0000002898.data
(PID.TID 0000.0001) READ_MFLDS_3D_RL: read field: "GvNm1   ", #   6 in fldList, rec=   6
(PID.TID 0000.0001)  MDS_READ_FIELD: opening global file: pickup.0000002898.data
(PID.TID 0000.0001) READ_MFLDS_3D_RL: read field: "EtaN    ", #   7 in fldList, rec= 541
(PID.TID 0000.0001)  MDS_READ_FIELD: opening global file: pickup.0000002898.data
(PID.TID 0000.0001) READ_MFLDS_3D_RL: read field: "dEtaHdt ", #   8 in fldList, rec= 542
(PID.TID 0000.0001)  MDS_READ_FIELD: opening global file: pickup.0000002898.data
(PID.TID 0000.0001) READ_MFLDS_3D_RL: read field: "EtaH    ", #   9 in fldList, rec= 543
(PID.TID 0000.0001)  MDS_READ_FIELD: opening global file: pickup.0000002898.data
(PID.TID 0000.0001) READ_MFLDS_CHECK: - normal end ; reset MFLDS file-name: pickup.0000002898
(PID.TID 0000.0001)  write diagnostics summary to file ioUnit:      6
Iter.Nb:      2898 ; Time(s):  8.6940000000000E+05
------------------------------------------------------------------------
2D/3D diagnostics: Number of lists:     2
------------------------------------------------------------------------
listId=    1 ; file name: surfDiag
 nFlds, nActive,       freq     &     phase        , nLev               
   13  |   13  |     10800.000000         0.000000 |   1
 levels:   1
 diag# | name   |   ipt  |  iMate | kLev|   count |   mate.C|           
    23 |ETAN    |      1 |      0 |   1 |       0 |
    96 |RSURF   |      2 |      0 |   1 |       0 |
    80 |oceTAUX |      3 |      4 |   1 |       0 |       0 |
    81 |oceTAUY |      4 |      3 |   1 |       0 |       0 |
    86 |oceQnet |      5 |      0 |   1 |       0 |
    84 |oceFWflx|      6 |      0 |   1 |       0 |
    77 |MXLDEPTH|      7 |      0 |   1 |       0 |
   196 |SHIfwFlx|      8 |      0 |   1 |       0 |
   197 |SHIhtFlx|      9 |      0 |   1 |       0 |
   202 |SHIgammT|     10 |      0 |   1 |       0 |
   203 |SHIgammS|     11 |      0 |   1 |       0 |
   205 |SHI_mass|     12 |      0 |   1 |       0 |
   204 |SHIuStar|     13 |      0 |   1 |       0 |
------------------------------------------------------------------------
listId=    2 ; file name: dynDiag
 nFlds, nActive,       freq     &     phase        , nLev               
   10  |   10  |     10800.000000         0.000000 |  90
 levels:   1   2   3   4   5   6   7   8   9  10  11  12  13  14  15  16  17  18  19  20  21  22  23  24  25
 levels:  26  27  28  29  30  31  32  33  34  35  36  37  38  39  40  41  42  43  44  45  46  47  48  49  50
 levels:  51  52  53  54  55  56  57  58  59  60  61  62  63  64  65  66  67  68  69  70  71  72  73  74  75
 levels:  76  77  78  79  80  81  82  83  84  85  86  87  88  89  90
 diag# | name   |   ipt  |  iMate | kLev|   count |   mate.C|           
   -30 |UVEL    |     14 |    104 |  90 |       0 |       0 |
   -31 |VVEL    |    104 |     14 |  90 |       0 |       0 |
    32 |WVEL    |    194 |      0 |  90 |       0 |
   -26 |THETA   |    284 |      0 |  90 |       0 |
   -27 |SALT    |    374 |      0 |  90 |       0 |
   -64 |RHOAnoma|    464 |      0 |  90 |       0 |
    79 |CONVADJ |    554 |      0 |  90 |       0 |
    97 |hFactorC|    644 |      0 |  90 |       0 |
    98 |hFactorW|    734 |    824 |  90 |       0 |       0 |
    99 |hFactorS|    824 |    734 |  90 |       0 |       0 |
------------------------------------------------------------------------
Global & Regional Statistics diagnostics: Number of lists:     2
------------------------------------------------------------------------
listId=   1 ; file name: dynStDiag
 nFlds, nActive,       freq     &     phase        |                    
    6  |    6  |      3600.000000         0.000000 |
 Regions:   0
 diag# | name   |   ipt  |  iMate |    Volume   |   mate-Vol. |         
    23 |ETAN    |      1 |      0 | 0.00000E+00 |
    26 |THETA   |      2 |      0 | 0.00000E+00 |
    27 |SALT    |     92 |      0 | 0.00000E+00 |
    30 |UVEL    |    182 |      0 | 0.00000E+00 |
    31 |VVEL    |    272 |      0 | 0.00000E+00 |
    32 |WVEL    |    362 |      0 | 0.00000E+00 |
------------------------------------------------------------------------
listId=   2 ; file name: surfStDiag
 nFlds, nActive,       freq     &     phase        |                    
    2  |    2  |      1800.000000         0.000000 |
 Regions:   0  1  2
 diag# | name   |   ipt  |  iMate |    Volume   |   mate-Vol. |         
    23 |ETAN    |    452 |      0 | 0.00000E+00 |
    96 |RSURF   |    453 |      0 | 0.00000E+00 |
------------------------------------------------------------------------
(PID.TID 0000.0001)  MDS_READ_META: opening file: pickup_shelfice.0000002898.meta
(PID.TID 0000.0001)  nRecords =   2 ; filePrec =  64 ; fileIter =      2898
(PID.TID 0000.0001)     nDims =   2 , dims:
(PID.TID 0000.0001)    1:   1   1   1
(PID.TID 0000.0001)    2: 200   1 200
(PID.TID 0000.0001)     nFlds =   2 , nFl3D =   0 , fields:
(PID.TID 0000.0001)  >SHI_mass< >R_Shelfi<
(PID.TID 0000.0001) missingVal=  1.00000000000000E+00 ; nTimRec =   1 , timeList:
(PID.TID 0000.0001)   8.694000000000E+05
(PID.TID 0000.0001) READ_MFLDS_3D_RL: read field: "SHI_mass", #   1 in fldList, rec=   1
(PID.TID 0000.0001)  MDS_READ_FIELD: opening global file: pickup_shelfice.0000002898.data
(PID.TID 0000.0001) READ_MFLDS_CHECK: - normal end ; reset MFLDS file-name: pickup_shelfice.0000002898
(PID.TID 0000.0001)  OBCS_FIELDS_LOAD: Reading initial data:      2898  8.694000000000E+05
(PID.TID 0000.0001)  MDS_READ_SEC_XZ: opening global file: vVel_obc.bin
(PID.TID 0000.0001)  MDS_READ_SEC_XZ: opening global file: temp_obc.bin
(PID.TID 0000.0001)  MDS_READ_SEC_XZ: opening global file: salt_obc.bin
(PID.TID 0000.0001) // =======================================================
(PID.TID 0000.0001) // Model current state
(PID.TID 0000.0001) // =======================================================
(PID.TID 0000.0001) 
(PID.TID 0000.0001) // =======================================================
(PID.TID 0000.0001) // Begin MONITOR dynamic field statistics
(PID.TID 0000.0001) // =======================================================
(PID.TID 0000.0001) %MON time_tsnumber                =                  2898
(PID.TID 0000.0001) %MON time_secondsf                =   8.6940000000000E+05
(PID.TID 0000.0001) %MON dynstat_eta_max              =   1.1693583793168E+00
(PID.TID 0000.0001) %MON dynstat_eta_min              =  -2.7271713468834E-01
(PID.TID 0000.0001) %MON dynstat_eta_mean             =   5.6740537571849E-02
(PID.TID 0000.0001) %MON dynstat_eta_sd               =   2.6358567506780E-01
(PID.TID 0000.0001) %MON dynstat_eta_del2             =   3.1154041308555E-02
(PID.TID 0000.0001) %MON dynstat_uvel_max             =   4.3227839431438E-02
(PID.TID 0000.0001) %MON dynstat_uvel_min             =  -7.8281537205613E-02
(PID.TID 0000.0001) %MON dynstat_uvel_mean            =   1.9348407256832E-03
(PID.TID 0000.0001) %MON dynstat_uvel_sd              =   1.3394927699473E-02
(PID.TID 0000.0001) %MON dynstat_uvel_del2            =   5.6905143464608E-06
(PID.TID 0000.0001) %MON dynstat_vvel_max             =   2.5000000000000E-02
(PID.TID 0000.0001) %MON dynstat_vvel_min             =  -2.5000000000000E-02
(PID.TID 0000.0001) %MON dynstat_vvel_mean            =  -6.9903358773603E-04
(PID.TID 0000.0001) %MON dynstat_vvel_sd              =   2.1720937091089E-03
(PID.TID 0000.0001) %MON dynstat_vvel_del2            =   5.2980666518705E-06
(PID.TID 0000.0001) %MON dynstat_wvel_max             =   3.2201797602114E-03
(PID.TID 0000.0001) %MON dynstat_wvel_min             =  -3.7128293882733E-05
(PID.TID 0000.0001) %MON dynstat_wvel_mean            =   3.5374661024182E-05
(PID.TID 0000.0001) %MON dynstat_wvel_sd              =   2.2120565782225E-04
(PID.TID 0000.0001) %MON dynstat_wvel_del2            =   3.8927576696302E-06
(PID.TID 0000.0001) %MON dynstat_theta_max            =   1.9999999614995E+00
(PID.TID 0000.0001) %MON dynstat_theta_min            =  -1.9000000000007E+00
(PID.TID 0000.0001) %MON dynstat_theta_mean           =   6.4929707644812E-01
(PID.TID 0000.0001) %MON dynstat_theta_sd             =   1.2490523601444E+00
(PID.TID 0000.0001) %MON dynstat_theta_del2           =   5.7466518558407E-04
(PID.TID 0000.0001) %MON dynstat_salt_max             =   3.4699999995064E+01
(PID.TID 0000.0001) %MON dynstat_salt_min             =   3.4199999999997E+01
(PID.TID 0000.0001) %MON dynstat_salt_mean            =   3.4526557819045E+01
(PID.TID 0000.0001) %MON dynstat_salt_sd              =   1.6104974275257E-01
(PID.TID 0000.0001) %MON dynstat_salt_del2            =   7.3881471423369E-05
(PID.TID 0000.0001) %MON advcfl_uvel_max              =   6.1264099782214E-03
(PID.TID 0000.0001) %MON advcfl_vvel_max              =   8.6348427523641E-03
(PID.TID 0000.0001) %MON advcfl_wvel_max              =   9.6605392806341E-02
(PID.TID 0000.0001) %MON advcfl_W_hf_max              =   9.6605392806341E-02
(PID.TID 0000.0001) %MON pe_b_mean                    =   6.2896901140154E-04
(PID.TID 0000.0001) %MON ke_max                       =   3.0936543454643E-03
(PID.TID 0000.0001) %MON ke_mean                      =   9.3739766791968E-05
(PID.TID 0000.0001) %MON ke_vol                       =   3.5709721956487E+11
(PID.TID 0000.0001) // =======================================================
(PID.TID 0000.0001) // End MONITOR dynamic field statistics
(PID.TID 0000.0001) // =======================================================
(PID.TID 0000.0001) // =======================================================
(PID.TID 0000.0001) // Begin OBCS MONITOR field statistics
(PID.TID 0000.0001) // =======================================================
(PID.TID 0000.0001) %MON obc_N_vVel_max               =   2.5000000000000E-02
(PID.TID 0000.0001) %MON obc_N_vVel_min               =  -2.5000000000000E-02
(PID.TID 0000.0001) %MON obc_N_vVel_mean              =  -6.5733955351178E-20
(PID.TID 0000.0001) %MON obc_N_vVel_sd                =   1.4595032760272E-02
(PID.TID 0000.0001) %MON obc_N_vVel_Int               =  -2.2737367544323E-13
(PID.TID 0000.0001) // =======================================================
(PID.TID 0000.0001) // End OBCS MONITOR field statistics
(PID.TID 0000.0001) // =======================================================
(PID.TID 0000.0001) SOLVE_FOR_PRESSURE: putPmEinXvector =    F
 cg2d: Sum(rhs),rhsMax =  -8.30454415717935E-03  1.20149977625955E+01
(PID.TID 0000.0001)      cg2d_init_res =   6.27820268273025E-03
(PID.TID 0000.0001)      cg2d_iters(min,last) =      -1     117
(PID.TID 0000.0001)      cg2d_last_res =   3.77204414676275E-12
(PID.TID 0000.0001) // =======================================================
(PID.TID 0000.0001) // Begin MONITOR dynamic field statistics
(PID.TID 0000.0001) // =======================================================
(PID.TID 0000.0001) %MON time_tsnumber                =                  2899
(PID.TID 0000.0001) %MON time_secondsf                =   8.6970000000000E+05
(PID.TID 0000.0001) %MON dynstat_eta_max              =   1.1750712624852E+00
(PID.TID 0000.0001) %MON dynstat_eta_min              =  -2.8056969601930E-01
(PID.TID 0000.0001) %MON dynstat_eta_mean             =   5.6749093287363E-02
(PID.TID 0000.0001) %MON dynstat_eta_sd               =   2.6698938536061E-01
(PID.TID 0000.0001) %MON dynstat_eta_del2             =   3.1157658724911E-02
(PID.TID 0000.0001) %MON dynstat_uvel_max             =   4.3225730537024E-02
(PID.TID 0000.0001) %MON dynstat_uvel_min             =  -7.8280729945122E-02
(PID.TID 0000.0001) %MON dynstat_uvel_mean            =   1.9674800957532E-03
(PID.TID 0000.0001) %MON dynstat_uvel_sd              =   1.3397123225347E-02
(PID.TID 0000.0001) %MON dynstat_uvel_del2            =   5.6905094608655E-06
(PID.TID 0000.0001) %MON dynstat_vvel_max             =   2.5000000000000E-02
(PID.TID 0000.0001) %MON dynstat_vvel_min             =  -2.5000000000000E-02
(PID.TID 0000.0001) %MON dynstat_vvel_mean            =  -8.2867812678707E-04
(PID.TID 0000.0001) %MON dynstat_vvel_sd              =   2.2031021807856E-03
(PID.TID 0000.0001) %MON dynstat_vvel_del2            =   5.2972057820135E-06
(PID.TID 0000.0001) %MON dynstat_wvel_max             =   3.2193342364275E-03
(PID.TID 0000.0001) %MON dynstat_wvel_min             =  -3.6883572359413E-05
(PID.TID 0000.0001) %MON dynstat_wvel_mean            =   3.4885251862138E-05
(PID.TID 0000.0001) %MON dynstat_wvel_sd              =   2.2113990405241E-04
(PID.TID 0000.0001) %MON dynstat_wvel_del2            =   3.8921334446286E-06
(PID.TID 0000.0001) %MON dynstat_theta_max            =   1.9999999616538E+00
(PID.TID 0000.0001) %MON dynstat_theta_min            =  -1.9000000000007E+00
(PID.TID 0000.0001) %MON dynstat_theta_mean           =   6.4929693896894E-01
(PID.TID 0000.0001) %MON dynstat_theta_sd             =   1.2490514430260E+00
(PID.TID 0000.0001) %MON dynstat_theta_del2           =   5.7467334367723E-04
(PID.TID 0000.0001) %MON dynstat_salt_max             =   3.4699999995084E+01
(PID.TID 0000.0001) %MON dynstat_salt_min             =   3.4199999999997E+01
(PID.TID 0000.0001) %MON dynstat_salt_mean            =   3.4526557471685E+01
(PID.TID 0000.0001) %MON dynstat_salt_sd              =   1.6104995514447E-01
(PID.TID 0000.0001) %MON dynstat_salt_del2            =   7.3881993318000E-05
(PID.TID 0000.0001) %MON advcfl_uvel_max              =   6.1263468010164E-03
(PID.TID 0000.0001) %MON advcfl_vvel_max              =   8.6348427523641E-03
(PID.TID 0000.0001) %MON advcfl_wvel_max              =   9.6580027092824E-02
(PID.TID 0000.0001) %MON advcfl_W_hf_max              =   9.6580027092824E-02
(PID.TID 0000.0001) %MON pe_b_mean                    =  -1.3204816226560E-03
(PID.TID 0000.0001) %MON ke_max                       =   3.0935132827659E-03
(PID.TID 0000.0001) %MON ke_mean                      =   9.3999767770528E-05
(PID.TID 0000.0001) %MON ke_vol                       =   3.5709722489369E+11
(PID.TID 0000.0001) // =======================================================
(PID.TID 0000.0001) // End MONITOR dynamic field statistics
(PID.TID 0000.0001) // =======================================================
(PID.TID 0000.0001) // =======================================================
(PID.TID 0000.0001) // Begin OBCS MONITOR field statistics
(PID.TID 0000.0001) // =======================================================
(PID.TID 0000.0001) %MON obc_N_vVel_max               =   2.5000000000000E-02
(PID.TID 0000.0001) %MON obc_N_vVel_min               =  -2.5000000000000E-02
(PID.TID 0000.0001) %MON obc_N_vVel_mean              =  -6.5733955351178E-20
(PID.TID 0000.0001) %MON obc_N_vVel_sd                =   1.4595032760272E-02
(PID.TID 0000.0001) %MON obc_N_vVel_Int               =  -2.2737367544323E-13
(PID.TID 0000.0001) // =======================================================
(PID.TID 0000.0001) // End OBCS MONITOR field statistics
(PID.TID 0000.0001) // =======================================================
 cg2d: Sum(rhs),rhsMax =  -8.30595277285057E-03  1.20147970175638E+01
(PID.TID 0000.0001)      cg2d_init_res =   6.27852128736015E-03
(PID.TID 0000.0001)      cg2d_iters(min,last) =      -1     117
(PID.TID 0000.0001)      cg2d_last_res =   3.78953170177504E-12
(PID.TID 0000.0001) // =======================================================
(PID.TID 0000.0001) // Begin MONITOR dynamic field statistics
(PID.TID 0000.0001) // =======================================================
(PID.TID 0000.0001) %MON time_tsnumber                =                  2900
(PID.TID 0000.0001) %MON time_secondsf                =   8.7000000000000E+05
(PID.TID 0000.0001) %MON dynstat_eta_max              =   1.1813465586982E+00
(PID.TID 0000.0001) %MON dynstat_eta_min              =  -2.8885758582535E-01
(PID.TID 0000.0001) %MON dynstat_eta_mean             =   5.6757770743638E-02
(PID.TID 0000.0001) %MON dynstat_eta_sd               =   2.7072340373236E-01
(PID.TID 0000.0001) %MON dynstat_eta_del2             =   3.1161387833288E-02
(PID.TID 0000.0001) %MON dynstat_uvel_max             =   4.3224142538807E-02
(PID.TID 0000.0001) %MON dynstat_uvel_min             =  -7.8279476588979E-02
(PID.TID 0000.0001) %MON dynstat_uvel_mean            =   2.0059076775190E-03
(PID.TID 0000.0001) %MON dynstat_uvel_sd              =   1.3399360800824E-02
(PID.TID 0000.0001) %MON dynstat_uvel_del2            =   5.6904776082492E-06
(PID.TID 0000.0001) %MON dynstat_vvel_max             =   2.5000000000000E-02
(PID.TID 0000.0001) %MON dynstat_vvel_min             =  -2.5000000000000E-02
(PID.TID 0000.0001) %MON dynstat_vvel_mean            =  -9.5484337588158E-04
(PID.TID 0000.0001) %MON dynstat_vvel_sd              =   2.2367453425089E-03
(PID.TID 0000.0001) %MON dynstat_vvel_del2            =   5.2967904849293E-06
(PID.TID 0000.0001) %MON dynstat_wvel_max             =   3.2186646142663E-03
(PID.TID 0000.0001) %MON dynstat_wvel_min             =  -3.6637018744395E-05
(PID.TID 0000.0001) %MON dynstat_wvel_mean            =   3.4413144010846E-05
(PID.TID 0000.0001) %MON dynstat_wvel_sd              =   2.2110053551848E-04
(PID.TID 0000.0001) %MON dynstat_wvel_del2            =   3.8918686057046E-06
(PID.TID 0000.0001) %MON dynstat_theta_max            =   1.9999999613414E+00
(PID.TID 0000.0001) %MON dynstat_theta_min            =  -1.9000000000007E+00
(PID.TID 0000.0001) %MON dynstat_theta_mean           =   6.4929680036551E-01
(PID.TID 0000.0001) %MON dynstat_theta_sd             =   1.2490505108651E+00
(PID.TID 0000.0001) %MON dynstat_theta_del2           =   5.7468025466539E-04
(PID.TID 0000.0001) %MON dynstat_salt_max             =   3.4699999995044E+01
(PID.TID 0000.0001) %MON dynstat_salt_min             =   3.4199999999997E+01
(PID.TID 0000.0001) %MON dynstat_salt_mean            =   3.4526557118742E+01
(PID.TID 0000.0001) %MON dynstat_salt_sd              =   1.6105016797433E-01
(PID.TID 0000.0001) %MON dynstat_salt_del2            =   7.3882370714479E-05
(PID.TID 0000.0001) %MON advcfl_uvel_max              =   6.1262487118136E-03
(PID.TID 0000.0001) %MON advcfl_vvel_max              =   8.6348427523641E-03
(PID.TID 0000.0001) %MON advcfl_wvel_max              =   9.6559938427989E-02
(PID.TID 0000.0001) %MON advcfl_W_hf_max              =   9.6559938427989E-02
(PID.TID 0000.0001) %MON pe_b_mean                    =  -1.3393250951968E-03
(PID.TID 0000.0001) %MON ke_max                       =   3.0933402646050E-03
(PID.TID 0000.0001) %MON ke_mean                      =   9.4293331896732E-05
(PID.TID 0000.0001) %MON ke_vol                       =   3.5709723028280E+11
(PID.TID 0000.0001) // =======================================================
(PID.TID 0000.0001) // End MONITOR dynamic field statistics
(PID.TID 0000.0001) // =======================================================
(PID.TID 0000.0001) // =======================================================
(PID.TID 0000.0001) // Begin OBCS MONITOR field statistics
(PID.TID 0000.0001) // =======================================================
(PID.TID 0000.0001) %MON obc_N_vVel_max               =   2.5000000000000E-02
(PID.TID 0000.0001) %MON obc_N_vVel_min               =  -2.5000000000000E-02
(PID.TID 0000.0001) %MON obc_N_vVel_mean              =  -6.5733955351178E-20
(PID.TID 0000.0001) %MON obc_N_vVel_sd                =   1.4595032760272E-02
(PID.TID 0000.0001) %MON obc_N_vVel_Int               =  -2.2737367544323E-13
(PID.TID 0000.0001) // =======================================================
(PID.TID 0000.0001) // End OBCS MONITOR field statistics
(PID.TID 0000.0001) // =======================================================
(PID.TID 0000.0001) SHI_REMESH at it=      2900
(PID.TID 0000.0001) --> REMESH in:    1   21   1   3 , x,y=   6.250E-02  -7.456E+01
(PID.TID 0000.0001)  before:  ks=  36 Ro_s=  -3.588E+02 eta=  -2.274E-01 hFac=   9.888E-02
(PID.TID 0000.0001)  after :  ks=  37 Ro_s=  -3.600E+02 eta=   9.888E-01 hFac=   1.099E+00
(PID.TID 0000.0001) SHI_REMESH : end of report
 cg2d: Sum(rhs),rhsMax =  -8.02455376200664E-03  1.37977338770542E+01
(PID.TID 0000.0001)      cg2d_init_res =   5.46732545244673E-03
(PID.TID 0000.0001)      cg2d_iters(min,last) =      -1     117
(PID.TID 0000.0001)      cg2d_last_res =   3.32059331673244E-12
(PID.TID 0000.0001) // =======================================================
(PID.TID 0000.0001) // Begin MONITOR dynamic field statistics
(PID.TID 0000.0001) // =======================================================
(PID.TID 0000.0001) %MON time_tsnumber                =                  2901
(PID.TID 0000.0001) %MON time_secondsf                =   8.7030000000000E+05
(PID.TID 0000.0001) %MON dynstat_eta_max              =   1.1881036704008E+00
(PID.TID 0000.0001) %MON dynstat_eta_min              =  -2.9751069522728E-01
(PID.TID 0000.0001) %MON dynstat_eta_mean             =   6.2972087364522E-02
(PID.TID 0000.0001) %MON dynstat_eta_sd               =   2.8175230023838E-01
(PID.TID 0000.0001) %MON dynstat_eta_del2             =   3.4607030760740E-02
(PID.TID 0000.0001) %MON dynstat_uvel_max             =   4.3223000940887E-02
(PID.TID 0000.0001) %MON dynstat_uvel_min             =  -7.8277819575351E-02
(PID.TID 0000.0001) %MON dynstat_uvel_mean            =   2.0495866160744E-03
(PID.TID 0000.0001) %MON dynstat_uvel_sd              =   1.3401893242697E-02
(PID.TID 0000.0001) %MON dynstat_uvel_del2            =   5.6909508485817E-06
(PID.TID 0000.0001) %MON dynstat_vvel_max             =   2.5000000000000E-02
(PID.TID 0000.0001) %MON dynstat_vvel_min             =  -2.5000000000000E-02
(PID.TID 0000.0001) %MON dynstat_vvel_mean            =  -1.0618602057423E-03
(PID.TID 0000.0001) %MON dynstat_vvel_sd              =   2.2678804029187E-03
(PID.TID 0000.0001) %MON dynstat_vvel_del2            =   5.2968712690093E-06
(PID.TID 0000.0001) %MON dynstat_wvel_max             =   3.2181001162601E-03
(PID.TID 0000.0001) %MON dynstat_wvel_min             =  -4.9331522567888E-05
(PID.TID 0000.0001) %MON dynstat_wvel_mean            =   3.4020638378098E-05
(PID.TID 0000.0001) %MON dynstat_wvel_sd              =   2.2108511706595E-04
(PID.TID 0000.0001) %MON dynstat_wvel_del2            =   3.8919637559105E-06
(PID.TID 0000.0001) %MON dynstat_theta_max            =   1.9999999612185E+00
(PID.TID 0000.0001) %MON dynstat_theta_min            =  -1.9000000000007E+00
(PID.TID 0000.0001) %MON dynstat_theta_mean           =   6.4929673372596E-01
(PID.TID 0000.0001) %MON dynstat_theta_sd             =   1.2490494845104E+00
(PID.TID 0000.0001) %MON dynstat_theta_del2           =   5.7473760590931E-04
(PID.TID 0000.0001) %MON dynstat_salt_max             =   3.4699999995028E+01
(PID.TID 0000.0001) %MON dynstat_salt_min             =   3.4199999999997E+01
(PID.TID 0000.0001) %MON dynstat_salt_mean            =   3.4526556766580E+01
(PID.TID 0000.0001) %MON dynstat_salt_sd              =   1.6105037348056E-01
(PID.TID 0000.0001) %MON dynstat_salt_del2            =   7.3889249632151E-05
(PID.TID 0000.0001) %MON advcfl_uvel_max              =   6.1261190318764E-03
(PID.TID 0000.0001) %MON advcfl_vvel_max              =   8.6348427523641E-03
(PID.TID 0000.0001) %MON advcfl_wvel_max              =   9.6543003487804E-02
(PID.TID 0000.0001) %MON advcfl_W_hf_max              =   9.6543003487804E-02
(PID.TID 0000.0001) %MON pe_b_mean                    =  -1.4605753851541E-03
(PID.TID 0000.0001) %MON ke_max                       =   3.0931480894938E-03
(PID.TID 0000.0001) %MON ke_mean                      =   9.4593918543995E-05
(PID.TID 0000.0001) %MON ke_vol                       =   3.5709723574859E+11
(PID.TID 0000.0001) // =======================================================
(PID.TID 0000.0001) // End MONITOR dynamic field statistics
(PID.TID 0000.0001) // =======================================================
(PID.TID 0000.0001) // =======================================================
(PID.TID 0000.0001) // Begin OBCS MONITOR field statistics
(PID.TID 0000.0001) // =======================================================
(PID.TID 0000.0001) %MON obc_N_vVel_max               =   2.5000000000000E-02
(PID.TID 0000.0001) %MON obc_N_vVel_min               =  -2.5000000000000E-02
(PID.TID 0000.0001) %MON obc_N_vVel_mean              =  -6.5733955351178E-20
(PID.TID 0000.0001) %MON obc_N_vVel_sd                =   1.4595032760272E-02
(PID.TID 0000.0001) %MON obc_N_vVel_Int               =  -2.2737367544323E-13
(PID.TID 0000.0001) // =======================================================
(PID.TID 0000.0001) // End OBCS MONITOR field statistics
(PID.TID 0000.0001) // =======================================================
 cg2d: Sum(rhs),rhsMax =  -8.02583843065904E-03  1.37974782251051E+01
(PID.TID 0000.0001)      cg2d_init_res =   5.46691321772003E-03
(PID.TID 0000.0001)      cg2d_iters(min,last) =      -1     117
(PID.TID 0000.0001)      cg2d_last_res =   3.31548776212514E-12
(PID.TID 0000.0001) // =======================================================
(PID.TID 0000.0001) // Begin MONITOR dynamic field statistics
(PID.TID 0000.0001) // =======================================================
(PID.TID 0000.0001) %MON time_tsnumber                =                  2902
(PID.TID 0000.0001) %MON time_secondsf                =   8.7060000000000E+05
(PID.TID 0000.0001) %MON dynstat_eta_max              =   1.1952087597999E+00
(PID.TID 0000.0001) %MON dynstat_eta_min              =  -3.0642400410290E-01
(PID.TID 0000.0001) %MON dynstat_eta_mean             =   6.2981001737989E-02
(PID.TID 0000.0001) %MON dynstat_eta_sd               =   2.8575273951656E-01
(PID.TID 0000.0001) %MON dynstat_eta_del2             =   3.4610593660489E-02
(PID.TID 0000.0001) %MON dynstat_uvel_max             =   4.3222194833786E-02
(PID.TID 0000.0001) %MON dynstat_uvel_min             =  -7.8275859101105E-02
(PID.TID 0000.0001) %MON dynstat_uvel_mean            =   2.0973076142228E-03
(PID.TID 0000.0001) %MON dynstat_uvel_sd              =   1.3404715170390E-02
(PID.TID 0000.0001) %MON dynstat_uvel_del2            =   5.6909120409109E-06
(PID.TID 0000.0001) %MON dynstat_vvel_max             =   2.5000000000000E-02
(PID.TID 0000.0001) %MON dynstat_vvel_min             =  -2.5000000000000E-02
(PID.TID 0000.0001) %MON dynstat_vvel_mean            =  -1.1385568993767E-03
(PID.TID 0000.0001) %MON dynstat_vvel_sd              =   2.2916143498911E-03
(PID.TID 0000.0001) %MON dynstat_vvel_del2            =   5.2964677827633E-06
(PID.TID 0000.0001) %MON dynstat_wvel_max             =   3.2177192416252E-03
(PID.TID 0000.0001) %MON dynstat_wvel_min             =  -5.7986896099766E-05
(PID.TID 0000.0001) %MON dynstat_wvel_mean            =   3.3737139441747E-05
(PID.TID 0000.0001) %MON dynstat_wvel_sd              =   2.2107173059485E-04
(PID.TID 0000.0001) %MON dynstat_wvel_del2            =   3.8917405289435E-06
(PID.TID 0000.0001) %MON dynstat_theta_max            =   1.9999999613779E+00
(PID.TID 0000.0001) %MON dynstat_theta_min            =  -1.9000000000007E+00
(PID.TID 0000.0001) %MON dynstat_theta_mean           =   6.4929679278266E-01
(PID.TID 0000.0001) %MON dynstat_theta_sd             =   1.2490483085486E+00
(PID.TID 0000.0001) %MON dynstat_theta_del2           =   5.7474289749106E-04
(PID.TID 0000.0001) %MON dynstat_salt_max             =   3.4699999995048E+01
(PID.TID 0000.0001) %MON dynstat_salt_min             =   3.4199999999997E+01
(PID.TID 0000.0001) %MON dynstat_salt_mean            =   3.4526556420546E+01
(PID.TID 0000.0001) %MON dynstat_salt_sd              =   1.6105056611931E-01
(PID.TID 0000.0001) %MON dynstat_salt_del2            =   7.3889451072463E-05
(PID.TID 0000.0001) %MON advcfl_uvel_max              =   6.1259656027358E-03
(PID.TID 0000.0001) %MON advcfl_vvel_max              =   8.6348427523641E-03
(PID.TID 0000.0001) %MON advcfl_wvel_max              =   9.6531577248757E-02
(PID.TID 0000.0001) %MON advcfl_W_hf_max              =   9.6531577248757E-02
(PID.TID 0000.0001) %MON pe_b_mean                    =  -1.4815292390181E-03
(PID.TID 0000.0001) %MON ke_max                       =   3.0929497299664E-03
(PID.TID 0000.0001) %MON ke_mean                      =   9.4869212656299E-05
(PID.TID 0000.0001) %MON ke_vol                       =   3.5709724129337E+11
(PID.TID 0000.0001) // =======================================================
(PID.TID 0000.0001) // End MONITOR dynamic field statistics
(PID.TID 0000.0001) // =======================================================
(PID.TID 0000.0001) // =======================================================
(PID.TID 0000.0001) // Begin OBCS MONITOR field statistics
(PID.TID 0000.0001) // =======================================================
(PID.TID 0000.0001) %MON obc_N_vVel_max               =   2.5000000000000E-02
(PID.TID 0000.0001) %MON obc_N_vVel_min               =  -2.5000000000000E-02
(PID.TID 0000.0001) %MON obc_N_vVel_mean              =  -6.5733955351178E-20
(PID.TID 0000.0001) %MON obc_N_vVel_sd                =   1.4595032760272E-02
(PID.TID 0000.0001) %MON obc_N_vVel_Int               =  -2.2737367544323E-13
(PID.TID 0000.0001) // =======================================================
(PID.TID 0000.0001) // End OBCS MONITOR field statistics
(PID.TID 0000.0001) // =======================================================
 cg2d: Sum(rhs),rhsMax =  -8.02713502058264E-03  1.37972199392208E+01
(PID.TID 0000.0001)      cg2d_init_res =   5.46653496596620E-03
(PID.TID 0000.0001)      cg2d_iters(min,last) =      -1     117
(PID.TID 0000.0001)      cg2d_last_res =   3.31830241459789E-12
(PID.TID 0000.0001) // =======================================================
(PID.TID 0000.0001) // Begin MONITOR dynamic field statistics
(PID.TID 0000.0001) // =======================================================
(PID.TID 0000.0001) %MON time_tsnumber                =                  2903
(PID.TID 0000.0001) %MON time_secondsf                =   8.7090000000000E+05
(PID.TID 0000.0001) %MON dynstat_eta_max              =   1.2024989697950E+00
(PID.TID 0000.0001) %MON dynstat_eta_min              =  -3.1547367192805E-01
(PID.TID 0000.0001) %MON dynstat_eta_mean             =   6.2989997260666E-02
(PID.TID 0000.0001) %MON dynstat_eta_sd               =   2.8990130429871E-01
(PID.TID 0000.0001) %MON dynstat_eta_del2             =   3.4614258600093E-02
(PID.TID 0000.0001) %MON dynstat_uvel_max             =   4.3221588848665E-02
(PID.TID 0000.0001) %MON dynstat_uvel_min             =  -7.8273709553452E-02
(PID.TID 0000.0001) %MON dynstat_uvel_mean            =   2.1475030210578E-03
(PID.TID 0000.0001) %MON dynstat_uvel_sd              =   1.3407794173998E-02
(PID.TID 0000.0001) %MON dynstat_uvel_del2            =   5.6908711018104E-06
(PID.TID 0000.0001) %MON dynstat_vvel_max             =   2.5000000000000E-02
(PID.TID 0000.0001) %MON dynstat_vvel_min             =  -2.5000000000000E-02
(PID.TID 0000.0001) %MON dynstat_vvel_mean            =  -1.1790528162956E-03
(PID.TID 0000.0001) %MON dynstat_vvel_sd              =   2.3046701448163E-03
(PID.TID 0000.0001) %MON dynstat_vvel_del2            =   5.2960454112141E-06
(PID.TID 0000.0001) %MON dynstat_wvel_max             =   3.2175426134387E-03
(PID.TID 0000.0001) %MON dynstat_wvel_min             =  -5.8931499025203E-05
(PID.TID 0000.0001) %MON dynstat_wvel_mean            =   3.3588198047419E-05
(PID.TID 0000.0001) %MON dynstat_wvel_sd              =   2.2106558299804E-04
(PID.TID 0000.0001) %MON dynstat_wvel_del2            =   3.8915544414715E-06
(PID.TID 0000.0001) %MON dynstat_theta_max            =   1.9999999612163E+00
(PID.TID 0000.0001) %MON dynstat_theta_min            =  -1.9000000000007E+00
(PID.TID 0000.0001) %MON dynstat_theta_mean           =   6.4929700926966E-01
(PID.TID 0000.0001) %MON dynstat_theta_sd             =   1.2490469523625E+00
(PID.TID 0000.0001) %MON dynstat_theta_del2           =   5.7474795585355E-04
(PID.TID 0000.0001) %MON dynstat_salt_max             =   3.4699999995028E+01
(PID.TID 0000.0001) %MON dynstat_salt_min             =   3.4199999999997E+01
(PID.TID 0000.0001) %MON dynstat_salt_mean            =   3.4526556084873E+01
(PID.TID 0000.0001) %MON dynstat_salt_sd              =   1.6105074216257E-01
(PID.TID 0000.0001) %MON dynstat_salt_del2            =   7.3889641797830E-05
(PID.TID 0000.0001) %MON advcfl_uvel_max              =   6.1257973764763E-03
(PID.TID 0000.0001) %MON advcfl_vvel_max              =   8.6348427523641E-03
(PID.TID 0000.0001) %MON advcfl_wvel_max              =   9.6526278403161E-02
(PID.TID 0000.0001) %MON advcfl_W_hf_max              =   9.6526278403161E-02
(PID.TID 0000.0001) %MON pe_b_mean                    =  -1.5033423608012E-03
(PID.TID 0000.0001) %MON ke_max                       =   3.0927565217777E-03
(PID.TID 0000.0001) %MON ke_mean                      =   9.5093975532848E-05
(PID.TID 0000.0001) %MON ke_vol                       =   3.5709724690840E+11
(PID.TID 0000.0001) // =======================================================
(PID.TID 0000.0001) // End MONITOR dynamic field statistics
(PID.TID 0000.0001) // =======================================================
(PID.TID 0000.0001) // =======================================================
(PID.TID 0000.0001) // Begin OBCS MONITOR field statistics
(PID.TID 0000.0001) // =======================================================
(PID.TID 0000.0001) %MON obc_N_vVel_max               =   2.5000000000000E-02
(PID.TID 0000.0001) %MON obc_N_vVel_min               =  -2.5000000000000E-02
(PID.TID 0000.0001) %MON obc_N_vVel_mean              =  -6.5733955351178E-20
(PID.TID 0000.0001) %MON obc_N_vVel_sd                =   1.4595032760272E-02
(PID.TID 0000.0001) %MON obc_N_vVel_Int               =  -2.2737367544323E-13
(PID.TID 0000.0001) // =======================================================
(PID.TID 0000.0001) // End OBCS MONITOR field statistics
(PID.TID 0000.0001) // =======================================================
 cg2d: Sum(rhs),rhsMax =  -8.02843756483643E-03  1.37969605852057E+01
(PID.TID 0000.0001)      cg2d_init_res =   5.46606156658899E-03
(PID.TID 0000.0001)      cg2d_iters(min,last) =      -1     117
(PID.TID 0000.0001)      cg2d_last_res =   3.31897183575742E-12
(PID.TID 0000.0001) // =======================================================
(PID.TID 0000.0001) // Begin MONITOR dynamic field statistics
(PID.TID 0000.0001) // =======================================================
(PID.TID 0000.0001) %MON time_tsnumber                =                  2904
(PID.TID 0000.0001) %MON time_secondsf                =   8.7120000000000E+05
(PID.TID 0000.0001) %MON dynstat_eta_max              =   1.2098076878231E+00
(PID.TID 0000.0001) %MON dynstat_eta_min              =  -3.2453468096697E-01
(PID.TID 0000.0001) %MON dynstat_eta_mean             =   6.2999034248708E-02
(PID.TID 0000.0001) %MON dynstat_eta_sd               =   2.9411290064975E-01
(PID.TID 0000.0001) %MON dynstat_eta_del2             =   3.4618025298556E-02
(PID.TID 0000.0001) %MON dynstat_uvel_max             =   4.3221043102424E-02
(PID.TID 0000.0001) %MON dynstat_uvel_min             =  -7.8271489578298E-02
(PID.TID 0000.0001) %MON dynstat_uvel_mean            =   2.1984907633324E-03
(PID.TID 0000.0001) %MON dynstat_uvel_sd              =   1.3411078126414E-02
(PID.TID 0000.0001) %MON dynstat_uvel_del2            =   5.6908276947499E-06
(PID.TID 0000.0001) %MON dynstat_vvel_max             =   2.5000000000000E-02
(PID.TID 0000.0001) %MON dynstat_vvel_min             =  -2.5000000000000E-02
(PID.TID 0000.0001) %MON dynstat_vvel_mean            =  -1.1828107517846E-03
(PID.TID 0000.0001) %MON dynstat_vvel_sd              =   2.3060513997823E-03
(PID.TID 0000.0001) %MON dynstat_vvel_del2            =   5.2956347282379E-06
(PID.TID 0000.0001) %MON dynstat_wvel_max             =   3.2175700325666E-03
(PID.TID 0000.0001) %MON dynstat_wvel_min             =  -5.3010369602571E-05
(PID.TID 0000.0001) %MON dynstat_wvel_mean            =   3.3575167681615E-05
(PID.TID 0000.0001) %MON dynstat_wvel_sd              =   2.2106559125318E-04
(PID.TID 0000.0001) %MON dynstat_wvel_del2            =   3.8914684515411E-06
(PID.TID 0000.0001) %MON dynstat_theta_max            =   1.9999999611849E+00
(PID.TID 0000.0001) %MON dynstat_theta_min            =  -1.9000000000007E+00
(PID.TID 0000.0001) %MON dynstat_theta_mean           =   6.4929739140099E-01
(PID.TID 0000.0001) %MON dynstat_theta_sd             =   1.2490454108204E+00
(PID.TID 0000.0001) %MON dynstat_theta_del2           =   5.7475314708850E-04
(PID.TID 0000.0001) %MON dynstat_salt_max             =   3.4699999995024E+01
(PID.TID 0000.0001) %MON dynstat_salt_min             =   3.4199999999997E+01
(PID.TID 0000.0001) %MON dynstat_salt_mean            =   3.4526555762130E+01
(PID.TID 0000.0001) %MON dynstat_salt_sd              =   1.6105090007123E-01
(PID.TID 0000.0001) %MON dynstat_salt_del2            =   7.3889871908854E-05
(PID.TID 0000.0001) %MON advcfl_uvel_max              =   6.1256236384734E-03
(PID.TID 0000.0001) %MON advcfl_vvel_max              =   8.6348427523641E-03
(PID.TID 0000.0001) %MON advcfl_wvel_max              =   9.6527100976997E-02
(PID.TID 0000.0001) %MON advcfl_W_hf_max              =   9.6527100976997E-02
(PID.TID 0000.0001) %MON pe_b_mean                    =  -1.5256275061265E-03
(PID.TID 0000.0001) %MON ke_max                       =   3.0925776688035E-03
(PID.TID 0000.0001) %MON ke_mean                      =   9.5256431761188E-05
(PID.TID 0000.0001) %MON ke_vol                       =   3.5709725257454E+11
(PID.TID 0000.0001) // =======================================================
(PID.TID 0000.0001) // End MONITOR dynamic field statistics
(PID.TID 0000.0001) // =======================================================
(PID.TID 0000.0001) // =======================================================
(PID.TID 0000.0001) // Begin OBCS MONITOR field statistics
(PID.TID 0000.0001) // =======================================================
(PID.TID 0000.0001) %MON obc_N_vVel_max               =   2.5000000000000E-02
(PID.TID 0000.0001) %MON obc_N_vVel_min               =  -2.5000000000000E-02
(PID.TID 0000.0001) %MON obc_N_vVel_mean              =  -6.5733955351178E-20
(PID.TID 0000.0001) %MON obc_N_vVel_sd                =   1.4595032760272E-02
(PID.TID 0000.0001) %MON obc_N_vVel_Int               =  -2.2737367544323E-13
(PID.TID 0000.0001) // =======================================================
(PID.TID 0000.0001) // End OBCS MONITOR field statistics
(PID.TID 0000.0001) // =======================================================
 Compute Stats, Diag. #     23  ETAN      vol(   0 ): 3.779E+09  Parms: SM      M1      
 Compute Stats, Diag. #     26  THETA     vol(   0 ): 2.143E+12  Parms: SMR     MR      
 Compute Stats, Diag. #     27  SALT      vol(   0 ): 2.143E+12  Parms: SMR     MR      
 Compute Stats, Diag. #     30  UVEL      vol(   0 ): 2.143E+12  Parms: UUR     MR      
 Compute Stats, Diag. #     31  VVEL      vol(   0 ): 2.143E+12  Parms: VVR     MR      
 Compute Stats, Diag. #     32  WVEL      vol(   0 ): 2.148E+12  Parms: WM      LR      
 Compute Stats, Diag. #     23  ETAN      vol(   0 ): 3.779E+09  Parms: SM      M1      
 Compute Stats, Diag. #     23  ETAN      vol(   1 ): 2.809E+09  Parms: SM      M1      
 Compute Stats, Diag. #     23  ETAN      vol(   2 ): 9.700E+08  Parms: SM      M1      
 Compute Stats, Diag. #     96  RSURF     vol(   0 ): 3.779E+09  Parms: SM      M1      
 Compute Stats, Diag. #     96  RSURF     vol(   1 ): 2.809E+09  Parms: SM      M1      
 Compute Stats, Diag. #     96  RSURF     vol(   2 ): 9.700E+08  Parms: SM      M1      
(PID.TID 0000.0001) SHI_REMESH at it=      2904
(PID.TID 0000.0001) --> REMESH in:    1   37   1   1 , x,y=   6.250E-02  -7.521E+01
(PID.TID 0000.0001)  before:  ks=  54 Ro_s=  -5.300E+02 eta=   1.210E+00 hFac=   1.121E+00
(PID.TID 0000.0001)  after :  ks=  53 Ro_s=  -5.200E+02 eta=  -8.790E+00 hFac=   1.210E-01
(PID.TID 0000.0001) SHI_REMESH : end of report
 cg2d: Sum(rhs),rhsMax =  -3.67316804375895E-04  6.75119588756434E+01
(PID.TID 0000.0001)      cg2d_init_res =   1.11696736089904E-03
(PID.TID 0000.0001)      cg2d_iters(min,last) =      -1     115
(PID.TID 0000.0001)      cg2d_last_res =   6.85409701945415E-12
(PID.TID 0000.0001) // =======================================================
(PID.TID 0000.0001) // Begin MONITOR dynamic field statistics
(PID.TID 0000.0001) // =======================================================
(PID.TID 0000.0001) %MON time_tsnumber                =                  2905
(PID.TID 0000.0001) %MON time_secondsf                =   8.7150000000000E+05
(PID.TID 0000.0001) %MON dynstat_eta_max              =   1.1489679238691E+00
(PID.TID 0000.0001) %MON dynstat_eta_min              =  -8.7829582974952E+00
(PID.TID 0000.0001) %MON dynstat_eta_mean             =   1.4103955877850E-02
(PID.TID 0000.0001) %MON dynstat_eta_sd               =   6.8026781509042E-01
(PID.TID 0000.0001) %MON dynstat_eta_del2             =   1.1661601653713E-01
(PID.TID 0000.0001) %MON dynstat_uvel_max             =   4.3220427392313E-02
(PID.TID 0000.0001) %MON dynstat_uvel_min             =  -7.8269309131213E-02
(PID.TID 0000.0001) %MON dynstat_uvel_mean            =   2.2487025460486E-03
(PID.TID 0000.0001) %MON dynstat_uvel_sd              =   1.3414502105322E-02
(PID.TID 0000.0001) %MON dynstat_uvel_del2            =   5.6924846189187E-06
(PID.TID 0000.0001) %MON dynstat_vvel_max             =   2.5000000000000E-02
(PID.TID 0000.0001) %MON dynstat_vvel_min             =  -2.5000000000000E-02
(PID.TID 0000.0001) %MON dynstat_vvel_mean            =  -1.1540314814201E-03
(PID.TID 0000.0001) %MON dynstat_vvel_sd              =   2.2970176462352E-03
(PID.TID 0000.0001) %MON dynstat_vvel_del2            =   5.2949546827373E-06
(PID.TID 0000.0001) %MON dynstat_wvel_max             =   3.2177766117477E-03
(PID.TID 0000.0001) %MON dynstat_wvel_min             =  -4.2026822513478E-05
(PID.TID 0000.0001) %MON dynstat_wvel_mean            =   3.3681650724252E-05
(PID.TID 0000.0001) %MON dynstat_wvel_sd              =   2.2106320995406E-04
(PID.TID 0000.0001) %MON dynstat_wvel_del2            =   3.8911889428275E-06
(PID.TID 0000.0001) %MON dynstat_theta_max            =   1.9999999612745E+00
(PID.TID 0000.0001) %MON dynstat_theta_min            =  -1.9000000000007E+00
(PID.TID 0000.0001) %MON dynstat_theta_mean           =   6.4929792517208E-01
(PID.TID 0000.0001) %MON dynstat_theta_sd             =   1.2490437021873E+00
(PID.TID 0000.0001) %MON dynstat_theta_del2           =   5.7470805576962E-04
(PID.TID 0000.0001) %MON dynstat_salt_max             =   3.4699999995035E+01
(PID.TID 0000.0001) %MON dynstat_salt_min             =   3.4199999999997E+01
(PID.TID 0000.0001) %MON dynstat_salt_mean            =   3.4526555452863E+01
(PID.TID 0000.0001) %MON dynstat_salt_sd              =   1.6105104067699E-01
(PID.TID 0000.0001) %MON dynstat_salt_del2            =   7.3885069583321E-05
(PID.TID 0000.0001) %MON advcfl_uvel_max              =   6.1254529939861E-03
(PID.TID 0000.0001) %MON advcfl_vvel_max              =   8.6348427523641E-03
(PID.TID 0000.0001) %MON advcfl_wvel_max              =   9.6533298352430E-02
(PID.TID 0000.0001) %MON advcfl_W_hf_max              =   9.6533298352430E-02
(PID.TID 0000.0001) %MON pe_b_mean                    =  -4.2362888280829E-03
(PID.TID 0000.0001) %MON ke_max                       =   3.0924195182158E-03
(PID.TID 0000.0001) %MON ke_mean                      =   9.5359576410442E-05
(PID.TID 0000.0001) %MON ke_vol                       =   3.5709725826679E+11
(PID.TID 0000.0001) // =======================================================
(PID.TID 0000.0001) // End MONITOR dynamic field statistics
(PID.TID 0000.0001) // =======================================================
(PID.TID 0000.0001) // =======================================================
(PID.TID 0000.0001) // Begin OBCS MONITOR field statistics
(PID.TID 0000.0001) // =======================================================
(PID.TID 0000.0001) %MON obc_N_vVel_max               =   2.5000000000000E-02
(PID.TID 0000.0001) %MON obc_N_vVel_min               =  -2.5000000000000E-02
(PID.TID 0000.0001) %MON obc_N_vVel_mean              =  -6.5733955351178E-20
(PID.TID 0000.0001) %MON obc_N_vVel_sd                =   1.4595032760272E-02
(PID.TID 0000.0001) %MON obc_N_vVel_Int               =  -2.2737367544323E-13
(PID.TID 0000.0001) // =======================================================
(PID.TID 0000.0001) // End OBCS MONITOR field statistics
(PID.TID 0000.0001) // =======================================================
 cg2d: Sum(rhs),rhsMax =  -3.67544449127569E-04  6.75132266687232E+01
(PID.TID 0000.0001)      cg2d_init_res =   1.11680714881741E-03
(PID.TID 0000.0001)      cg2d_iters(min,last) =      -1     115
(PID.TID 0000.0001)      cg2d_last_res =   6.84743064204171E-12
(PID.TID 0000.0001) // =======================================================
(PID.TID 0000.0001) // Begin MONITOR dynamic field statistics
(PID.TID 0000.0001) // =======================================================
(PID.TID 0000.0001) %MON time_tsnumber                =                  2906
(PID.TID 0000.0001) %MON time_secondsf                =   8.7180000000000E+05
(PID.TID 0000.0001) %MON dynstat_eta_max              =   1.1565461727349E+00
(PID.TID 0000.0001) %MON dynstat_eta_min              =  -8.7760191396196E+00
(PID.TID 0000.0001) %MON dynstat_eta_mean             =   1.4112961830138E-02
(PID.TID 0000.0001) %MON dynstat_eta_sd               =   6.8158679312606E-01
(PID.TID 0000.0001) %MON dynstat_eta_del2             =   1.1661717247886E-01
(PID.TID 0000.0001) %MON dynstat_uvel_max             =   4.3219635682354E-02
(PID.TID 0000.0001) %MON dynstat_uvel_min             =  -7.8267258302366E-02
(PID.TID 0000.0001) %MON dynstat_uvel_mean            =   2.2968671351428E-03
(PID.TID 0000.0001) %MON dynstat_uvel_sd              =   1.3418006120642E-02
(PID.TID 0000.0001) %MON dynstat_uvel_del2            =   5.6923145407160E-06
(PID.TID 0000.0001) %MON dynstat_vvel_max             =   2.5000000000000E-02
(PID.TID 0000.0001) %MON dynstat_vvel_min             =  -2.5000000000000E-02
(PID.TID 0000.0001) %MON dynstat_vvel_mean            =  -1.1005183207713E-03
(PID.TID 0000.0001) %MON dynstat_vvel_sd              =   2.2804536069989E-03
(PID.TID 0000.0001) %MON dynstat_vvel_del2            =   5.2947383392611E-06
(PID.TID 0000.0001) %MON dynstat_wvel_max             =   3.2181194072340E-03
(PID.TID 0000.0001) %MON dynstat_wvel_min             =  -3.3278834339292E-05
(PID.TID 0000.0001) %MON dynstat_wvel_mean            =   3.3880639737038E-05
(PID.TID 0000.0001) %MON dynstat_wvel_sd              =   2.2107865184563E-04
(PID.TID 0000.0001) %MON dynstat_wvel_del2            =   3.8914322466399E-06
(PID.TID 0000.0001) %MON dynstat_theta_max            =   1.9999999614314E+00
(PID.TID 0000.0001) %MON dynstat_theta_min            =  -1.9000000000007E+00
(PID.TID 0000.0001) %MON dynstat_theta_mean           =   6.4929857957590E-01
(PID.TID 0000.0001) %MON dynstat_theta_sd             =   1.2490418629195E+00
(PID.TID 0000.0001) %MON dynstat_theta_del2           =   5.7471445616191E-04
(PID.TID 0000.0001) %MON dynstat_salt_max             =   3.4699999995055E+01
(PID.TID 0000.0001) %MON dynstat_salt_min             =   3.4199999999997E+01
(PID.TID 0000.0001) %MON dynstat_salt_mean            =   3.4526555156060E+01
(PID.TID 0000.0001) %MON dynstat_salt_sd              =   1.6105116639554E-01
(PID.TID 0000.0001) %MON dynstat_salt_del2            =   7.3885645291195E-05
(PID.TID 0000.0001) %MON advcfl_uvel_max              =   6.1252924935826E-03
(PID.TID 0000.0001) %MON advcfl_vvel_max              =   8.6348427523641E-03
(PID.TID 0000.0001) %MON advcfl_wvel_max              =   9.6543582217019E-02
(PID.TID 0000.0001) %MON advcfl_W_hf_max              =   9.6543582217019E-02
(PID.TID 0000.0001) %MON pe_b_mean                    =  -4.2533855974130E-03
(PID.TID 0000.0001) %MON ke_max                       =   3.0922851110384E-03
(PID.TID 0000.0001) %MON ke_mean                      =   9.5417795928677E-05
(PID.TID 0000.0001) %MON ke_vol                       =   3.5709726396091E+11
(PID.TID 0000.0001) // =======================================================
(PID.TID 0000.0001) // End MONITOR dynamic field statistics
(PID.TID 0000.0001) // =======================================================
(PID.TID 0000.0001) // =======================================================
(PID.TID 0000.0001) // Begin OBCS MONITOR field statistics
(PID.TID 0000.0001) // =======================================================
(PID.TID 0000.0001) %MON obc_N_vVel_max               =   2.5000000000000E-02
(PID.TID 0000.0001) %MON obc_N_vVel_min               =  -2.5000000000000E-02
(PID.TID 0000.0001) %MON obc_N_vVel_mean              =  -6.5733955351178E-20
(PID.TID 0000.0001) %MON obc_N_vVel_sd                =   1.4595032760272E-02
(PID.TID 0000.0001) %MON obc_N_vVel_Int               =  -2.2737367544323E-13
(PID.TID 0000.0001) // =======================================================
(PID.TID 0000.0001) // End OBCS MONITOR field statistics
(PID.TID 0000.0001) // =======================================================
 cg2d: Sum(rhs),rhsMax =  -3.67770957952825E-04  6.75144481867443E+01
(PID.TID 0000.0001)      cg2d_init_res =   1.11669426798976E-03
(PID.TID 0000.0001)      cg2d_iters(min,last) =      -1     115
(PID.TID 0000.0001)      cg2d_last_res =   6.83748429738208E-12
(PID.TID 0000.0001) // =======================================================
(PID.TID 0000.0001) // Begin MONITOR dynamic field statistics
(PID.TID 0000.0001) // =======================================================
(PID.TID 0000.0001) %MON time_tsnumber                =                  2907
(PID.TID 0000.0001) %MON time_secondsf                =   8.7210000000000E+05
(PID.TID 0000.0001) %MON dynstat_eta_max              =   1.1637955088966E+00
(PID.TID 0000.0001) %MON dynstat_eta_min              =  -8.7693883641775E+00
(PID.TID 0000.0001) %MON dynstat_eta_mean             =   1.4121914813349E-02
(PID.TID 0000.0001) %MON dynstat_eta_sd               =   6.8289760437776E-01
(PID.TID 0000.0001) %MON dynstat_eta_del2             =   1.1661835917641E-01
(PID.TID 0000.0001) %MON dynstat_uvel_max             =   4.3218595684558E-02
(PID.TID 0000.0001) %MON dynstat_uvel_min             =  -7.8265398914185E-02
(PID.TID 0000.0001) %MON dynstat_uvel_mean            =   2.3421363472727E-03
(PID.TID 0000.0001) %MON dynstat_uvel_sd              =   1.3421536399858E-02
(PID.TID 0000.0001) %MON dynstat_uvel_del2            =   5.6919841412263E-06
(PID.TID 0000.0001) %MON dynstat_vvel_max             =   2.5000000000000E-02
(PID.TID 0000.0001) %MON dynstat_vvel_min             =  -2.5000000000000E-02
(PID.TID 0000.0001) %MON dynstat_vvel_mean            =  -1.0322473321231E-03
(PID.TID 0000.0001) %MON dynstat_vvel_sd              =   2.2600096071999E-03
(PID.TID 0000.0001) %MON dynstat_vvel_del2            =   5.2946568895823E-06
(PID.TID 0000.0001) %MON dynstat_wvel_max             =   3.2185431811694E-03
(PID.TID 0000.0001) %MON dynstat_wvel_min             =  -3.2460146362562E-05
(PID.TID 0000.0001) %MON dynstat_wvel_mean            =   3.4134738939707E-05
(PID.TID 0000.0001) %MON dynstat_wvel_sd              =   2.2110210302390E-04
(PID.TID 0000.0001) %MON dynstat_wvel_del2            =   3.8918172688565E-06
(PID.TID 0000.0001) %MON dynstat_theta_max            =   1.9999999615847E+00
(PID.TID 0000.0001) %MON dynstat_theta_min            =  -1.9000000000007E+00
(PID.TID 0000.0001) %MON dynstat_theta_mean           =   6.4929931033711E-01
(PID.TID 0000.0001) %MON dynstat_theta_sd             =   1.2490399424621E+00
(PID.TID 0000.0001) %MON dynstat_theta_del2           =   5.7472163439918E-04
(PID.TID 0000.0001) %MON dynstat_salt_max             =   3.4699999995075E+01
(PID.TID 0000.0001) %MON dynstat_salt_min             =   3.4199999999997E+01
(PID.TID 0000.0001) %MON dynstat_salt_mean            =   3.4526554868590E+01
(PID.TID 0000.0001) %MON dynstat_salt_sd              =   1.6105128169169E-01
(PID.TID 0000.0001) %MON dynstat_salt_del2            =   7.3886331427776E-05
(PID.TID 0000.0001) %MON advcfl_uvel_max              =   6.1251469755625E-03
(PID.TID 0000.0001) %MON advcfl_vvel_max              =   8.6348427523641E-03
(PID.TID 0000.0001) %MON advcfl_wvel_max              =   9.6556295435083E-02
(PID.TID 0000.0001) %MON advcfl_W_hf_max              =   9.6556295435083E-02
(PID.TID 0000.0001) %MON pe_b_mean                    =  -4.2702143271079E-03
(PID.TID 0000.0001) %MON ke_max                       =   3.0921741144952E-03
(PID.TID 0000.0001) %MON ke_mean                      =   9.5450928429217E-05
(PID.TID 0000.0001) %MON ke_vol                       =   3.5709726963362E+11
(PID.TID 0000.0001) // =======================================================
(PID.TID 0000.0001) // End MONITOR dynamic field statistics
(PID.TID 0000.0001) // =======================================================
(PID.TID 0000.0001) // =======================================================
(PID.TID 0000.0001) // Begin OBCS MONITOR field statistics
(PID.TID 0000.0001) // =======================================================
(PID.TID 0000.0001) %MON obc_N_vVel_max               =   2.5000000000000E-02
(PID.TID 0000.0001) %MON obc_N_vVel_min               =  -2.5000000000000E-02
(PID.TID 0000.0001) %MON obc_N_vVel_mean              =  -6.5733955351178E-20
(PID.TID 0000.0001) %MON obc_N_vVel_sd                =   1.4595032760272E-02
(PID.TID 0000.0001) %MON obc_N_vVel_Int               =  -2.2737367544323E-13
(PID.TID 0000.0001) // =======================================================
(PID.TID 0000.0001) // End OBCS MONITOR field statistics
(PID.TID 0000.0001) // =======================================================
 cg2d: Sum(rhs),rhsMax =  -3.67996145240308E-04  6.75156200406954E+01
(PID.TID 0000.0001)      cg2d_init_res =   1.11660995038276E-03
(PID.TID 0000.0001)      cg2d_iters(min,last) =      -1     115
(PID.TID 0000.0001)      cg2d_last_res =   6.82520451288045E-12
(PID.TID 0000.0001) // =======================================================
(PID.TID 0000.0001) // Begin MONITOR dynamic field statistics
(PID.TID 0000.0001) // =======================================================
(PID.TID 0000.0001) %MON time_tsnumber                =                  2908
(PID.TID 0000.0001) %MON time_secondsf                =   8.7240000000000E+05
(PID.TID 0000.0001) %MON dynstat_eta_max              =   1.1706977900852E+00
(PID.TID 0000.0001) %MON dynstat_eta_min              =  -8.7630826041373E+00
(PID.TID 0000.0001) %MON dynstat_eta_mean             =   1.4130806970522E-02
(PID.TID 0000.0001) %MON dynstat_eta_sd               =   6.8419303328387E-01
(PID.TID 0000.0001) %MON dynstat_eta_del2             =   1.1661957822471E-01
(PID.TID 0000.0001) %MON dynstat_uvel_max             =   4.3217274456056E-02
(PID.TID 0000.0001) %MON dynstat_uvel_min             =  -7.8263760116780E-02
(PID.TID 0000.0001) %MON dynstat_uvel_mean            =   2.3841392896125E-03
(PID.TID 0000.0001) %MON dynstat_uvel_sd              =   1.3425058407527E-02
(PID.TID 0000.0001) %MON dynstat_uvel_del2            =   5.6917629261200E-06
(PID.TID 0000.0001) %MON dynstat_vvel_max             =   2.5000000000000E-02
(PID.TID 0000.0001) %MON dynstat_vvel_min             =  -2.5000000000000E-02
(PID.TID 0000.0001) %MON dynstat_vvel_mean            =  -9.5983057405179E-04
(PID.TID 0000.0001) %MON dynstat_vvel_sd              =   2.2392233143589E-03
(PID.TID 0000.0001) %MON dynstat_vvel_del2            =   5.2947050237701E-06
(PID.TID 0000.0001) %MON dynstat_wvel_max             =   3.2189882132909E-03
(PID.TID 0000.0001) %MON dynstat_wvel_min             =  -3.1660419371576E-05
(PID.TID 0000.0001) %MON dynstat_wvel_mean            =   3.4404733648211E-05
(PID.TID 0000.0001) %MON dynstat_wvel_sd              =   2.2113088825044E-04
(PID.TID 0000.0001) %MON dynstat_wvel_del2            =   3.8922696390827E-06
(PID.TID 0000.0001) %MON dynstat_theta_max            =   1.9999999614001E+00
(PID.TID 0000.0001) %MON dynstat_theta_min            =  -1.9000000000007E+00
(PID.TID 0000.0001) %MON dynstat_theta_mean           =   6.4930006852891E-01
(PID.TID 0000.0001) %MON dynstat_theta_sd             =   1.2490379951878E+00
(PID.TID 0000.0001) %MON dynstat_theta_del2           =   5.7472961143310E-04
(PID.TID 0000.0001) %MON dynstat_salt_max             =   3.4699999995051E+01
(PID.TID 0000.0001) %MON dynstat_salt_min             =   3.4199999999997E+01
(PID.TID 0000.0001) %MON dynstat_salt_mean            =   3.4526554586426E+01
(PID.TID 0000.0001) %MON dynstat_salt_sd              =   1.6105139178692E-01
(PID.TID 0000.0001) %MON dynstat_salt_del2            =   7.3887129582974E-05
(PID.TID 0000.0001) %MON advcfl_uvel_max              =   6.1250187212495E-03
(PID.TID 0000.0001) %MON advcfl_vvel_max              =   8.6348427523641E-03
(PID.TID 0000.0001) %MON advcfl_wvel_max              =   9.6569646398726E-02
(PID.TID 0000.0001) %MON advcfl_W_hf_max              =   9.6569646398726E-02
(PID.TID 0000.0001) %MON pe_b_mean                    =  -4.2867320673025E-03
(PID.TID 0000.0001) %MON ke_max                       =   3.0920831815420E-03
(PID.TID 0000.0001) %MON ke_mean                      =   9.5478543669382E-05
(PID.TID 0000.0001) %MON ke_vol                       =   3.5709727527296E+11
(PID.TID 0000.0001) // =======================================================
(PID.TID 0000.0001) // End MONITOR dynamic field statistics
(PID.TID 0000.0001) // =======================================================
(PID.TID 0000.0001) // =======================================================
(PID.TID 0000.0001) // Begin OBCS MONITOR field statistics
(PID.TID 0000.0001) // =======================================================
(PID.TID 0000.0001) %MON obc_N_vVel_max               =   2.5000000000000E-02
(PID.TID 0000.0001) %MON obc_N_vVel_min               =  -2.5000000000000E-02
(PID.TID 0000.0001) %MON obc_N_vVel_mean              =  -6.5733955351178E-20
(PID.TID 0000.0001) %MON obc_N_vVel_sd                =   1.4595032760272E-02
(PID.TID 0000.0001) %MON obc_N_vVel_Int               =  -2.2737367544323E-13
(PID.TID 0000.0001) // =======================================================
(PID.TID 0000.0001) // End OBCS MONITOR field statistics
(PID.TID 0000.0001) // =======================================================
 cg2d: Sum(rhs),rhsMax =  -3.68220172088776E-04  6.75167355512433E+01
(PID.TID 0000.0001)      cg2d_init_res =   1.11655733828754E-03
(PID.TID 0000.0001)      cg2d_iters(min,last) =      -1     115
(PID.TID 0000.0001)      cg2d_last_res =   6.81366101720525E-12
(PID.TID 0000.0001) // =======================================================
(PID.TID 0000.0001) // Begin MONITOR dynamic field statistics
(PID.TID 0000.0001) // =======================================================
(PID.TID 0000.0001) %MON time_tsnumber                =                  2909
(PID.TID 0000.0001) %MON time_secondsf                =   8.7270000000000E+05
(PID.TID 0000.0001) %MON dynstat_eta_max              =   1.1772817284868E+00
(PID.TID 0000.0001) %MON dynstat_eta_min              =  -8.7570754518742E+00
(PID.TID 0000.0001) %MON dynstat_eta_mean             =   1.4139643067333E-02
(PID.TID 0000.0001) %MON dynstat_eta_sd               =   6.8547350907358E-01
(PID.TID 0000.0001) %MON dynstat_eta_del2             =   1.1662082880377E-01
(PID.TID 0000.0001) %MON dynstat_uvel_max             =   4.3215678445987E-02
(PID.TID 0000.0001) %MON dynstat_uvel_min             =  -7.8262338271619E-02
(PID.TID 0000.0001) %MON dynstat_uvel_mean            =   2.4229704729981E-03
(PID.TID 0000.0001) %MON dynstat_uvel_sd              =   1.3428559665194E-02
(PID.TID 0000.0001) %MON dynstat_uvel_del2            =   5.6915769258632E-06
(PID.TID 0000.0001) %MON dynstat_vvel_max             =   2.5000000000000E-02
(PID.TID 0000.0001) %MON dynstat_vvel_min             =  -2.5000000000000E-02
(PID.TID 0000.0001) %MON dynstat_vvel_mean            =  -8.9308104744956E-04
(PID.TID 0000.0001) %MON dynstat_vvel_sd              =   2.2209088272775E-03
(PID.TID 0000.0001) %MON dynstat_vvel_del2            =   5.2948072986329E-06
(PID.TID 0000.0001) %MON dynstat_wvel_max             =   3.2193980796411E-03
(PID.TID 0000.0001) %MON dynstat_wvel_min             =  -3.0910228971147E-05
(PID.TID 0000.0001) %MON dynstat_wvel_mean            =   3.4654091653961E-05
(PID.TID 0000.0001) %MON dynstat_wvel_sd              =   2.2116040637841E-04
(PID.TID 0000.0001) %MON dynstat_wvel_del2            =   3.8926994635107E-06
(PID.TID 0000.0001) %MON dynstat_theta_max            =   1.9999999612567E+00
(PID.TID 0000.0001) %MON dynstat_theta_min            =  -1.9000000000007E+00
(PID.TID 0000.0001) %MON dynstat_theta_mean           =   6.4930080685287E-01
(PID.TID 0000.0001) %MON dynstat_theta_sd             =   1.2490360730515E+00
(PID.TID 0000.0001) %MON dynstat_theta_del2           =   5.7473830664054E-04
(PID.TID 0000.0001) %MON dynstat_salt_max             =   3.4699999995033E+01
(PID.TID 0000.0001) %MON dynstat_salt_min             =   3.4199999999997E+01
(PID.TID 0000.0001) %MON dynstat_salt_mean            =   3.4526554305059E+01
(PID.TID 0000.0001) %MON dynstat_salt_sd              =   1.6105150208259E-01
(PID.TID 0000.0001) %MON dynstat_salt_del2            =   7.3888030283531E-05
(PID.TID 0000.0001) %MON advcfl_uvel_max              =   6.1249074458876E-03
(PID.TID 0000.0001) %MON advcfl_vvel_max              =   8.6348427523641E-03
(PID.TID 0000.0001) %MON advcfl_wvel_max              =   9.6581942389234E-02
(PID.TID 0000.0001) %MON advcfl_W_hf_max              =   9.6581942389234E-02
(PID.TID 0000.0001) %MON pe_b_mean                    =  -4.3029954821630E-03
(PID.TID 0000.0001) %MON ke_max                       =   3.0920066797968E-03
(PID.TID 0000.0001) %MON ke_mean                      =   9.5516178901840E-05
(PID.TID 0000.0001) %MON ke_vol                       =   3.5709728087400E+11
(PID.TID 0000.0001) // =======================================================
(PID.TID 0000.0001) // End MONITOR dynamic field statistics
(PID.TID 0000.0001) // =======================================================
(PID.TID 0000.0001) // =======================================================
(PID.TID 0000.0001) // Begin OBCS MONITOR field statistics
(PID.TID 0000.0001) // =======================================================
(PID.TID 0000.0001) %MON obc_N_vVel_max               =   2.5000000000000E-02
(PID.TID 0000.0001) %MON obc_N_vVel_min               =  -2.5000000000000E-02
(PID.TID 0000.0001) %MON obc_N_vVel_mean              =  -6.5733955351178E-20
(PID.TID 0000.0001) %MON obc_N_vVel_sd                =   1.4595032760272E-02
(PID.TID 0000.0001) %MON obc_N_vVel_Int               =  -2.2737367544323E-13
(PID.TID 0000.0001) // =======================================================
(PID.TID 0000.0001) // End OBCS MONITOR field statistics
(PID.TID 0000.0001) // =======================================================
 cg2d: Sum(rhs),rhsMax =  -3.68443337392901E-04  6.75177969877821E+01
(PID.TID 0000.0001)      cg2d_init_res =   1.11653500837202E-03
(PID.TID 0000.0001)      cg2d_iters(min,last) =      -1     115
(PID.TID 0000.0001)      cg2d_last_res =   6.80450150880280E-12
(PID.TID 0000.0001) // =======================================================
(PID.TID 0000.0001) // Begin MONITOR dynamic field statistics
(PID.TID 0000.0001) // =======================================================
(PID.TID 0000.0001) %MON time_tsnumber                =                  2910
(PID.TID 0000.0001) %MON time_secondsf                =   8.7300000000000E+05
(PID.TID 0000.0001) %MON dynstat_eta_max              =   1.1836129016497E+00
(PID.TID 0000.0001) %MON dynstat_eta_min              =  -8.7513057598203E+00
(PID.TID 0000.0001) %MON dynstat_eta_mean             =   1.4148435033298E-02
(PID.TID 0000.0001) %MON dynstat_eta_sd               =   6.8674620370963E-01
(PID.TID 0000.0001) %MON dynstat_eta_del2             =   1.1662211082870E-01
(PID.TID 0000.0001) %MON dynstat_uvel_max             =   4.3213848622911E-02
(PID.TID 0000.0001) %MON dynstat_uvel_min             =  -7.8261101083006E-02
(PID.TID 0000.0001) %MON dynstat_uvel_mean            =   2.4591194493097E-03
(PID.TID 0000.0001) %MON dynstat_uvel_sd              =   1.3432049902495E-02
(PID.TID 0000.0001) %MON dynstat_uvel_del2            =   5.6914236471139E-06
(PID.TID 0000.0001) %MON dynstat_vvel_max             =   2.5000000000000E-02
(PID.TID 0000.0001) %MON dynstat_vvel_min             =  -2.5000000000000E-02
(PID.TID 0000.0001) %MON dynstat_vvel_mean            =  -8.3985082969596E-04
(PID.TID 0000.0001) %MON dynstat_vvel_sd              =   2.2068993926632E-03
(PID.TID 0000.0001) %MON dynstat_vvel_del2            =   5.2948952441773E-06
(PID.TID 0000.0001) %MON dynstat_wvel_max             =   3.2197266785476E-03
(PID.TID 0000.0001) %MON dynstat_wvel_min             =  -3.0228750234419E-05
(PID.TID 0000.0001) %MON dynstat_wvel_mean            =   3.4853350370916E-05
(PID.TID 0000.0001) %MON dynstat_wvel_sd              =   2.2118552912305E-04
(PID.TID 0000.0001) %MON dynstat_wvel_del2            =   3.8930315541838E-06
(PID.TID 0000.0001) %MON dynstat_theta_max            =   1.9999999611494E+00
(PID.TID 0000.0001) %MON dynstat_theta_min            =  -1.9000000000007E+00
(PID.TID 0000.0001) %MON dynstat_theta_mean           =   6.4930148606556E-01
(PID.TID 0000.0001) %MON dynstat_theta_sd             =   1.2490342187451E+00
(PID.TID 0000.0001) %MON dynstat_theta_del2           =   5.7474756013320E-04
(PID.TID 0000.0001) %MON dynstat_salt_max             =   3.4699999995019E+01
(PID.TID 0000.0001) %MON dynstat_salt_min             =   3.4199999999997E+01
(PID.TID 0000.0001) %MON dynstat_salt_mean            =   3.4526554020357E+01
(PID.TID 0000.0001) %MON dynstat_salt_sd              =   1.6105161721898E-01
(PID.TID 0000.0001) %MON dynstat_salt_del2            =   7.3889012395393E-05
(PID.TID 0000.0001) %MON advcfl_uvel_max              =   6.1248106219757E-03
(PID.TID 0000.0001) %MON advcfl_vvel_max              =   8.6348427523641E-03
(PID.TID 0000.0001) %MON advcfl_wvel_max              =   9.6591800356429E-02
(PID.TID 0000.0001) %MON advcfl_W_hf_max              =   9.6591800356429E-02
(PID.TID 0000.0001) %MON pe_b_mean                    =  -4.3191426278164E-03
(PID.TID 0000.0001) %MON ke_max                       =   3.0919376815129E-03
(PID.TID 0000.0001) %MON ke_mean                      =   9.5574138355184E-05
(PID.TID 0000.0001) %MON ke_vol                       =   3.5709728643971E+11
(PID.TID 0000.0001) // =======================================================
(PID.TID 0000.0001) // End MONITOR dynamic field statistics
(PID.TID 0000.0001) // =======================================================
(PID.TID 0000.0001) // =======================================================
(PID.TID 0000.0001) // Begin OBCS MONITOR field statistics
(PID.TID 0000.0001) // =======================================================
(PID.TID 0000.0001) %MON obc_N_vVel_max               =   2.5000000000000E-02
(PID.TID 0000.0001) %MON obc_N_vVel_min               =  -2.5000000000000E-02
(PID.TID 0000.0001) %MON obc_N_vVel_mean              =  -6.5733955351178E-20
(PID.TID 0000.0001) %MON obc_N_vVel_sd                =   1.4595032760272E-02
(PID.TID 0000.0001) %MON obc_N_vVel_Int               =  -2.2737367544323E-13
(PID.TID 0000.0001) // =======================================================
(PID.TID 0000.0001) // End OBCS MONITOR field statistics
(PID.TID 0000.0001) // =======================================================
 Compute Stats, Diag. #     23  ETAN      vol(   0 ): 3.779E+09  Parms: SM      M1      
 Compute Stats, Diag. #     23  ETAN      vol(   1 ): 2.809E+09  Parms: SM      M1      
 Compute Stats, Diag. #     23  ETAN      vol(   2 ): 9.700E+08  Parms: SM      M1      
 Compute Stats, Diag. #     96  RSURF     vol(   0 ): 3.779E+09  Parms: SM      M1      
 Compute Stats, Diag. #     96  RSURF     vol(   1 ): 2.809E+09  Parms: SM      M1      
 Compute Stats, Diag. #     96  RSURF     vol(   2 ): 9.700E+08  Parms: SM      M1      
 cg2d: Sum(rhs),rhsMax =  -3.68666016990149E-04  6.75188131838707E+01
(PID.TID 0000.0001)      cg2d_init_res =   1.11653777706938E-03
(PID.TID 0000.0001)      cg2d_iters(min,last) =      -1     115
(PID.TID 0000.0001)      cg2d_last_res =   6.79945341434624E-12
(PID.TID 0000.0001) // =======================================================
(PID.TID 0000.0001) // Begin MONITOR dynamic field statistics
(PID.TID 0000.0001) // =======================================================
(PID.TID 0000.0001) %MON time_tsnumber                =                  2911
(PID.TID 0000.0001) %MON time_secondsf                =   8.7330000000000E+05
(PID.TID 0000.0001) %MON dynstat_eta_max              =   1.1897805849390E+00
(PID.TID 0000.0001) %MON dynstat_eta_min              =  -8.7456899213586E+00
(PID.TID 0000.0001) %MON dynstat_eta_mean             =   1.4157199131074E-02
(PID.TID 0000.0001) %MON dynstat_eta_sd               =   6.8802330494166E-01
(PID.TID 0000.0001) %MON dynstat_eta_del2             =   1.1662342400794E-01
(PID.TID 0000.0001) %MON dynstat_uvel_max             =   4.3211851422957E-02
(PID.TID 0000.0001) %MON dynstat_uvel_min             =  -7.8259995130030E-02
(PID.TID 0000.0001) %MON dynstat_uvel_mean            =   2.4933582495453E-03
(PID.TID 0000.0001) %MON dynstat_uvel_sd              =   1.3435557697648E-02
(PID.TID 0000.0001) %MON dynstat_uvel_del2            =   5.6912917255267E-06
(PID.TID 0000.0001) %MON dynstat_vvel_max             =   2.5000000000000E-02
(PID.TID 0000.0001) %MON dynstat_vvel_min             =  -2.5000000000000E-02
(PID.TID 0000.0001) %MON dynstat_vvel_mean            =  -8.0526398106295E-04
(PID.TID 0000.0001) %MON dynstat_vvel_sd              =   2.1980892337903E-03
(PID.TID 0000.0001) %MON dynstat_vvel_del2            =   5.2949185097107E-06
(PID.TID 0000.0001) %MON dynstat_wvel_max             =   3.2199433221279E-03
(PID.TID 0000.0001) %MON dynstat_wvel_min             =  -2.9624032340563E-05
(PID.TID 0000.0001) %MON dynstat_wvel_mean            =   3.4983117392768E-05
(PID.TID 0000.0001) %MON dynstat_wvel_sd              =   2.2120222010081E-04
(PID.TID 0000.0001) %MON dynstat_wvel_del2            =   3.8932260907534E-06
(PID.TID 0000.0001) %MON dynstat_theta_max            =   1.9999999610794E+00
(PID.TID 0000.0001) %MON dynstat_theta_min            =  -1.9000000000007E+00
(PID.TID 0000.0001) %MON dynstat_theta_mean           =   6.4930207916265E-01
(PID.TID 0000.0001) %MON dynstat_theta_sd             =   1.2490324611925E+00
(PID.TID 0000.0001) %MON dynstat_theta_del2           =   5.7475715660660E-04
(PID.TID 0000.0001) %MON dynstat_salt_max             =   3.4699999995010E+01
(PID.TID 0000.0001) %MON dynstat_salt_min             =   3.4199999999997E+01
(PID.TID 0000.0001) %MON dynstat_salt_mean            =   3.4526553729090E+01
(PID.TID 0000.0001) %MON dynstat_salt_sd              =   1.6105174054673E-01
(PID.TID 0000.0001) %MON dynstat_salt_del2            =   7.3890046929268E-05
(PID.TID 0000.0001) %MON advcfl_uvel_max              =   6.1247240687271E-03
(PID.TID 0000.0001) %MON advcfl_vvel_max              =   8.6348427523641E-03
(PID.TID 0000.0001) %MON advcfl_wvel_max              =   9.6598299663836E-02
(PID.TID 0000.0001) %MON advcfl_W_hf_max              =   9.6598299663836E-02
(PID.TID 0000.0001) %MON pe_b_mean                    =  -4.3353668640794E-03
(PID.TID 0000.0001) %MON ke_max                       =   3.0918690474999E-03
(PID.TID 0000.0001) %MON ke_mean                      =   9.5658179012539E-05
(PID.TID 0000.0001) %MON ke_vol                       =   3.5709729197764E+11
(PID.TID 0000.0001) // =======================================================
(PID.TID 0000.0001) // End MONITOR dynamic field statistics
(PID.TID 0000.0001) // =======================================================
(PID.TID 0000.0001) // =======================================================
(PID.TID 0000.0001) // Begin OBCS MONITOR field statistics
(PID.TID 0000.0001) // =======================================================
(PID.TID 0000.0001) %MON obc_N_vVel_max               =   2.5000000000000E-02
(PID.TID 0000.0001) %MON obc_N_vVel_min               =  -2.5000000000000E-02
(PID.TID 0000.0001) %MON obc_N_vVel_mean              =  -6.5733955351178E-20
(PID.TID 0000.0001) %MON obc_N_vVel_sd                =   1.4595032760272E-02
(PID.TID 0000.0001) %MON obc_N_vVel_Int               =  -2.2737367544323E-13
(PID.TID 0000.0001) // =======================================================
(PID.TID 0000.0001) // End OBCS MONITOR field statistics
(PID.TID 0000.0001) // =======================================================
 cg2d: Sum(rhs),rhsMax =  -3.68888590520935E-04  6.75197977083383E+01
(PID.TID 0000.0001)      cg2d_init_res =   1.11655779443793E-03
(PID.TID 0000.0001)      cg2d_iters(min,last) =      -1     115
(PID.TID 0000.0001)      cg2d_last_res =   6.79882708402351E-12
(PID.TID 0000.0001) // =======================================================
(PID.TID 0000.0001) // Begin MONITOR dynamic field statistics
(PID.TID 0000.0001) // =======================================================
(PID.TID 0000.0001) %MON time_tsnumber                =                  2912
(PID.TID 0000.0001) %MON time_secondsf                =   8.7360000000000E+05
(PID.TID 0000.0001) %MON dynstat_eta_max              =   1.1958833140979E+00
(PID.TID 0000.0001) %MON dynstat_eta_min              =  -8.7401354544950E+00
(PID.TID 0000.0001) %MON dynstat_eta_mean             =   1.4165952768309E-02
(PID.TID 0000.0001) %MON dynstat_eta_sd               =   6.8931980094425E-01
(PID.TID 0000.0001) %MON dynstat_eta_del2             =   1.1662476809360E-01
(PID.TID 0000.0001) %MON dynstat_uvel_max             =   4.3209767186888E-02
(PID.TID 0000.0001) %MON dynstat_uvel_min             =  -7.8258955514270E-02
(PID.TID 0000.0001) %MON dynstat_uvel_mean            =   2.5266063975999E-03
(PID.TID 0000.0001) %MON dynstat_uvel_sd              =   1.3439124790113E-02
(PID.TID 0000.0001) %MON dynstat_uvel_del2            =   5.6911754843624E-06
(PID.TID 0000.0001) %MON dynstat_vvel_max             =   2.5000000000000E-02
(PID.TID 0000.0001) %MON dynstat_vvel_min             =  -2.5000000000000E-02
(PID.TID 0000.0001) %MON dynstat_vvel_mean            =  -7.9139780736212E-04
(PID.TID 0000.0001) %MON dynstat_vvel_sd              =   2.1946303650966E-03
(PID.TID 0000.0001) %MON dynstat_vvel_del2            =   5.2948600654686E-06
(PID.TID 0000.0001) %MON dynstat_wvel_max             =   3.2200352319614E-03
(PID.TID 0000.0001) %MON dynstat_wvel_min             =  -2.9098522914382E-05
(PID.TID 0000.0001) %MON dynstat_wvel_mean            =   3.5035396535795E-05
(PID.TID 0000.0001) %MON dynstat_wvel_sd              =   2.2120864339451E-04
(PID.TID 0000.0001) %MON dynstat_wvel_del2            =   3.8932831660175E-06
(PID.TID 0000.0001) %MON dynstat_theta_max            =   1.9999999610491E+00
(PID.TID 0000.0001) %MON dynstat_theta_min            =  -1.9000000000007E+00
(PID.TID 0000.0001) %MON dynstat_theta_mean           =   6.4930257345919E-01
(PID.TID 0000.0001) %MON dynstat_theta_sd             =   1.2490308132940E+00
(PID.TID 0000.0001) %MON dynstat_theta_del2           =   5.7476685803482E-04
(PID.TID 0000.0001) %MON dynstat_salt_max             =   3.4699999995006E+01
(PID.TID 0000.0001) %MON dynstat_salt_min             =   3.4199999999997E+01
(PID.TID 0000.0001) %MON dynstat_salt_mean            =   3.4526553429277E+01
(PID.TID 0000.0001) %MON dynstat_salt_sd              =   1.6105187379548E-01
(PID.TID 0000.0001) %MON dynstat_salt_del2            =   7.3891101636205E-05
(PID.TID 0000.0001) %MON advcfl_uvel_max              =   6.1246427071112E-03
(PID.TID 0000.0001) %MON advcfl_vvel_max              =   8.6348427523641E-03
(PID.TID 0000.0001) %MON advcfl_wvel_max              =   9.6601056958842E-02
(PID.TID 0000.0001) %MON advcfl_W_hf_max              =   9.6601056958842E-02
(PID.TID 0000.0001) %MON pe_b_mean                    =  -4.3518864805825E-03
(PID.TID 0000.0001) %MON ke_max                       =   3.0917944315732E-03
(PID.TID 0000.0001) %MON ke_mean                      =   9.5770892179392E-05
(PID.TID 0000.0001) %MON ke_vol                       =   3.5709729749800E+11
(PID.TID 0000.0001) // =======================================================
(PID.TID 0000.0001) // End MONITOR dynamic field statistics
(PID.TID 0000.0001) // =======================================================
(PID.TID 0000.0001) // =======================================================
(PID.TID 0000.0001) // Begin OBCS MONITOR field statistics
(PID.TID 0000.0001) // =======================================================
(PID.TID 0000.0001) %MON obc_N_vVel_max               =   2.5000000000000E-02
(PID.TID 0000.0001) %MON obc_N_vVel_min               =  -2.5000000000000E-02
(PID.TID 0000.0001) %MON obc_N_vVel_mean              =  -6.5733955351178E-20
(PID.TID 0000.0001) %MON obc_N_vVel_sd                =   1.4595032760272E-02
(PID.TID 0000.0001) %MON obc_N_vVel_Int               =  -2.2737367544323E-13
(PID.TID 0000.0001) // =======================================================
(PID.TID 0000.0001) // End OBCS MONITOR field statistics
(PID.TID 0000.0001) // =======================================================
 cg2d: Sum(rhs),rhsMax =  -3.69111398578974E-04  6.75207664289361E+01
(PID.TID 0000.0001)      cg2d_init_res =   1.11658592519928E-03
(PID.TID 0000.0001)      cg2d_iters(min,last) =      -1     115
(PID.TID 0000.0001)      cg2d_last_res =   6.80274848413695E-12
(PID.TID 0000.0001) // =======================================================
(PID.TID 0000.0001) // Begin MONITOR dynamic field statistics
(PID.TID 0000.0001) // =======================================================
(PID.TID 0000.0001) %MON time_tsnumber                =                  2913
(PID.TID 0000.0001) %MON time_secondsf                =   8.7390000000000E+05
(PID.TID 0000.0001) %MON dynstat_eta_max              =   1.2020151855766E+00
(PID.TID 0000.0001) %MON dynstat_eta_min              =  -8.7345539269019E+00
(PID.TID 0000.0001) %MON dynstat_eta_mean             =   1.4174712343430E-02
(PID.TID 0000.0001) %MON dynstat_eta_sd               =   6.9065116266590E-01
(PID.TID 0000.0001) %MON dynstat_eta_del2             =   1.1662614290736E-01
(PID.TID 0000.0001) %MON dynstat_uvel_max             =   4.3207677953494E-02
(PID.TID 0000.0001) %MON dynstat_uvel_min             =  -7.8257916018992E-02
(PID.TID 0000.0001) %MON dynstat_uvel_mean            =   2.5597938398320E-03
(PID.TID 0000.0001) %MON dynstat_uvel_sd              =   1.3442799248141E-02
(PID.TID 0000.0001) %MON dynstat_uvel_del2            =   5.6910703667560E-06
(PID.TID 0000.0001) %MON dynstat_vvel_max             =   2.5000000000000E-02
(PID.TID 0000.0001) %MON dynstat_vvel_min             =  -2.5000000000000E-02
(PID.TID 0000.0001) %MON dynstat_vvel_mean            =  -7.9739932996580E-04
(PID.TID 0000.0001) %MON dynstat_vvel_sd              =   2.1961378338167E-03
(PID.TID 0000.0001) %MON dynstat_vvel_del2            =   5.2947324456993E-06
(PID.TID 0000.0001) %MON dynstat_wvel_max             =   3.2200072245073E-03
(PID.TID 0000.0001) %MON dynstat_wvel_min             =  -2.8647738829213E-05
(PID.TID 0000.0001) %MON dynstat_wvel_mean            =   3.5013235378004E-05
(PID.TID 0000.0001) %MON dynstat_wvel_sd              =   2.2120537266900E-04
(PID.TID 0000.0001) %MON dynstat_wvel_del2            =   3.8932326018775E-06
(PID.TID 0000.0001) %MON dynstat_theta_max            =   1.9999999611742E+00
(PID.TID 0000.0001) %MON dynstat_theta_min            =  -1.9000000000007E+00
(PID.TID 0000.0001) %MON dynstat_theta_mean           =   6.4930297041563E-01
(PID.TID 0000.0001) %MON dynstat_theta_sd             =   1.2490292722523E+00
(PID.TID 0000.0001) %MON dynstat_theta_del2           =   5.7477643747429E-04
(PID.TID 0000.0001) %MON dynstat_salt_max             =   3.4699999995022E+01
(PID.TID 0000.0001) %MON dynstat_salt_min             =   3.4199999999997E+01
(PID.TID 0000.0001) %MON dynstat_salt_mean            =   3.4526553120270E+01
(PID.TID 0000.0001) %MON dynstat_salt_sd              =   1.6105201707306E-01
(PID.TID 0000.0001) %MON dynstat_salt_del2            =   7.3892145507155E-05
(PID.TID 0000.0001) %MON advcfl_uvel_max              =   6.1245613549243E-03
(PID.TID 0000.0001) %MON advcfl_vvel_max              =   8.6348427523641E-03
(PID.TID 0000.0001) %MON advcfl_wvel_max              =   9.6600216735219E-02
(PID.TID 0000.0001) %MON advcfl_W_hf_max              =   9.6600216735219E-02
(PID.TID 0000.0001) %MON pe_b_mean                    =  -4.3689140001161E-03
(PID.TID 0000.0001) %MON ke_max                       =   3.0917090566548E-03
(PID.TID 0000.0001) %MON ke_mean                      =   9.5912761796041E-05
(PID.TID 0000.0001) %MON ke_vol                       =   3.5709730301178E+11
(PID.TID 0000.0001) // =======================================================
(PID.TID 0000.0001) // End MONITOR dynamic field statistics
(PID.TID 0000.0001) // =======================================================
(PID.TID 0000.0001) // =======================================================
(PID.TID 0000.0001) // Begin OBCS MONITOR field statistics
(PID.TID 0000.0001) // =======================================================
(PID.TID 0000.0001) %MON obc_N_vVel_max               =   2.5000000000000E-02
(PID.TID 0000.0001) %MON obc_N_vVel_min               =  -2.5000000000000E-02
(PID.TID 0000.0001) %MON obc_N_vVel_mean              =  -6.5733955351178E-20
(PID.TID 0000.0001) %MON obc_N_vVel_sd                =   1.4595032760272E-02
(PID.TID 0000.0001) %MON obc_N_vVel_Int               =  -2.2737367544323E-13
(PID.TID 0000.0001) // =======================================================
(PID.TID 0000.0001) // End OBCS MONITOR field statistics
(PID.TID 0000.0001) // =======================================================
 cg2d: Sum(rhs),rhsMax =  -3.69334736785867E-04  6.75217351556059E+01
(PID.TID 0000.0001)      cg2d_init_res =   1.11661313410026E-03
(PID.TID 0000.0001)      cg2d_iters(min,last) =      -1     115
(PID.TID 0000.0001)      cg2d_last_res =   6.81009713983127E-12
(PID.TID 0000.0001) // =======================================================
(PID.TID 0000.0001) // Begin MONITOR dynamic field statistics
(PID.TID 0000.0001) // =======================================================
(PID.TID 0000.0001) %MON time_tsnumber                =                  2914
(PID.TID 0000.0001) %MON time_secondsf                =   8.7420000000000E+05
(PID.TID 0000.0001) %MON dynstat_eta_max              =   1.2082544950910E+00
(PID.TID 0000.0001) %MON dynstat_eta_min              =  -8.7288717046574E+00
(PID.TID 0000.0001) %MON dynstat_eta_mean             =   1.4183492524540E-02
(PID.TID 0000.0001) %MON dynstat_eta_sd               =   6.9203125136674E-01
(PID.TID 0000.0001) %MON dynstat_eta_del2             =   1.1662754827678E-01
(PID.TID 0000.0001) %MON dynstat_uvel_max             =   4.3205656469370E-02
(PID.TID 0000.0001) %MON dynstat_uvel_min             =  -7.8256818252760E-02
(PID.TID 0000.0001) %MON dynstat_uvel_mean            =   2.5937398749109E-03
(PID.TID 0000.0001) %MON dynstat_uvel_sd              =   1.3446628584984E-02
(PID.TID 0000.0001) %MON dynstat_uvel_del2            =   5.6909732008199E-06
(PID.TID 0000.0001) %MON dynstat_vvel_max             =   2.5000000000000E-02
(PID.TID 0000.0001) %MON dynstat_vvel_min             =  -2.5000000000000E-02
(PID.TID 0000.0001) %MON dynstat_vvel_mean            =  -8.1996722815638E-04
(PID.TID 0000.0001) %MON dynstat_vvel_sd              =   2.2018263014777E-03
(PID.TID 0000.0001) %MON dynstat_vvel_del2            =   5.2945647060910E-06
(PID.TID 0000.0001) %MON dynstat_wvel_max             =   3.2198789329165E-03
(PID.TID 0000.0001) %MON dynstat_wvel_min             =  -2.8250393323477E-05
(PID.TID 0000.0001) %MON dynstat_wvel_mean            =   3.4928942302254E-05
(PID.TID 0000.0001) %MON dynstat_wvel_sd              =   2.2119478184403E-04
(PID.TID 0000.0001) %MON dynstat_wvel_del2            =   3.8931167158454E-06
(PID.TID 0000.0001) %MON dynstat_theta_max            =   1.9999999613318E+00
(PID.TID 0000.0001) %MON dynstat_theta_min            =  -1.9000000000007E+00
(PID.TID 0000.0001) %MON dynstat_theta_mean           =   6.4930328346904E-01
(PID.TID 0000.0001) %MON dynstat_theta_sd             =   1.2490278220005E+00
(PID.TID 0000.0001) %MON dynstat_theta_del2           =   5.7478571317479E-04
(PID.TID 0000.0001) %MON dynstat_salt_max             =   3.4699999995042E+01
(PID.TID 0000.0001) %MON dynstat_salt_min             =   3.4199999999997E+01
(PID.TID 0000.0001) %MON dynstat_salt_mean            =   3.4526552802598E+01
(PID.TID 0000.0001) %MON dynstat_salt_sd              =   1.6105216910901E-01
(PID.TID 0000.0001) %MON dynstat_salt_del2            =   7.3893153473987E-05
(PID.TID 0000.0001) %MON advcfl_uvel_max              =   6.1244754423805E-03
(PID.TID 0000.0001) %MON advcfl_vvel_max              =   8.6348427523641E-03
(PID.TID 0000.0001) %MON advcfl_wvel_max              =   9.6596367987496E-02
(PID.TID 0000.0001) %MON advcfl_W_hf_max              =   9.6596367987496E-02
(PID.TID 0000.0001) %MON pe_b_mean                    =  -4.3866291898619E-03
(PID.TID 0000.0001) %MON ke_max                       =   3.0916101726175E-03
(PID.TID 0000.0001) %MON ke_mean                      =   9.6082483861621E-05
(PID.TID 0000.0001) %MON ke_vol                       =   3.5709730852930E+11
(PID.TID 0000.0001) // =======================================================
(PID.TID 0000.0001) // End MONITOR dynamic field statistics
(PID.TID 0000.0001) // =======================================================
(PID.TID 0000.0001) // =======================================================
(PID.TID 0000.0001) // Begin OBCS MONITOR field statistics
(PID.TID 0000.0001) // =======================================================
(PID.TID 0000.0001) %MON obc_N_vVel_max               =   2.5000000000000E-02
(PID.TID 0000.0001) %MON obc_N_vVel_min               =  -2.5000000000000E-02
(PID.TID 0000.0001) %MON obc_N_vVel_mean              =  -6.5733955351178E-20
(PID.TID 0000.0001) %MON obc_N_vVel_sd                =   1.4595032760272E-02
(PID.TID 0000.0001) %MON obc_N_vVel_Int               =  -2.2737367544323E-13
(PID.TID 0000.0001) // =======================================================
(PID.TID 0000.0001) // End OBCS MONITOR field statistics
(PID.TID 0000.0001) // =======================================================
(PID.TID 0000.0001) SHI_REMESH at it=      2914
(PID.TID 0000.0001) --> REMESH in:    1   32   1   1 , x,y=   6.250E-02  -7.525E+01
(PID.TID 0000.0001)  before:  ks=  55 Ro_s=  -5.400E+02 eta=   1.208E+00 hFac=   1.121E+00
(PID.TID 0000.0001)  after :  ks=  54 Ro_s=  -5.300E+02 eta=  -8.792E+00 hFac=   1.208E-01
(PID.TID 0000.0001) SHI_REMESH : end of report
 cg2d: Sum(rhs),rhsMax =   9.00584492085910E-04  6.75227176274880E+01
(PID.TID 0000.0001)      cg2d_init_res =   1.11665551958162E-03
(PID.TID 0000.0001)      cg2d_iters(min,last) =      -1     115
(PID.TID 0000.0001)      cg2d_last_res =   6.93503078111718E-12
(PID.TID 0000.0001) // =======================================================
(PID.TID 0000.0001) // Begin MONITOR dynamic field statistics
(PID.TID 0000.0001) // =======================================================
(PID.TID 0000.0001) %MON time_tsnumber                =                  2915
(PID.TID 0000.0001) %MON time_secondsf                =   8.7450000000000E+05
(PID.TID 0000.0001) %MON dynstat_eta_max              =   1.1505646673100E+00
(PID.TID 0000.0001) %MON dynstat_eta_min              =  -8.7852914079915E+00
(PID.TID 0000.0001) %MON dynstat_eta_mean             =  -3.4585480319639E-02
(PID.TID 0000.0001) %MON dynstat_eta_sd               =   9.2151154934405E-01
(PID.TID 0000.0001) %MON dynstat_eta_del2             =   1.6250955925073E-01
(PID.TID 0000.0001) %MON dynstat_uvel_max             =   4.3203757839011E-02
(PID.TID 0000.0001) %MON dynstat_uvel_min             =  -7.8255618583253E-02
(PID.TID 0000.0001) %MON dynstat_uvel_mean            =   2.6290629805497E-03
(PID.TID 0000.0001) %MON dynstat_uvel_sd              =   1.3450651039720E-02
(PID.TID 0000.0001) %MON dynstat_uvel_del2            =   5.6910457685746E-06
(PID.TID 0000.0001) %MON dynstat_vvel_max             =   2.5000000000000E-02
(PID.TID 0000.0001) %MON dynstat_vvel_min             =  -2.5000000000000E-02
(PID.TID 0000.0001) %MON dynstat_vvel_mean            =  -8.5408690488767E-04
(PID.TID 0000.0001) %MON dynstat_vvel_sd              =   2.2106126367447E-03
(PID.TID 0000.0001) %MON dynstat_vvel_del2            =   5.2948772727684E-06
(PID.TID 0000.0001) %MON dynstat_wvel_max             =   3.2196802948879E-03
(PID.TID 0000.0001) %MON dynstat_wvel_min             =  -2.8106804075659E-05
(PID.TID 0000.0001) %MON dynstat_wvel_mean            =   3.4800145940193E-05
(PID.TID 0000.0001) %MON dynstat_wvel_sd              =   2.2117045853276E-04
(PID.TID 0000.0001) %MON dynstat_wvel_del2            =   3.8926210630309E-06
(PID.TID 0000.0001) %MON dynstat_theta_max            =   1.9999999614040E+00
(PID.TID 0000.0001) %MON dynstat_theta_min            =  -1.9000000000007E+00
(PID.TID 0000.0001) %MON dynstat_theta_mean           =   6.4930353527975E-01
(PID.TID 0000.0001) %MON dynstat_theta_sd             =   1.2490264376240E+00
(PID.TID 0000.0001) %MON dynstat_theta_del2           =   5.7474412398240E-04
(PID.TID 0000.0001) %MON dynstat_salt_max             =   3.4699999995052E+01
(PID.TID 0000.0001) %MON dynstat_salt_min             =   3.4199999999997E+01
(PID.TID 0000.0001) %MON dynstat_salt_mean            =   3.4526552477950E+01
(PID.TID 0000.0001) %MON dynstat_salt_sd              =   1.6105232830628E-01
(PID.TID 0000.0001) %MON dynstat_salt_del2            =   7.3888035231913E-05
(PID.TID 0000.0001) %MON advcfl_uvel_max              =   6.1243815547602E-03
(PID.TID 0000.0001) %MON advcfl_vvel_max              =   8.6348427523641E-03
(PID.TID 0000.0001) %MON advcfl_wvel_max              =   9.6590408846637E-02
(PID.TID 0000.0001) %MON advcfl_W_hf_max              =   9.6590408846637E-02
(PID.TID 0000.0001) %MON pe_b_mean                    =  -7.0892667802559E-03
(PID.TID 0000.0001) %MON ke_max                       =   3.0914971721504E-03
(PID.TID 0000.0001) %MON ke_mean                      =   9.6276778727761E-05
(PID.TID 0000.0001) %MON ke_vol                       =   3.5709731405980E+11
(PID.TID 0000.0001) // =======================================================
(PID.TID 0000.0001) // End MONITOR dynamic field statistics
(PID.TID 0000.0001) // =======================================================
(PID.TID 0000.0001) // =======================================================
(PID.TID 0000.0001) // Begin OBCS MONITOR field statistics
(PID.TID 0000.0001) // =======================================================
(PID.TID 0000.0001) %MON obc_N_vVel_max               =   2.5000000000000E-02
(PID.TID 0000.0001) %MON obc_N_vVel_min               =  -2.5000000000000E-02
(PID.TID 0000.0001) %MON obc_N_vVel_mean              =  -6.5733955351178E-20
(PID.TID 0000.0001) %MON obc_N_vVel_sd                =   1.4595032760272E-02
(PID.TID 0000.0001) %MON obc_N_vVel_Int               =  -2.2737367544323E-13
(PID.TID 0000.0001) // =======================================================
(PID.TID 0000.0001) // End OBCS MONITOR field statistics
(PID.TID 0000.0001) // =======================================================
 cg2d: Sum(rhs),rhsMax =   9.00340560366628E-04  6.75237239273746E+01
(PID.TID 0000.0001)      cg2d_init_res =   1.11663597544615E-03
(PID.TID 0000.0001)      cg2d_iters(min,last) =      -1     115
(PID.TID 0000.0001)      cg2d_last_res =   6.82433285831475E-12
(PID.TID 0000.0001) // =======================================================
(PID.TID 0000.0001) // Begin MONITOR dynamic field statistics
(PID.TID 0000.0001) // =======================================================
(PID.TID 0000.0001) %MON time_tsnumber                =                  2916
(PID.TID 0000.0001) %MON time_secondsf                =   8.7480000000000E+05
(PID.TID 0000.0001) %MON dynstat_eta_max              =   1.1576312025156E+00
(PID.TID 0000.0001) %MON dynstat_eta_min              =  -8.7787004855065E+00
(PID.TID 0000.0001) %MON dynstat_eta_mean             =  -3.4576627811661E-02
(PID.TID 0000.0001) %MON dynstat_eta_sd               =   9.2229664158440E-01
(PID.TID 0000.0001) %MON dynstat_eta_del2             =   1.6251060481307E-01
(PID.TID 0000.0001) %MON dynstat_uvel_max             =   4.3202014646926E-02
(PID.TID 0000.0001) %MON dynstat_uvel_min             =  -7.8254292175484E-02
(PID.TID 0000.0001) %MON dynstat_uvel_mean            =   2.6661226447255E-03
(PID.TID 0000.0001) %MON dynstat_uvel_sd              =   1.3454901511803E-02
(PID.TID 0000.0001) %MON dynstat_uvel_del2            =   5.6908431504083E-06
(PID.TID 0000.0001) %MON dynstat_vvel_max             =   2.5000000000000E-02
(PID.TID 0000.0001) %MON dynstat_vvel_min             =  -2.5000000000000E-02
(PID.TID 0000.0001) %MON dynstat_vvel_mean            =  -8.9391215713427E-04
(PID.TID 0000.0001) %MON dynstat_vvel_sd              =   2.2211056507026E-03
(PID.TID 0000.0001) %MON dynstat_vvel_del2            =   5.2946617914653E-06
(PID.TID 0000.0001) %MON dynstat_wvel_max             =   3.2194462247086E-03
(PID.TID 0000.0001) %MON dynstat_wvel_min             =  -2.8283337814086E-05
(PID.TID 0000.0001) %MON dynstat_wvel_mean            =   3.4651175159862E-05
(PID.TID 0000.0001) %MON dynstat_wvel_sd              =   2.2115451924720E-04
(PID.TID 0000.0001) %MON dynstat_wvel_del2            =   3.8924810284079E-06
(PID.TID 0000.0001) %MON dynstat_theta_max            =   1.9999999614777E+00
(PID.TID 0000.0001) %MON dynstat_theta_min            =  -1.9000000000007E+00
(PID.TID 0000.0001) %MON dynstat_theta_mean           =   6.4930375150103E-01
(PID.TID 0000.0001) %MON dynstat_theta_sd             =   1.2490250885500E+00
(PID.TID 0000.0001) %MON dynstat_theta_del2           =   5.7475217921899E-04
(PID.TID 0000.0001) %MON dynstat_salt_max             =   3.4699999995061E+01
(PID.TID 0000.0001) %MON dynstat_salt_min             =   3.4199999999997E+01
(PID.TID 0000.0001) %MON dynstat_salt_mean            =   3.4526552147972E+01
(PID.TID 0000.0001) %MON dynstat_salt_sd              =   1.6105249131187E-01
(PID.TID 0000.0001) %MON dynstat_salt_del2            =   7.3888661094439E-05
(PID.TID 0000.0001) %MON advcfl_uvel_max              =   6.1242777484467E-03
(PID.TID 0000.0001) %MON advcfl_vvel_max              =   8.6348427523641E-03
(PID.TID 0000.0001) %MON advcfl_wvel_max              =   9.6583386741257E-02
(PID.TID 0000.0001) %MON advcfl_W_hf_max              =   9.6583386741257E-02
(PID.TID 0000.0001) %MON pe_b_mean                    =  -7.1029835264316E-03
(PID.TID 0000.0001) %MON ke_max                       =   3.0913713999966E-03
(PID.TID 0000.0001) %MON ke_mean                      =   9.6490150908573E-05
(PID.TID 0000.0001) %MON ke_vol                       =   3.5709731960893E+11
(PID.TID 0000.0001) // =======================================================
(PID.TID 0000.0001) // End MONITOR dynamic field statistics
(PID.TID 0000.0001) // =======================================================
(PID.TID 0000.0001) // =======================================================
(PID.TID 0000.0001) // Begin OBCS MONITOR field statistics
(PID.TID 0000.0001) // =======================================================
(PID.TID 0000.0001) %MON obc_N_vVel_max               =   2.5000000000000E-02
(PID.TID 0000.0001) %MON obc_N_vVel_min               =  -2.5000000000000E-02
(PID.TID 0000.0001) %MON obc_N_vVel_mean              =  -6.5733955351178E-20
(PID.TID 0000.0001) %MON obc_N_vVel_sd                =   1.4595032760272E-02
(PID.TID 0000.0001) %MON obc_N_vVel_Int               =  -2.2737367544323E-13
(PID.TID 0000.0001) // =======================================================
(PID.TID 0000.0001) // End OBCS MONITOR field statistics
(PID.TID 0000.0001) // =======================================================
 Computing Diagnostic #     23  ETAN         Counter:      18   Parms: SM      M1      
 Computing Diagnostic #     96  RSURF        Counter:      18   Parms: SM      M1      
 Computing Diagnostic #     80  oceTAUX      Counter:      18   Parms: UU      U1      
           Vector  Mate for  oceTAUX      Diagnostic #     81  oceTAUY  exists 
 Computing Diagnostic #     81  oceTAUY      Counter:      18   Parms: VV      U1      
           Vector  Mate for  oceTAUY      Diagnostic #     80  oceTAUX  exists 
 Computing Diagnostic #     86  oceQnet      Counter:      18   Parms: SM      U1      
 Computing Diagnostic #     84  oceFWflx     Counter:      18   Parms: SM      U1      
 Computing Diagnostic #     77  MXLDEPTH     Counter:      18   Parms: SM      M1      
 Computing Diagnostic #    196  SHIfwFlx     Counter:      18   Parms: SM      L1      
 Computing Diagnostic #    197  SHIhtFlx     Counter:      18   Parms: SM      L1      
 Computing Diagnostic #    202  SHIgammT     Counter:      18   Parms: SM      L1      
 Computing Diagnostic #    203  SHIgammS     Counter:      18   Parms: SM      L1      
 Computing Diagnostic #    205  SHI_mass     Counter:      18   Parms: SM      L1      
 Computing Diagnostic #    204  SHIuStar     Counter:      18   Parms: SM      L1      
 Computing Diagnostic #     30  UVEL         Counter:      18   Parms: UUR     MR      
           Vector  Mate for  UVEL         Diagnostic #     31  VVEL     exists 
 Computing Diagnostic #     31  VVEL         Counter:      18   Parms: VVR     MR      
           Vector  Mate for  VVEL         Diagnostic #     30  UVEL     exists 
 Computing Diagnostic #     32  WVEL         Counter:      18   Parms: WM      LR      
 Computing Diagnostic #     26  THETA        Counter:      18   Parms: SMR     MR      
 Computing Diagnostic #     27  SALT         Counter:      18   Parms: SMR     MR      
 Computing Diagnostic #     64  RHOAnoma     Counter:      18   Parms: SMR     MR      
 Computing Diagnostic #     79  CONVADJ      Counter:      18   Parms: SMR     LR      
 Computing Diagnostic #     97  hFactorC     Counter:      18   Parms: SMr     MR      
 Computing Diagnostic #     98  hFactorW     Counter:      18   Parms: SUr     MR      
 Computing Diagnostic #     99  hFactorS     Counter:      18   Parms: SVr     MR      
 Compute Stats, Diag. #     23  ETAN      vol(   0 ): 7.559E+09  Parms: SM      M1      
 Compute Stats, Diag. #     26  THETA     vol(   0 ): 4.285E+12  Parms: SMR     MR      
 Compute Stats, Diag. #     27  SALT      vol(   0 ): 4.285E+12  Parms: SMR     MR      
 Compute Stats, Diag. #     30  UVEL      vol(   0 ): 4.285E+12  Parms: UUR     MR      
 Compute Stats, Diag. #     31  VVEL      vol(   0 ): 4.286E+12  Parms: VVR     MR      
 Compute Stats, Diag. #     32  WVEL      vol(   0 ): 4.297E+12  Parms: WM      LR      
 Compute Stats, Diag. #     23  ETAN      vol(   0 ): 3.779E+09  Parms: SM      M1      
 Compute Stats, Diag. #     23  ETAN      vol(   1 ): 2.809E+09  Parms: SM      M1      
 Compute Stats, Diag. #     23  ETAN      vol(   2 ): 9.700E+08  Parms: SM      M1      
 Compute Stats, Diag. #     96  RSURF     vol(   0 ): 3.779E+09  Parms: SM      M1      
 Compute Stats, Diag. #     96  RSURF     vol(   1 ): 2.809E+09  Parms: SM      M1      
 Compute Stats, Diag. #     96  RSURF     vol(   2 ): 9.700E+08  Parms: SM      M1      
(PID.TID 0000.0001) SHI_REMESH at it=      2916
(PID.TID 0000.0001) --> REMESH in:    1   26   1   3 , x,y=   6.250E-02  -7.452E+01
(PID.TID 0000.0001)  before:  ks=  35 Ro_s=  -3.486E+02 eta=  -3.589E-01 hFac=   9.924E-02
(PID.TID 0000.0001)  after :  ks=  36 Ro_s=  -3.500E+02 eta=   9.924E-01 hFac=   1.099E+00
(PID.TID 0000.0001) SHI_REMESH : end of report
 cg2d: Sum(rhs),rhsMax =   7.20115382096466E-04  6.75247602389244E+01
(PID.TID 0000.0001)      cg2d_init_res =   1.11666545668273E-03
(PID.TID 0000.0001)      cg2d_iters(min,last) =      -1     115
(PID.TID 0000.0001)      cg2d_last_res =   6.84211081590714E-12
(PID.TID 0000.0001) // =======================================================
(PID.TID 0000.0001) // Begin MONITOR dynamic field statistics
(PID.TID 0000.0001) // =======================================================
(PID.TID 0000.0001) %MON time_tsnumber                =                  2917
(PID.TID 0000.0001) %MON time_secondsf                =   8.7510000000000E+05
(PID.TID 0000.0001) %MON dynstat_eta_max              =   1.1648957714070E+00
(PID.TID 0000.0001) %MON dynstat_eta_min              =  -8.7719227794957E+00
(PID.TID 0000.0001) %MON dynstat_eta_mean             =  -2.7655694723631E-02
(PID.TID 0000.0001) %MON dynstat_eta_sd               =   9.2567193603373E-01
(PID.TID 0000.0001) %MON dynstat_eta_del2             =   1.6336924119869E-01
(PID.TID 0000.0001) %MON dynstat_uvel_max             =   4.3200435733479E-02
(PID.TID 0000.0001) %MON dynstat_uvel_min             =  -7.8252833985019E-02
(PID.TID 0000.0001) %MON dynstat_uvel_mean            =   2.7050124134441E-03
(PID.TID 0000.0001) %MON dynstat_uvel_sd              =   1.3459393146438E-02
(PID.TID 0000.0001) %MON dynstat_uvel_del2            =   5.6910828751877E-06
(PID.TID 0000.0001) %MON dynstat_vvel_max             =   2.5000000000000E-02
(PID.TID 0000.0001) %MON dynstat_vvel_min             =  -2.5000000000000E-02
(PID.TID 0000.0001) %MON dynstat_vvel_mean            =  -9.3358884575047E-04
(PID.TID 0000.0001) %MON dynstat_vvel_sd              =   2.2318369357533E-03
(PID.TID 0000.0001) %MON dynstat_vvel_del2            =   5.2949721256698E-06
(PID.TID 0000.0001) %MON dynstat_wvel_max             =   3.2192115613421E-03
(PID.TID 0000.0001) %MON dynstat_wvel_min             =  -2.8446834710180E-05
(PID.TID 0000.0001) %MON dynstat_wvel_mean            =   3.4508090208040E-05
(PID.TID 0000.0001) %MON dynstat_wvel_sd              =   2.2114894099771E-04
(PID.TID 0000.0001) %MON dynstat_wvel_del2            =   3.8927077122817E-06
(PID.TID 0000.0001) %MON dynstat_theta_max            =   1.9999999616294E+00
(PID.TID 0000.0001) %MON dynstat_theta_min            =  -1.9000000000007E+00
(PID.TID 0000.0001) %MON dynstat_theta_mean           =   6.4930395922462E-01
(PID.TID 0000.0001) %MON dynstat_theta_sd             =   1.2490237441687E+00
(PID.TID 0000.0001) %MON dynstat_theta_del2           =   5.7481130239901E-04
(PID.TID 0000.0001) %MON dynstat_salt_max             =   3.4699999995080E+01
(PID.TID 0000.0001) %MON dynstat_salt_min             =   3.4199999999997E+01
(PID.TID 0000.0001) %MON dynstat_salt_mean            =   3.4526551814871E+01
(PID.TID 0000.0001) %MON dynstat_salt_sd              =   1.6105265524535E-01
(PID.TID 0000.0001) %MON dynstat_salt_del2            =   7.3895920173066E-05
(PID.TID 0000.0001) %MON advcfl_uvel_max              =   6.1241636286563E-03
(PID.TID 0000.0001) %MON advcfl_vvel_max              =   8.6348427523641E-03
(PID.TID 0000.0001) %MON advcfl_wvel_max              =   9.6576346840264E-02
(PID.TID 0000.0001) %MON advcfl_W_hf_max              =   9.6576346840264E-02
(PID.TID 0000.0001) %MON pe_b_mean                    =  -7.2212282301587E-03
(PID.TID 0000.0001) %MON ke_max                       =   3.0912357499793E-03
(PID.TID 0000.0001) %MON ke_mean                      =   9.6715198947423E-05
(PID.TID 0000.0001) %MON ke_vol                       =   3.5709732518499E+11
(PID.TID 0000.0001) // =======================================================
(PID.TID 0000.0001) // End MONITOR dynamic field statistics
(PID.TID 0000.0001) // =======================================================
(PID.TID 0000.0001) // =======================================================
(PID.TID 0000.0001) // Begin OBCS MONITOR field statistics
(PID.TID 0000.0001) // =======================================================
(PID.TID 0000.0001) %MON obc_N_vVel_max               =   2.5000000000000E-02
(PID.TID 0000.0001) %MON obc_N_vVel_min               =  -2.5000000000000E-02
(PID.TID 0000.0001) %MON obc_N_vVel_mean              =  -6.5733955351178E-20
(PID.TID 0000.0001) %MON obc_N_vVel_sd                =   1.4595032760272E-02
(PID.TID 0000.0001) %MON obc_N_vVel_Int               =  -2.2737367544323E-13
(PID.TID 0000.0001) // =======================================================
(PID.TID 0000.0001) // End OBCS MONITOR field statistics
(PID.TID 0000.0001) // =======================================================
 cg2d: Sum(rhs),rhsMax =   7.19870932133868E-04  6.75258275230851E+01
(PID.TID 0000.0001)      cg2d_init_res =   1.11659189368622E-03
(PID.TID 0000.0001)      cg2d_iters(min,last) =      -1     115
(PID.TID 0000.0001)      cg2d_last_res =   6.83743727157497E-12
(PID.TID 0000.0001) // =======================================================
(PID.TID 0000.0001) // Begin MONITOR dynamic field statistics
(PID.TID 0000.0001) // =======================================================
(PID.TID 0000.0001) %MON time_tsnumber                =                  2918
(PID.TID 0000.0001) %MON time_secondsf                =   8.7540000000000E+05
(PID.TID 0000.0001) %MON dynstat_eta_max              =   1.1723327797798E+00
(PID.TID 0000.0001) %MON dynstat_eta_min              =  -8.7649815345643E+00
(PID.TID 0000.0001) %MON dynstat_eta_mean             =  -2.7646743709610E-02
(PID.TID 0000.0001) %MON dynstat_eta_sd               =   9.2648527759196E-01
(PID.TID 0000.0001) %MON dynstat_eta_del2             =   1.6337033012942E-01
(PID.TID 0000.0001) %MON dynstat_uvel_max             =   4.3199008051112E-02
(PID.TID 0000.0001) %MON dynstat_uvel_min             =  -7.8251257188192E-02
(PID.TID 0000.0001) %MON dynstat_uvel_mean            =   2.7455770240225E-03
(PID.TID 0000.0001) %MON dynstat_uvel_sd              =   1.3464126645787E-02
(PID.TID 0000.0001) %MON dynstat_uvel_del2            =   5.6908863331577E-06
(PID.TID 0000.0001) %MON dynstat_vvel_max             =   2.5000000000000E-02
(PID.TID 0000.0001) %MON dynstat_vvel_min             =  -2.5000000000000E-02
(PID.TID 0000.0001) %MON dynstat_vvel_mean            =  -9.6804755599916E-04
(PID.TID 0000.0001) %MON dynstat_vvel_sd              =   2.2413674243724E-03
(PID.TID 0000.0001) %MON dynstat_vvel_del2            =   5.2948870814074E-06
(PID.TID 0000.0001) %MON dynstat_wvel_max             =   3.2190058873990E-03
(PID.TID 0000.0001) %MON dynstat_wvel_min             =  -2.8573061935277E-05
(PID.TID 0000.0001) %MON dynstat_wvel_mean            =   3.4379207741191E-05
(PID.TID 0000.0001) %MON dynstat_wvel_sd              =   2.2113656038850E-04
(PID.TID 0000.0001) %MON dynstat_wvel_del2            =   3.8926139657407E-06
(PID.TID 0000.0001) %MON dynstat_theta_max            =   1.9999999612893E+00
(PID.TID 0000.0001) %MON dynstat_theta_min            =  -1.9000000000007E+00
(PID.TID 0000.0001) %MON dynstat_theta_mean           =   6.4930418223606E-01
(PID.TID 0000.0001) %MON dynstat_theta_sd             =   1.2490223782517E+00
(PID.TID 0000.0001) %MON dynstat_theta_del2           =   5.7481864963036E-04
(PID.TID 0000.0001) %MON dynstat_salt_max             =   3.4699999995037E+01
(PID.TID 0000.0001) %MON dynstat_salt_min             =   3.4199999999997E+01
(PID.TID 0000.0001) %MON dynstat_salt_mean            =   3.4526551480730E+01
(PID.TID 0000.0001) %MON dynstat_salt_sd              =   1.6105281756898E-01
(PID.TID 0000.0001) %MON dynstat_salt_del2            =   7.3896567432314E-05
(PID.TID 0000.0001) %MON advcfl_uvel_max              =   6.1240402265853E-03
(PID.TID 0000.0001) %MON advcfl_vvel_max              =   8.6348427523641E-03
(PID.TID 0000.0001) %MON advcfl_wvel_max              =   9.6570176621969E-02
(PID.TID 0000.0001) %MON advcfl_W_hf_max              =   9.6570176621969E-02
(PID.TID 0000.0001) %MON pe_b_mean                    =  -7.2357758216994E-03
(PID.TID 0000.0001) %MON ke_max                       =   3.0910940492765E-03
(PID.TID 0000.0001) %MON ke_mean                      =   9.6943563941325E-05
(PID.TID 0000.0001) %MON ke_vol                       =   3.5709733079175E+11
(PID.TID 0000.0001) // =======================================================
(PID.TID 0000.0001) // End MONITOR dynamic field statistics
(PID.TID 0000.0001) // =======================================================
(PID.TID 0000.0001) // =======================================================
(PID.TID 0000.0001) // Begin OBCS MONITOR field statistics
(PID.TID 0000.0001) // =======================================================
(PID.TID 0000.0001) %MON obc_N_vVel_max               =   2.5000000000000E-02
(PID.TID 0000.0001) %MON obc_N_vVel_min               =  -2.5000000000000E-02
(PID.TID 0000.0001) %MON obc_N_vVel_mean              =  -6.5733955351178E-20
(PID.TID 0000.0001) %MON obc_N_vVel_sd                =   1.4595032760272E-02
(PID.TID 0000.0001) %MON obc_N_vVel_Int               =  -2.2737367544323E-13
(PID.TID 0000.0001) // =======================================================
(PID.TID 0000.0001) // End OBCS MONITOR field statistics
(PID.TID 0000.0001) // =======================================================
 Computing Diagnostic #     23  ETAN         Counter:       2   Parms: SM      M1      
 Computing Diagnostic #     96  RSURF        Counter:       2   Parms: SM      M1      
 Computing Diagnostic #     80  oceTAUX      Counter:       2   Parms: UU      U1      
           Vector  Mate for  oceTAUX      Diagnostic #     81  oceTAUY  exists 
 Computing Diagnostic #     81  oceTAUY      Counter:       2   Parms: VV      U1      
           Vector  Mate for  oceTAUY      Diagnostic #     80  oceTAUX  exists 
 Computing Diagnostic #     86  oceQnet      Counter:       2   Parms: SM      U1      
 Computing Diagnostic #     84  oceFWflx     Counter:       2   Parms: SM      U1      
 Computing Diagnostic #     77  MXLDEPTH     Counter:       2   Parms: SM      M1      
 Computing Diagnostic #    196  SHIfwFlx     Counter:       2   Parms: SM      L1      
 Computing Diagnostic #    197  SHIhtFlx     Counter:       2   Parms: SM      L1      
 Computing Diagnostic #    202  SHIgammT     Counter:       2   Parms: SM      L1      
 Computing Diagnostic #    203  SHIgammS     Counter:       2   Parms: SM      L1      
 Computing Diagnostic #    205  SHI_mass     Counter:       2   Parms: SM      L1      
 Computing Diagnostic #    204  SHIuStar     Counter:       2   Parms: SM      L1      
 Computing Diagnostic #     30  UVEL         Counter:       2   Parms: UUR     MR      
           Vector  Mate for  UVEL         Diagnostic #     31  VVEL     exists 
 Computing Diagnostic #     31  VVEL         Counter:       2   Parms: VVR     MR      
           Vector  Mate for  VVEL         Diagnostic #     30  UVEL     exists 
 Computing Diagnostic #     32  WVEL         Counter:       2   Parms: WM      LR      
 Computing Diagnostic #     26  THETA        Counter:       2   Parms: SMR     MR      
 Computing Diagnostic #     27  SALT         Counter:       2   Parms: SMR     MR      
 Computing Diagnostic #     64  RHOAnoma     Counter:       2   Parms: SMR     MR      
 Computing Diagnostic #     79  CONVADJ      Counter:       2   Parms: SMR     LR      
 Computing Diagnostic #     97  hFactorC     Counter:       2   Parms: SMr     MR      
 Computing Diagnostic #     98  hFactorW     Counter:       2   Parms: SUr     MR      
 Computing Diagnostic #     99  hFactorS     Counter:       2   Parms: SVr     MR      
 Compute Stats, Diag. #     23  ETAN      vol(   0 ): 1.260E+09  Parms: SM      M1      
 Compute Stats, Diag. #     26  THETA     vol(   0 ): 7.142E+11  Parms: SMR     MR      
 Compute Stats, Diag. #     27  SALT      vol(   0 ): 7.142E+11  Parms: SMR     MR      
 Compute Stats, Diag. #     30  UVEL      vol(   0 ): 7.142E+11  Parms: UUR     MR      
 Compute Stats, Diag. #     31  VVEL      vol(   0 ): 7.144E+11  Parms: VVR     MR      
 Compute Stats, Diag. #     32  WVEL      vol(   0 ): 7.162E+11  Parms: WM      LR      
 Compute Stats, Diag. #     23  ETAN      vol(   0 ): 1.260E+09  Parms: SM      M1      
 Compute Stats, Diag. #     23  ETAN      vol(   1 ): 9.364E+08  Parms: SM      M1      
 Compute Stats, Diag. #     23  ETAN      vol(   2 ): 3.233E+08  Parms: SM      M1      
 Compute Stats, Diag. #     96  RSURF     vol(   0 ): 1.260E+09  Parms: SM      M1      
 Compute Stats, Diag. #     96  RSURF     vol(   1 ): 9.364E+08  Parms: SM      M1      
 Compute Stats, Diag. #     96  RSURF     vol(   2 ): 3.233E+08  Parms: SM      M1      
(PID.TID 0000.0001) DIAGSTATS_CLOSE_IO: close file: dynStDiag.0000002898.txt , unit=     9
(PID.TID 0000.0001) DIAGSTATS_CLOSE_IO: close file: surfStDiag.0000002898.txt , unit=    10
(PID.TID 0000.0001) %CHECKPOINT      2918 ckptA
(PID.TID 0000.0001)   Seconds in section "ALL                    [THE_MODEL_MAIN]":
(PID.TID 0000.0001)           User time:   15.052305221557617
(PID.TID 0000.0001)         System time:  0.13640999468043447
(PID.TID 0000.0001)     Wall clock time:   15.191005945205688
(PID.TID 0000.0001)          No. starts:           1
(PID.TID 0000.0001)           No. stops:           1
(PID.TID 0000.0001)   Seconds in section "INITIALISE_FIXED       [THE_MODEL_MAIN]":
(PID.TID 0000.0001)           User time:  0.10792899876832962
(PID.TID 0000.0001)         System time:   1.6338999848812819E-002
(PID.TID 0000.0001)     Wall clock time:  0.12434911727905273
(PID.TID 0000.0001)          No. starts:           1
(PID.TID 0000.0001)           No. stops:           1
(PID.TID 0000.0001)   Seconds in section "THE_MAIN_LOOP          [THE_MODEL_MAIN]":
(PID.TID 0000.0001)           User time:   14.944349542260170
(PID.TID 0000.0001)         System time:  0.12003199383616447
(PID.TID 0000.0001)     Wall clock time:   15.066609859466553
(PID.TID 0000.0001)          No. starts:           1
(PID.TID 0000.0001)           No. stops:           1
(PID.TID 0000.0001)   Seconds in section "INITIALISE_VARIA    [THE_MAIN_LOOP]":
(PID.TID 0000.0001)           User time:  0.12986699491739273
(PID.TID 0000.0001)         System time:   9.6904003992676735E-002
(PID.TID 0000.0001)     Wall clock time:  0.22684907913208008
(PID.TID 0000.0001)          No. starts:           1
(PID.TID 0000.0001)           No. stops:           1
(PID.TID 0000.0001)   Seconds in section "MAIN LOOP           [THE_MAIN_LOOP]":
(PID.TID 0000.0001)           User time:   14.814459875226021
(PID.TID 0000.0001)         System time:   2.3121997714042664E-002
(PID.TID 0000.0001)     Wall clock time:   14.839735984802246
(PID.TID 0000.0001)          No. starts:           1
(PID.TID 0000.0001)           No. stops:           1
(PID.TID 0000.0001)   Seconds in section "MAIN_DO_LOOP        [THE_MAIN_LOOP]":
(PID.TID 0000.0001)           User time:   14.814311817288399
(PID.TID 0000.0001)         System time:   2.3117996752262115E-002
(PID.TID 0000.0001)     Wall clock time:   14.839576244354248
(PID.TID 0000.0001)          No. starts:          20
(PID.TID 0000.0001)           No. stops:          20
(PID.TID 0000.0001)   Seconds in section "FORWARD_STEP        [MAIN_DO_LOOP]":
(PID.TID 0000.0001)           User time:   14.814013391733170
(PID.TID 0000.0001)         System time:   2.3114994168281555E-002
(PID.TID 0000.0001)     Wall clock time:   14.839277982711792
(PID.TID 0000.0001)          No. starts:          20
(PID.TID 0000.0001)           No. stops:          20
(PID.TID 0000.0001)   Seconds in section "SHELFICE_REMESHING     [FORWARD_STEP]":
(PID.TID 0000.0001)           User time:   1.2372953146696091
(PID.TID 0000.0001)         System time:   3.2629966735839844E-003
(PID.TID 0000.0001)     Wall clock time:   1.2408363819122314
(PID.TID 0000.0001)          No. starts:          20
(PID.TID 0000.0001)           No. stops:          20
(PID.TID 0000.0001)   Seconds in section "DO_STATEVARS_DIAGS  [FORWARD_STEP]":
(PID.TID 0000.0001)           User time:  0.20664119720458984
(PID.TID 0000.0001)         System time:   0.0000000000000000
(PID.TID 0000.0001)     Wall clock time:  0.20675563812255859
(PID.TID 0000.0001)          No. starts:          60
(PID.TID 0000.0001)           No. stops:          60
(PID.TID 0000.0001)   Seconds in section "LOAD_FIELDS_DRIVER  [FORWARD_STEP]":
(PID.TID 0000.0001)           User time:   4.7168135643005371E-004
(PID.TID 0000.0001)         System time:   0.0000000000000000
(PID.TID 0000.0001)     Wall clock time:   4.6944618225097656E-004
(PID.TID 0000.0001)          No. starts:          20
(PID.TID 0000.0001)           No. stops:          20
(PID.TID 0000.0001)   Seconds in section "EXTERNAL_FLDS_LOAD [LOAD_FLDS_DRIVER]":
(PID.TID 0000.0001)           User time:   1.7124414443969727E-004
(PID.TID 0000.0001)         System time:   0.0000000000000000
(PID.TID 0000.0001)     Wall clock time:   1.6665458679199219E-004
(PID.TID 0000.0001)          No. starts:          20
(PID.TID 0000.0001)           No. stops:          20
(PID.TID 0000.0001)   Seconds in section "DO_ATMOSPHERIC_PHYS [FORWARD_STEP]":
(PID.TID 0000.0001)           User time:   1.8072128295898438E-004
(PID.TID 0000.0001)         System time:   0.0000000000000000
(PID.TID 0000.0001)     Wall clock time:   1.7881393432617188E-004
(PID.TID 0000.0001)          No. starts:          20
(PID.TID 0000.0001)           No. stops:          20
(PID.TID 0000.0001)   Seconds in section "DO_OCEANIC_PHYS     [FORWARD_STEP]":
(PID.TID 0000.0001)           User time:   1.0011837184429169
(PID.TID 0000.0001)         System time:   2.6599317789077759E-004
(PID.TID 0000.0001)     Wall clock time:   1.0015232563018799
(PID.TID 0000.0001)          No. starts:          20
(PID.TID 0000.0001)           No. stops:          20
(PID.TID 0000.0001)   Seconds in section "SHELFICE_THERMODYNAMICS [DO_OCEANIC_PHYS]":
(PID.TID 0000.0001)           User time:   7.7636241912841797E-003
(PID.TID 0000.0001)         System time:   1.2400001287460327E-004
(PID.TID 0000.0001)     Wall clock time:   7.9047679901123047E-003
(PID.TID 0000.0001)          No. starts:          20
(PID.TID 0000.0001)           No. stops:          20
(PID.TID 0000.0001)   Seconds in section "DYNAMICS            [FORWARD_STEP]":
(PID.TID 0000.0001)           User time:   5.4670712947845459
(PID.TID 0000.0001)         System time:   7.4420049786567688E-003
(PID.TID 0000.0001)     Wall clock time:   5.4754910469055176
(PID.TID 0000.0001)          No. starts:          20
(PID.TID 0000.0001)           No. stops:          20
(PID.TID 0000.0001)   Seconds in section "UPDATE_SURF_DR      [FORWARD_STEP]":
(PID.TID 0000.0001)           User time:   3.1645298004150391E-003
(PID.TID 0000.0001)         System time:   1.3992190361022949E-005
(PID.TID 0000.0001)     Wall clock time:   3.1800270080566406E-003
(PID.TID 0000.0001)          No. starts:          20
(PID.TID 0000.0001)           No. stops:          20
(PID.TID 0000.0001)   Seconds in section "UPDATE_CG2D         [FORWARD_STEP]":
(PID.TID 0000.0001)           User time:   7.1154415607452393E-002
(PID.TID 0000.0001)         System time:   2.4005770683288574E-005
(PID.TID 0000.0001)     Wall clock time:   7.1208000183105469E-002
(PID.TID 0000.0001)          No. starts:          20
(PID.TID 0000.0001)           No. stops:          20
(PID.TID 0000.0001)   Seconds in section "SOLVE_FOR_PRESSURE  [FORWARD_STEP]":
(PID.TID 0000.0001)           User time:  0.27723234891891479
(PID.TID 0000.0001)         System time:   1.4007091522216797E-005
(PID.TID 0000.0001)     Wall clock time:  0.27740836143493652
(PID.TID 0000.0001)          No. starts:          20
(PID.TID 0000.0001)           No. stops:          20
(PID.TID 0000.0001)   Seconds in section "MOM_CORRECTION_STEP [FORWARD_STEP]":
(PID.TID 0000.0001)           User time:  0.21482127904891968
(PID.TID 0000.0001)         System time:   1.9967555999755859E-006
(PID.TID 0000.0001)     Wall clock time:  0.21496915817260742
(PID.TID 0000.0001)          No. starts:          20
(PID.TID 0000.0001)           No. stops:          20
(PID.TID 0000.0001)   Seconds in section "INTEGR_CONTINUITY   [FORWARD_STEP]":
(PID.TID 0000.0001)           User time:  0.11954349279403687
(PID.TID 0000.0001)         System time:   9.0003013610839844E-006
(PID.TID 0000.0001)     Wall clock time:  0.11958670616149902
(PID.TID 0000.0001)          No. starts:          20
(PID.TID 0000.0001)           No. stops:          20
(PID.TID 0000.0001)   Seconds in section "CALC_SURF_DR      [FORWARD_STEP]":
(PID.TID 0000.0001)           User time:   7.4687004089355469E-003
(PID.TID 0000.0001)         System time:   3.0100345611572266E-006
(PID.TID 0000.0001)     Wall clock time:   7.4884891510009766E-003
(PID.TID 0000.0001)          No. starts:          20
(PID.TID 0000.0001)           No. stops:          20
(PID.TID 0000.0001)   Seconds in section "BLOCKING_EXCHANGES  [FORWARD_STEP]":
(PID.TID 0000.0001)           User time:  0.47975873947143555
(PID.TID 0000.0001)         System time:   6.2994658946990967E-005
(PID.TID 0000.0001)     Wall clock time:  0.47994923591613770
(PID.TID 0000.0001)          No. starts:          40
(PID.TID 0000.0001)           No. stops:          40
(PID.TID 0000.0001)   Seconds in section "THERMODYNAMICS      [FORWARD_STEP]":
(PID.TID 0000.0001)           User time:   5.3332675695419312
(PID.TID 0000.0001)         System time:   0.0000000000000000
(PID.TID 0000.0001)     Wall clock time:   5.3339097499847412
(PID.TID 0000.0001)          No. starts:          20
(PID.TID 0000.0001)           No. stops:          20
(PID.TID 0000.0001)   Seconds in section "TRC_CORRECTION_STEP [FORWARD_STEP]":
(PID.TID 0000.0001)           User time:   1.6367435455322266E-004
(PID.TID 0000.0001)         System time:   0.0000000000000000
(PID.TID 0000.0001)     Wall clock time:   1.6379356384277344E-004
(PID.TID 0000.0001)          No. starts:          20
(PID.TID 0000.0001)           No. stops:          20
(PID.TID 0000.0001)   Seconds in section "MONITOR             [FORWARD_STEP]":
(PID.TID 0000.0001)           User time:  0.31885874271392822
(PID.TID 0000.0001)         System time:   1.0132789611816406E-006
(PID.TID 0000.0001)     Wall clock time:  0.31894779205322266
(PID.TID 0000.0001)          No. starts:          20
(PID.TID 0000.0001)           No. stops:          20
(PID.TID 0000.0001)   Seconds in section "DO_THE_MODEL_IO     [FORWARD_STEP]":
(PID.TID 0000.0001)           User time:   6.4559578895568848E-002
(PID.TID 0000.0001)         System time:   1.1977985501289368E-002
(PID.TID 0000.0001)     Wall clock time:   7.6549768447875977E-002
(PID.TID 0000.0001)          No. starts:          20
(PID.TID 0000.0001)           No. stops:          20
(PID.TID 0000.0001)   Seconds in section "DO_WRITE_PICKUP     [FORWARD_STEP]":
(PID.TID 0000.0001)           User time:   7.2200298309326172E-003
(PID.TID 0000.0001)         System time:   0.0000000000000000
(PID.TID 0000.0001)     Wall clock time:   7.2193145751953125E-003
(PID.TID 0000.0001)          No. starts:          20
(PID.TID 0000.0001)           No. stops:          20
(PID.TID 0000.0001) // ======================================================
(PID.TID 0000.0001) // Tile <-> Tile communication statistics
(PID.TID 0000.0001) // ======================================================
(PID.TID 0000.0001) // o Tile number: 000001
(PID.TID 0000.0001) //         No. X exchanges =              0
(PID.TID 0000.0001) //            Max. X spins =              0
(PID.TID 0000.0001) //            Min. X spins =     1000000000
(PID.TID 0000.0001) //          Total. X spins =              0
(PID.TID 0000.0001) //            Avg. X spins =       0.00E+00
(PID.TID 0000.0001) //         No. Y exchanges =              0
(PID.TID 0000.0001) //            Max. Y spins =              0
(PID.TID 0000.0001) //            Min. Y spins =     1000000000
(PID.TID 0000.0001) //          Total. Y spins =              0
(PID.TID 0000.0001) //            Avg. Y spins =       0.00E+00
(PID.TID 0000.0001) // o Tile number: 000002
(PID.TID 0000.0001) //         No. X exchanges =              0
(PID.TID 0000.0001) //            Max. X spins =              0
(PID.TID 0000.0001) //            Min. X spins =     1000000000
(PID.TID 0000.0001) //          Total. X spins =              0
(PID.TID 0000.0001) //            Avg. X spins =       0.00E+00
(PID.TID 0000.0001) //         No. Y exchanges =              0
(PID.TID 0000.0001) //            Max. Y spins =              0
(PID.TID 0000.0001) //            Min. Y spins =     1000000000
(PID.TID 0000.0001) //          Total. Y spins =              0
(PID.TID 0000.0001) //            Avg. Y spins =       0.00E+00
(PID.TID 0000.0001) // o Tile number: 000003
(PID.TID 0000.0001) //         No. X exchanges =              0
(PID.TID 0000.0001) //            Max. X spins =              0
(PID.TID 0000.0001) //            Min. X spins =     1000000000
(PID.TID 0000.0001) //          Total. X spins =              0
(PID.TID 0000.0001) //            Avg. X spins =       0.00E+00
(PID.TID 0000.0001) //         No. Y exchanges =              0
(PID.TID 0000.0001) //            Max. Y spins =              0
(PID.TID 0000.0001) //            Min. Y spins =     1000000000
(PID.TID 0000.0001) //          Total. Y spins =              0
(PID.TID 0000.0001) //            Avg. Y spins =       0.00E+00
(PID.TID 0000.0001) // o Tile number: 000004
(PID.TID 0000.0001) //         No. X exchanges =              0
(PID.TID 0000.0001) //            Max. X spins =              0
(PID.TID 0000.0001) //            Min. X spins =     1000000000
(PID.TID 0000.0001) //          Total. X spins =              0
(PID.TID 0000.0001) //            Avg. X spins =       0.00E+00
(PID.TID 0000.0001) //         No. Y exchanges =              0
(PID.TID 0000.0001) //            Max. Y spins =              0
(PID.TID 0000.0001) //            Min. Y spins =     1000000000
(PID.TID 0000.0001) //          Total. Y spins =              0
(PID.TID 0000.0001) //            Avg. Y spins =       0.00E+00
(PID.TID 0000.0001) // o Thread number: 000001
(PID.TID 0000.0001) //            No. barriers =          40600
(PID.TID 0000.0001) //      Max. barrier spins =              1
(PID.TID 0000.0001) //      Min. barrier spins =              1
(PID.TID 0000.0001) //     Total barrier spins =          40600
(PID.TID 0000.0001) //      Avg. barrier spins =       1.00E+00
PROGRAM MAIN: Execution ended Normally
