(PID.TID 0000.0001) 
(PID.TID 0000.0001) // ======================================================
(PID.TID 0000.0001) //                      MITgcm UV
(PID.TID 0000.0001) //                      =========
(PID.TID 0000.0001) // ======================================================
(PID.TID 0000.0001) // execution environment starting up...
(PID.TID 0000.0001) 
(PID.TID 0000.0001) // MITgcmUV version:  checkpoint67b
(PID.TID 0000.0001) // Build user:        jmc
(PID.TID 0000.0001) // Build host:        baudelaire
(PID.TID 0000.0001) // Build date:        Wed May 23 00:15:10 EDT 2018
(PID.TID 0000.0001) 
(PID.TID 0000.0001) // =======================================================
(PID.TID 0000.0001) // Execution Environment parameter file "eedata"
(PID.TID 0000.0001) // =======================================================
(PID.TID 0000.0001) ># Example "eedata" file
(PID.TID 0000.0001) ># Lines beginning "#" are comments
(PID.TID 0000.0001) ># nTx - No. threads per process in X
(PID.TID 0000.0001) ># nTy - No. threads per process in Y
(PID.TID 0000.0001) > &EEPARMS
(PID.TID 0000.0001) > nTx=1,
(PID.TID 0000.0001) > nTy=1,
(PID.TID 0000.0001) > /
(PID.TID 0000.0001) ># Note: Some systems use & as the
(PID.TID 0000.0001) ># namelist terminator. Other systems
(PID.TID 0000.0001) ># use a / character (as shown here).
(PID.TID 0000.0001) 
(PID.TID 0000.0001) // =======================================================
(PID.TID 0000.0001) // Computational Grid Specification ( see files "SIZE.h" )
(PID.TID 0000.0001) //                                  ( and "eedata"       )
(PID.TID 0000.0001) // =======================================================
(PID.TID 0000.0001)      nPx =    1 ; /* No. processes in X */
(PID.TID 0000.0001)      nPy =    1 ; /* No. processes in Y */
(PID.TID 0000.0001)      nSx =    1 ; /* No. tiles in X per process */
(PID.TID 0000.0001)      nSy =    1 ; /* No. tiles in Y per process */
(PID.TID 0000.0001)      sNx =    1 ; /* Tile size in X */
(PID.TID 0000.0001)      sNy =    1 ; /* Tile size in Y */
(PID.TID 0000.0001)      OLx =    3 ; /* Tile overlap distance in X */
(PID.TID 0000.0001)      OLy =    3 ; /* Tile overlap distance in Y */
(PID.TID 0000.0001)      nTx =    1 ; /* No. threads in X per process */
(PID.TID 0000.0001)      nTy =    1 ; /* No. threads in Y per process */
(PID.TID 0000.0001)       Nr =   23 ; /* No. levels in the vertical   */
(PID.TID 0000.0001)       Nx =    1 ; /* Total domain size in X ( = nPx*nSx*sNx ) */
(PID.TID 0000.0001)       Ny =    1 ; /* Total domain size in Y ( = nPy*nSy*sNy ) */
(PID.TID 0000.0001)   nTiles =    1 ; /* Total no. tiles per process ( = nSx*nSy ) */
(PID.TID 0000.0001)   nProcs =    1 ; /* Total no. processes ( = nPx*nPy ) */
(PID.TID 0000.0001) nThreads =    1 ; /* Total no. threads per process ( = nTx*nTy ) */
(PID.TID 0000.0001) usingMPI =    F ; /* Flag used to control whether MPI is in use */
(PID.TID 0000.0001)                   /*  note: To execute a program with MPI calls */
(PID.TID 0000.0001)                   /*  it must be launched appropriately e.g     */
(PID.TID 0000.0001)                   /*  "mpirun -np 64 ......"                    */
(PID.TID 0000.0001) useCoupler=    F ;/* Flag used to control communications with   */
(PID.TID 0000.0001)                   /*  other model components, through a coupler */
(PID.TID 0000.0001) debugMode =    F ; /* print debug msg. (sequence of S/R calls)  */
(PID.TID 0000.0001) printMapIncludesZeros=    F ; /* print zeros in Std.Output maps */
(PID.TID 0000.0001) maxLengthPrt1D=   65 /* maxLength of 1D array printed to StdOut */
(PID.TID 0000.0001) 
(PID.TID 0000.0001) // ======================================================
(PID.TID 0000.0001) // Mapping of tiles to threads
(PID.TID 0000.0001) // ======================================================
(PID.TID 0000.0001) // -o- Thread   1, tiles (   1:   1,   1:   1)
(PID.TID 0000.0001) 
(PID.TID 0000.0001) // ======================================================
(PID.TID 0000.0001) // Tile <-> Tile connectvity table
(PID.TID 0000.0001) // ======================================================
(PID.TID 0000.0001) // Tile number: 000001 (process no. = 000000)
(PID.TID 0000.0001) //        WEST: Tile = 000001, Process = 000000, Comm = put
(PID.TID 0000.0001) //                bi = 000001, bj = 000001
(PID.TID 0000.0001) //        EAST: Tile = 000001, Process = 000000, Comm = put
(PID.TID 0000.0001) //                bi = 000001, bj = 000001
(PID.TID 0000.0001) //       SOUTH: Tile = 000001, Process = 000000, Comm = put
(PID.TID 0000.0001) //                bi = 000001, bj = 000001
(PID.TID 0000.0001) //       NORTH: Tile = 000001, Process = 000000, Comm = put
(PID.TID 0000.0001) //                bi = 000001, bj = 000001
(PID.TID 0000.0001) 
(PID.TID 0000.0001)  INI_PARMS: opening model parameter file "data"
(PID.TID 0000.0001)  OPEN_COPY_DATA_FILE: opening file data
(PID.TID 0000.0001) // =======================================================
(PID.TID 0000.0001) // Parameter file "data"
(PID.TID 0000.0001) // =======================================================
(PID.TID 0000.0001) ># ====================
(PID.TID 0000.0001) ># | Model parameters |
(PID.TID 0000.0001) ># ====================
(PID.TID 0000.0001) >#
(PID.TID 0000.0001) ># Continuous equation parameters
(PID.TID 0000.0001) >#
(PID.TID 0000.0001) >#   tRef            - Reference vertical potential temperature          (deg C)
(PID.TID 0000.0001) >#   sRef            - Reference vertical salinity                         (PSU)
(PID.TID 0000.0001) >#   viscAh          - Horizontal eddy viscosity coefficient             (m^2/s)
(PID.TID 0000.0001) >#   viscAz          - Vertical eddy viscosity coefficient               (m^2/s)
(PID.TID 0000.0001) >#   diffKhT         - Horizontal temperature diffusivity                (m^2/s)
(PID.TID 0000.0001) >#   diffKzT         - Vertical temperature diffusivity                  (m^2/s)
(PID.TID 0000.0001) >#   diffKhS         - Horizontal salt diffusivity                       (m^2/s)
(PID.TID 0000.0001) >#   diffKzS         - Vertical salt diffusivity                         (m^2/s)
(PID.TID 0000.0001) >#   f0              - Reference coriolis parameter,
(PID.TID 0000.0001) >#                     south edge of f on beta plane                       (1/s)
(PID.TID 0000.0001) >#   beta            - df/dy                                         (s^-1.m^-1)
(PID.TID 0000.0001) >#   tAlpha          - Linear EOS thermal expansion coefficient           (1/oC)
(PID.TID 0000.0001) >#   sBeta           - Linear EOS haline contraction coefficient         (1/ppt)
(PID.TID 0000.0001) >#   gravity         - Acceleration due to gravity                       (m/s^2)
(PID.TID 0000.0001) >#   gBaro           - Accel. due to gravity used in barotropic equation (m/s^2)
(PID.TID 0000.0001) >#   rigidLid        - Set to true to use rigid lid
(PID.TID 0000.0001) >#   implicitFreeSurface - Set to true to use implicit free surface
(PID.TID 0000.0001) >#   eosType         - Flag for linear or polynomial equation of state
(PID.TID 0000.0001) >#   momAdvection    - On/Off flag for momentum self transport
(PID.TID 0000.0001) >#   momViscosity    - On/Off flag for momentum mixing
(PID.TID 0000.0001) >#
(PID.TID 0000.0001) > &PARM01
(PID.TID 0000.0001) ># an's T,S profiles @ 23 levels
(PID.TID 0000.0001) > tRef               = -1.930,-1.931,-1.932,-1.2854,-0.6,-0.6,-0.9,-1.2,-1.2,-1.3,
(PID.TID 0000.0001) >                      -1.4,-1.4,-1.5,-1.5,-1.5,-1.5,-1.3,-0.9,-0.3, 0.2,
(PID.TID 0000.0001) >                       0.5, 0.5, 0.5,
(PID.TID 0000.0001) ># tRef to use for 11,000 time step adjoint calculations
(PID.TID 0000.0001) ># tRef = -1.8420,-1.8464,-1.8392,-1.2854,-0.6,-0.6,-0.9,-1.2,-1.2,-1.3,
(PID.TID 0000.0001) ># 	-1.4,-1.4,-1.5,-1.5,-1.5,-1.5,-1.3,-0.9,-0.3, 0.2,
(PID.TID 0000.0001) ># 	0.5, 0.5, 0.5
(PID.TID 0000.0001) > sRef               = 29.0079,29.0080,29.0086,29.0775,30.7,31.6,31.9,32.1,32.3,32.4,
(PID.TID 0000.0001) >                      32.5,32.7,32.8,32.9,33.1,33.4,33.8,34.2,34.5,34.7,
(PID.TID 0000.0001) >                      34.8,34.8,34.8,
(PID.TID 0000.0001) > no_slip_sides=.FALSE.,
(PID.TID 0000.0001) > no_slip_bottom=.TRUE.,
(PID.TID 0000.0001) > viscAz=1.93e-5,
(PID.TID 0000.0001) > viscAh=5.E4,
(PID.TID 0000.0001) > diffKhT=0.0,
(PID.TID 0000.0001) > diffKzT=1.46e-7,
(PID.TID 0000.0001) > diffKhS=0.0,
(PID.TID 0000.0001) > diffKzS=1.46e-7,
(PID.TID 0000.0001) ># beta=1.E-11,
(PID.TID 0000.0001) ># 1-D setups work best with an f-plane due to unequal Coriolis force on north
(PID.TID 0000.0001) ># and south faces
(PID.TID 0000.0001) > selectCoriMap=0,
(PID.TID 0000.0001) > rigidLid=.FALSE.,
(PID.TID 0000.0001) > implicitFreeSurface=.TRUE.,
(PID.TID 0000.0001) > eosType='JMD95Z',
(PID.TID 0000.0001) > readBinaryPrec=32,
(PID.TID 0000.0001) > writeBinaryPrec=32,
(PID.TID 0000.0001) > saltStepping=.TRUE.,
(PID.TID 0000.0001) > tempStepping=.TRUE.,
(PID.TID 0000.0001) > momStepping=.TRUE.,
(PID.TID 0000.0001) > implicitDiffusion=.TRUE.,
(PID.TID 0000.0001) > implicitViscosity=.TRUE.,
(PID.TID 0000.0001) > allowFreezing=.FALSE.,
(PID.TID 0000.0001) >#- set wrong celsius2K to reproduce old results:
(PID.TID 0000.0001) > celsius2K=273.16,
(PID.TID 0000.0001) > HeatCapacity_Cp = 3986.0,
(PID.TID 0000.0001) > gravity         = 9.8156,
(PID.TID 0000.0001) > rhoConst        = 1027.0,
(PID.TID 0000.0001) > rhoConstFresh   = 999.8,
(PID.TID 0000.0001) > useCDscheme=.FALSE.,
(PID.TID 0000.0001) > staggerTimeStep=.TRUE.,
(PID.TID 0000.0001) > multiDimAdvection=.false.,
(PID.TID 0000.0001) > tempAdvScheme=30,
(PID.TID 0000.0001) > saltAdvScheme=30,
(PID.TID 0000.0001) > vectorInvariantMomentum=.TRUE.,
(PID.TID 0000.0001) > useRealFreshWaterFlux = .TRUE.,
(PID.TID 0000.0001) ># debugLevel=1,
(PID.TID 0000.0001) > /
(PID.TID 0000.0001) >
(PID.TID 0000.0001) ># Elliptic solver parameters
(PID.TID 0000.0001) >#
(PID.TID 0000.0001) >#   cg2dMaxIters       - Maximum number of 2d solver iterations
(PID.TID 0000.0001) >#   cg2dTargetResidual - Solver target residual
(PID.TID 0000.0001) >#
(PID.TID 0000.0001) > &PARM02
(PID.TID 0000.0001) > cg2dMaxIters=1000,
(PID.TID 0000.0001) > cg2dTargetResidual=1.D-13,
(PID.TID 0000.0001) > /
(PID.TID 0000.0001) >
(PID.TID 0000.0001) ># Time stepping parameters
(PID.TID 0000.0001) >#
(PID.TID 0000.0001) >#   startTime         - Integration starting time                (s)
(PID.TID 0000.0001) >#   endTime           - Integration ending time                  (s)
(PID.TID 0000.0001) >#   tauCD             - CD scheme coupling timescale             (s)
(PID.TID 0000.0001) >#   deltaTMom         - Timestep for momemtum equations          (s)
(PID.TID 0000.0001) >#   deltaTtracer      - Tracer timestep                          (s)
(PID.TID 0000.0001) >#   deltaTClock       - Timestep used as model "clock"           (s)
(PID.TID 0000.0001) >#   abEps             - Adams-Bashforth stabilising factor
(PID.TID 0000.0001) >#   pChkPtFreq        - Frequency of permanent check pointing    (s)
(PID.TID 0000.0001) >#   chkPtFreq         - Frequency of rolling check pointing      (s)
(PID.TID 0000.0001) >#   dumpFreq          - Frequency at which model state is stored (s)
(PID.TID 0000.0001) >#   tauThetaClimRelax - Relaxation to climatology time scale     (s)
(PID.TID 0000.0001) >#   tauSaltClimRelax  - Relaxation to climatology time scale     (s)
(PID.TID 0000.0001) >#
(PID.TID 0000.0001) > &PARM03
(PID.TID 0000.0001) > startTime=0.0,
(PID.TID 0000.0001) > nTimeSteps= 10,
(PID.TID 0000.0001) ># nTimeSteps= 11000,
(PID.TID 0000.0001) > deltaTtracer=3600.0,
(PID.TID 0000.0001) > deltaTClock =3600.0,
(PID.TID 0000.0001) > cAdjFreq=0.,
(PID.TID 0000.0001) > abEps=0.1,
(PID.TID 0000.0001) > tracForcingOutAB=1,
(PID.TID 0000.0001) > pChkptFreq=0.,
(PID.TID 0000.0001) > chkptFreq= 0.,
(PID.TID 0000.0001) > dumpFreq = 0.,
(PID.TID 0000.0001) > taveFreq = 0.,
(PID.TID 0000.0001) ># monitorFreq=86400.,
(PID.TID 0000.0001) ># adjDumpFreq=86400.,
(PID.TID 0000.0001) ># adjMonitorFreq = 86400.,
(PID.TID 0000.0001) > monitorFreq=1.,
(PID.TID 0000.0001) > adjDumpFreq=1.,
(PID.TID 0000.0001) > adjMonitorFreq = 1.,
(PID.TID 0000.0001) > /
(PID.TID 0000.0001) >
(PID.TID 0000.0001) ># Gridding parameters
(PID.TID 0000.0001) >#
(PID.TID 0000.0001) >#   usingSphericalPolarGrid - On/Off flag for spherical polar coordinates
(PID.TID 0000.0001) >#   delX                    - Zonal grid spacing         (degrees)
(PID.TID 0000.0001) >#   delY                    - Meridional grid spacing    (degrees)
(PID.TID 0000.0001) >#   delZ                    - Vertical grid spacing      (m)
(PID.TID 0000.0001) >#   ygOrigin                - Southern boundary latitude (degrees)
(PID.TID 0000.0001) >#
(PID.TID 0000.0001) > &PARM04
(PID.TID 0000.0001) > usingCartesianGrid=.TRUE.,
(PID.TID 0000.0001) > dXspacing=5000.,
(PID.TID 0000.0001) > dYspacing=5000.,
(PID.TID 0000.0001) ># usingSphericalPolarGrid=.TRUE.,
(PID.TID 0000.0001) ># delX=1*2.E0,
(PID.TID 0000.0001) ># delY=1*2.E0,
(PID.TID 0000.0001) > delZ   = 10.00, 10.00, 10.00, 10.00, 10.00, 10.00, 10.00, 10.01,
(PID.TID 0000.0001) > 10.03, 10.11, 10.32, 10.80, 11.76, 13.42, 16.04 , 19.82, 24.85,
(PID.TID 0000.0001) > 31.10, 38.42, 46.50, 55.00, 63.50, 71.58,
(PID.TID 0000.0001) ># ygOrigin=65.,
(PID.TID 0000.0001) ># xgOrigin=280.,
(PID.TID 0000.0001) ># rSphere = 6371.D3,
(PID.TID 0000.0001) > /
(PID.TID 0000.0001) >
(PID.TID 0000.0001) > &PARM05
(PID.TID 0000.0001) > bathyFile = 'bathy_1x1_1105m_testpool',
(PID.TID 0000.0001) > /
(PID.TID 0000.0001) >
(PID.TID 0000.0001) 
(PID.TID 0000.0001)  INI_PARMS ; starts to read PARM01
(PID.TID 0000.0001)  INI_PARMS ; read PARM01 : OK
(PID.TID 0000.0001)  INI_PARMS ; starts to read PARM02
(PID.TID 0000.0001)  INI_PARMS ; read PARM02 : OK
(PID.TID 0000.0001)  INI_PARMS ; starts to read PARM03
(PID.TID 0000.0001)  INI_PARMS ; read PARM03 : OK
(PID.TID 0000.0001)  INI_PARMS ; starts to read PARM04
(PID.TID 0000.0001)  INI_PARMS ; read PARM04 : OK
(PID.TID 0000.0001)  INI_PARMS ; starts to read PARM05
(PID.TID 0000.0001)  INI_PARMS ; read PARM05 : OK
(PID.TID 0000.0001)  INI_PARMS: finished reading file "data"
(PID.TID 0000.0001)  PACKAGES_BOOT: opening data.pkg
(PID.TID 0000.0001)  OPEN_COPY_DATA_FILE: opening file data.pkg
(PID.TID 0000.0001) // =======================================================
(PID.TID 0000.0001) // Parameter file "data.pkg"
(PID.TID 0000.0001) // =======================================================
(PID.TID 0000.0001) ># Packages
(PID.TID 0000.0001) > &PACKAGES
(PID.TID 0000.0001) >  useKPP    = .TRUE.,
(PID.TID 0000.0001) >  useEXF    = .TRUE.,
(PID.TID 0000.0001) >  useSEAICE = .TRUE.,
(PID.TID 0000.0001) >  useECCO   = .TRUE.,
(PID.TID 0000.0001) >  useGrdchk = .TRUE.,
(PID.TID 0000.0001) >
(PID.TID 0000.0001) >#  useMNC    = .TRUE,
(PID.TID 0000.0001) >#  useDiagnostics = .TRUE.,
(PID.TID 0000.0001) > /
(PID.TID 0000.0001) 
(PID.TID 0000.0001)  PACKAGES_BOOT: finished reading data.pkg
(PID.TID 0000.0001)  PACKAGES_BOOT: On/Off package Summary
 --------  pkgs with a standard "usePKG" On/Off switch in "data.pkg":  --------
 pkg/kpp                  compiled   and   used ( useKPP                   = T )
 pkg/cal                  compiled   and   used ( useCAL                   = T )
 pkg/exf                  compiled   and   used ( useEXF                   = T )
 pkg/autodiff             compiled   and   used ( useAUTODIFF              = T )
 pkg/grdchk               compiled   and   used ( useGrdchk                = T )
 pkg/ecco                 compiled   and   used ( useECCO                  = T )
 pkg/ctrl                 compiled   and   used ( useCTRL                  = T )
 pkg/seaice               compiled   and   used ( useSEAICE                = T )
 -------- pkgs without standard "usePKG" On/Off switch in "data.pkg":  --------
 pkg/generic_advdiff      compiled   and   used ( useGAD                   = T )
 pkg/mom_common           compiled   and   used ( momStepping              = T )
 pkg/mom_vecinv           compiled   and   used ( +vectorInvariantMomentum = T )
 pkg/mom_fluxform         compiled but not used ( & not vectorInvariantMom = F )
 pkg/monitor              compiled   and   used ( monitorFreq > 0.         = T )
 pkg/debug                compiled but not used ( debugMode                = F )
 pkg/rw                   compiled   and   used
 pkg/mdsio                compiled   and   used
 pkg/autodiff             compiled   and   used
 pkg/cost                 compiled   and   used
(PID.TID 0000.0001)  PACKAGES_BOOT: End of package Summary
(PID.TID 0000.0001) 
(PID.TID 0000.0001) CAL_READPARMS: opening data.cal
(PID.TID 0000.0001)  OPEN_COPY_DATA_FILE: opening file data.cal
(PID.TID 0000.0001) // =======================================================
(PID.TID 0000.0001) // Parameter file "data.cal"
(PID.TID 0000.0001) // =======================================================
(PID.TID 0000.0001) >#
(PID.TID 0000.0001) ># *******************
(PID.TID 0000.0001) ># Calendar Parameters
(PID.TID 0000.0001) ># *******************
(PID.TID 0000.0001) > &CAL_NML
(PID.TID 0000.0001) > TheCalendar='gregorian',
(PID.TID 0000.0001) ># TheCalendar='model',
(PID.TID 0000.0001) > startDate_1=19790101,
(PID.TID 0000.0001) > startDate_2=000000,
(PID.TID 0000.0001) > /
(PID.TID 0000.0001) 
(PID.TID 0000.0001) CAL_READPARMS: finished reading data.cal
(PID.TID 0000.0001) EXF_READPARMS: opening data.exf
(PID.TID 0000.0001)  OPEN_COPY_DATA_FILE: opening file data.exf
(PID.TID 0000.0001) // =======================================================
(PID.TID 0000.0001) // Parameter file "data.exf"
(PID.TID 0000.0001) // =======================================================
(PID.TID 0000.0001) >#
(PID.TID 0000.0001) ># *********************
(PID.TID 0000.0001) ># External Forcing Data
(PID.TID 0000.0001) ># *********************
(PID.TID 0000.0001) > &EXF_NML_01
(PID.TID 0000.0001) >#
(PID.TID 0000.0001) > useExfCheckRange  = .TRUE.,
(PID.TID 0000.0001) > repeatPeriod      = 31622400.0,
(PID.TID 0000.0001) > exf_iprec         = 32,
(PID.TID 0000.0001) >#
(PID.TID 0000.0001) > /
(PID.TID 0000.0001) >
(PID.TID 0000.0001) ># *********************
(PID.TID 0000.0001) > &EXF_NML_02
(PID.TID 0000.0001) >#
(PID.TID 0000.0001) > hfluxstartdate1   = 19781216,
(PID.TID 0000.0001) > hfluxstartdate2   = 180000,
(PID.TID 0000.0001) > hfluxperiod       = 2635200.0,
(PID.TID 0000.0001) >#
(PID.TID 0000.0001) > sfluxstartdate1   = 19781216,
(PID.TID 0000.0001) > sfluxstartdate2   = 180000,
(PID.TID 0000.0001) > sfluxperiod       = 2635200.0,
(PID.TID 0000.0001) >#
(PID.TID 0000.0001) > ustressstartdate1 = 19781216,
(PID.TID 0000.0001) > ustressstartdate2 = 180000,
(PID.TID 0000.0001) > ustressperiod     = 2635200.0,
(PID.TID 0000.0001) >#
(PID.TID 0000.0001) > vstressstartdate1 = 19781216,
(PID.TID 0000.0001) > vstressstartdate2 = 180000,
(PID.TID 0000.0001) > vstressperiod     = 2635200.0,
(PID.TID 0000.0001) >#
(PID.TID 0000.0001) > atempstartdate1   = 19781216,
(PID.TID 0000.0001) > atempstartdate2   = 180000,
(PID.TID 0000.0001) > atempperiod       = 2635200.0,
(PID.TID 0000.0001) > atempperiod       = 86400.0,
(PID.TID 0000.0001) >#
(PID.TID 0000.0001) > aqhstartdate1     = 19781216,
(PID.TID 0000.0001) > aqhstartdate2     = 180000,
(PID.TID 0000.0001) > aqhperiod         = 2635200.0,
(PID.TID 0000.0001) >#
(PID.TID 0000.0001) >#evapstartdate1    = 19781216,
(PID.TID 0000.0001) >#evapstartdate2    = 180000,
(PID.TID 0000.0001) >#evapperiod        = 2635200.0,
(PID.TID 0000.0001) >#
(PID.TID 0000.0001) > precipstartdate1  = 19781216,
(PID.TID 0000.0001) > precipstartdate2  = 180000,
(PID.TID 0000.0001) > precipperiod      = 2635200.0,
(PID.TID 0000.0001) >#
(PID.TID 0000.0001) > uwindstartdate1   = 19781216,
(PID.TID 0000.0001) > uwindstartdate2   = 180000,
(PID.TID 0000.0001) > uwindperiod       = 2635200.0,
(PID.TID 0000.0001) >#
(PID.TID 0000.0001) > vwindstartdate1   = 19781216,
(PID.TID 0000.0001) > vwindstartdate2   = 180000,
(PID.TID 0000.0001) > vwindperiod       = 2635200.0,
(PID.TID 0000.0001) >#
(PID.TID 0000.0001) > swfluxstartdate1  = 19781216,
(PID.TID 0000.0001) > swfluxstartdate2  = 180000,
(PID.TID 0000.0001) > swfluxperiod      = 2635200.0,
(PID.TID 0000.0001) >#
(PID.TID 0000.0001) > lwfluxstartdate1  = 19781216,
(PID.TID 0000.0001) > lwfluxstartdate2  = 180000,
(PID.TID 0000.0001) > lwfluxperiod      = 2635200.0,
(PID.TID 0000.0001) >#
(PID.TID 0000.0001) > swdownstartdate1  = 19781216,
(PID.TID 0000.0001) > swdownstartdate2  = 180000,
(PID.TID 0000.0001) > swdownperiod      = 2635200.0,
(PID.TID 0000.0001) > swdownperiod = 86400.0,
(PID.TID 0000.0001) >#
(PID.TID 0000.0001) > lwdownstartdate1  = 19781216,
(PID.TID 0000.0001) > lwdownstartdate2  = 180000,
(PID.TID 0000.0001) > lwdownperiod      = 2635200.0,
(PID.TID 0000.0001) > lwdownperiod = 86400.0,
(PID.TID 0000.0001) >#
(PID.TID 0000.0001) ># climsststartdate1  = 19781216,
(PID.TID 0000.0001) ># climsststartdate2  = 180000,
(PID.TID 0000.0001) ># climsstperiod      = 2635200.0,
(PID.TID 0000.0001) ># climsstTauRelax    = 0.0,
(PID.TID 0000.0001) >#
(PID.TID 0000.0001) ># climsssstartdate1  = 19781216,
(PID.TID 0000.0001) ># climsssstartdate2  = 180000,
(PID.TID 0000.0001) ># climsssperiod      = 2635200.0,
(PID.TID 0000.0001) ># climsssTauRelax    = 4142330.0,
(PID.TID 0000.0001) >#
(PID.TID 0000.0001) > hfluxfile         = ' ',
(PID.TID 0000.0001) > sfluxfile         = ' ',
(PID.TID 0000.0001) > ustressfile       = ' ',
(PID.TID 0000.0001) > vstressfile       = ' ',
(PID.TID 0000.0001) > atempfile         ='atemp_1x1_one_year',
(PID.TID 0000.0001) > lwdownfile        ='dlwrf_1x1_one_year',
(PID.TID 0000.0001) > swdownfile        ='dswrf_1x1_one_year',
(PID.TID 0000.0001) > uwindfile         ='u_1ms_1x1_one_year',
(PID.TID 0000.0001) > vwindfile         ='u_1ms_1x1_one_year',
(PID.TID 0000.0001) > lwfluxfile        = ' ',
(PID.TID 0000.0001) > swfluxfile        = ' ',
(PID.TID 0000.0001) > runoffFile        = ' '
(PID.TID 0000.0001) > /
(PID.TID 0000.0001) >
(PID.TID 0000.0001) ># *********************
(PID.TID 0000.0001) > &EXF_NML_03
(PID.TID 0000.0001) > /
(PID.TID 0000.0001) >
(PID.TID 0000.0001) ># *********************
(PID.TID 0000.0001) > &EXF_NML_04
(PID.TID 0000.0001) > /
(PID.TID 0000.0001) 
(PID.TID 0000.0001) EXF_READPARMS: reading EXF_NML_01
(PID.TID 0000.0001) EXF_READPARMS: reading EXF_NML_02
(PID.TID 0000.0001) EXF_READPARMS: reading EXF_NML_03
(PID.TID 0000.0001) EXF_READPARMS: finished reading data.exf
(PID.TID 0000.0001)  KPP_READPARMS: opening data.kpp
(PID.TID 0000.0001)  OPEN_COPY_DATA_FILE: opening file data.kpp
(PID.TID 0000.0001) // =======================================================
(PID.TID 0000.0001) // Parameter file "data.kpp"
(PID.TID 0000.0001) // =======================================================
(PID.TID 0000.0001) ># KPP parameters
(PID.TID 0000.0001) > &KPP_PARM01
(PID.TID 0000.0001) > KPPmixingMaps   = .FALSE.,
(PID.TID 0000.0001) > KPPwriteState   = .TRUE.,
(PID.TID 0000.0001) > KPP_ghatUseTotalDiffus=.TRUE.,
(PID.TID 0000.0001) > /
(PID.TID 0000.0001) 
(PID.TID 0000.0001)  KPP_READPARMS ; starts to read KPP_PARM01
(PID.TID 0000.0001)  KPP_READPARMS ; read KPP_PARM01 : OK
(PID.TID 0000.0001)  KPP_READPARMS: finished reading data.kpp
(PID.TID 0000.0001) 
(PID.TID 0000.0001)  SEAICE_READPARMS: opening data.seaice
(PID.TID 0000.0001)  OPEN_COPY_DATA_FILE: opening file data.seaice
(PID.TID 0000.0001) // =======================================================
(PID.TID 0000.0001) // Parameter file "data.seaice"
(PID.TID 0000.0001) // =======================================================
(PID.TID 0000.0001) ># SEAICE parameters
(PID.TID 0000.0001) > &SEAICE_PARM01
(PID.TID 0000.0001) >      SEAICEwriteState   = .TRUE.,
(PID.TID 0000.0001) >#      SEAICE_initialHEFF = 1.1E-5,
(PID.TID 0000.0001) >      SEAICE_initialHEFF = 0.0,
(PID.TID 0000.0001) >      HsnowFile          = 'snow_0m_1x1',
(PID.TID 0000.0001) >      SEAICE_deltaTtherm = 3600.,
(PID.TID 0000.0001) >      SEAICE_deltaTdyn   = 3600.,
(PID.TID 0000.0001) >      SEAICEuseDYNAMICS  =.FALSE.,
(PID.TID 0000.0001) >      SEAICEadvSalt      =.FALSE.,
(PID.TID 0000.0001) >      LSR_ERROR          = 1.E-6,
(PID.TID 0000.0001) >      SEAICE_EPS         = 1.E-8,
(PID.TID 0000.0001) >      SEAICEadvSnow      = .TRUE.,
(PID.TID 0000.0001) >      SEAICE_mcPheePiston= 0.0008749999999999999,
(PID.TID 0000.0001) >      SEAICE_mcPheeTaper = 0.92,
(PID.TID 0000.0001) >      SEAICE_frazilFrac  = 0.,
(PID.TID 0000.0001) >      SEAICE_saltFrac    = 0.30,
(PID.TID 0000.0001) >      SEAICE_tempFrz0    = -1.96,
(PID.TID 0000.0001) >      SEAICE_dTempFrz_dS = 0.,
(PID.TID 0000.0001) >      SEAICEuseFlooding  = .TRUE.,
(PID.TID 0000.0001) >      SEAICE_area_reg    = 0.15,
(PID.TID 0000.0001) >      SEAICE_area_floor  = 1.E-5,
(PID.TID 0000.0001) >      SEAICE_hice_reg    = 0.10,
(PID.TID 0000.0001) >#      SEAICE_debugPointI = 3,
(PID.TID 0000.0001) >#      SEAICE_debugPointJ = 3,
(PID.TID 0000.0001) >      IMAX_TICE = 6,
(PID.TID 0000.0001) >#- to reproduce old results with former #undef SEAICE_SOLVE4TEMP_LEGACY code
(PID.TID 0000.0001) >  SEAICE_wetAlbTemp = 0.,
(PID.TID 0000.0001) >  SEAICE_snowThick  = 0.,
(PID.TID 0000.0001) >      SEAICE_mon_mnc = .TRUE.
(PID.TID 0000.0001) ># For backward compatibility only:
(PID.TID 0000.0001) ># emissivities should be inherited from exf and setting them here does
(PID.TID 0000.0001) ># not set a good example
(PID.TID 0000.0001) > SEAICE_snow_emiss     = 0.97001763668430343479,
(PID.TID 0000.0001) > SEAICE_ice_emiss      = 0.97001763668430343479,
(PID.TID 0000.0001) > /
(PID.TID 0000.0001) > &SEAICE_PARM02
(PID.TID 0000.0001) >  mult_ice   = 1.,
(PID.TID 0000.0001) ># choose which seaice cost term you want
(PID.TID 0000.0001) >  cost_ice_flag = 2,
(PID.TID 0000.0001) ># the following timings are obsolete;
(PID.TID 0000.0001) ># replaced by lastinterval
(PID.TID 0000.0001) > costIceStart1        = 20000101,
(PID.TID 0000.0001) > costIceStart2        = 00000,
(PID.TID 0000.0001) > costIceEnd1        = 20000201,
(PID.TID 0000.0001) > costIceEnd2        = 00000,
(PID.TID 0000.0001) > /
(PID.TID 0000.0001) 
(PID.TID 0000.0001)  SEAICE_READPARMS: finished reading data.seaice
(PID.TID 0000.0001) AUTODIFF_READPARMS: opening data.autodiff
(PID.TID 0000.0001)  OPEN_COPY_DATA_FILE: opening file data.autodiff
(PID.TID 0000.0001) // =======================================================
(PID.TID 0000.0001) // Parameter file "data.autodiff"
(PID.TID 0000.0001) // =======================================================
(PID.TID 0000.0001) ># =========================
(PID.TID 0000.0001) ># pkg AUTODIFF parameters :
(PID.TID 0000.0001) ># =========================
(PID.TID 0000.0001) >#  inAdExact :: get an exact adjoint (no approximation) (def=.True.)
(PID.TID 0000.0001) >#
(PID.TID 0000.0001) > &AUTODIFF_PARM01
(PID.TID 0000.0001) ># inAdExact = .FALSE.,
(PID.TID 0000.0001) ># dumpAdVarExch = 2,
(PID.TID 0000.0001) >  dumpAdByRec   = .TRUE.,
(PID.TID 0000.0001) > /
(PID.TID 0000.0001) 
(PID.TID 0000.0001) AUTODIFF_READPARMS: finished reading data.autodiff
(PID.TID 0000.0001) // ===================================
(PID.TID 0000.0001) // AUTODIFF parameters :
(PID.TID 0000.0001) // ===================================
(PID.TID 0000.0001) inAdExact = /* get an exact adjoint (no approximation) */
(PID.TID 0000.0001)                   T
(PID.TID 0000.0001)     ;
(PID.TID 0000.0001) useKPPinAdMode = /* use KPP in adjoint mode */
(PID.TID 0000.0001)                   T
(PID.TID 0000.0001)     ;
(PID.TID 0000.0001) useGMRediInAdMode = /* use GMRedi in adjoint mode */
(PID.TID 0000.0001)                   F
(PID.TID 0000.0001)     ;
(PID.TID 0000.0001) useSEAICEinAdMode = /* use SEAICE in adjoint mode */
(PID.TID 0000.0001)                   T
(PID.TID 0000.0001)     ;
(PID.TID 0000.0001) useGGL90inAdMode = /* use GGL90 in adjoint mode */
(PID.TID 0000.0001)                   F
(PID.TID 0000.0001)     ;
(PID.TID 0000.0001) useSALT_PLUMEinAdMode = /* use SALT_PLUME in adjoint mode */
(PID.TID 0000.0001)                   F
(PID.TID 0000.0001)     ;
(PID.TID 0000.0001) SEAICEuseDYNAMICSswitchInAd = /* switch On/Off SEAICE Dyn in AD mode */
(PID.TID 0000.0001)                   F
(PID.TID 0000.0001)     ;
(PID.TID 0000.0001) SEAICEuseFREEDRIFTswitchInAd= /* switch On/Off Free-Drift in AD mode */
(PID.TID 0000.0001)                   F
(PID.TID 0000.0001)     ;
(PID.TID 0000.0001) SEAICEapproxLevInAd = /* -1:SEAICE_FAKE, >0:other adjoint approximation */
(PID.TID 0000.0001)                       0
(PID.TID 0000.0001)     ;
(PID.TID 0000.0001) dumpAdVarExch = /* control adexch before dumpinp */
(PID.TID 0000.0001)                       2
(PID.TID 0000.0001)     ;
(PID.TID 0000.0001) mon_AdVarExch = /* control adexch before monitor */
(PID.TID 0000.0001)                       2
(PID.TID 0000.0001)     ;
(PID.TID 0000.0001) viscFacInAd = /* viscosity factor for adjoint */
(PID.TID 0000.0001)                 1.000000000000000E+00
(PID.TID 0000.0001)     ;
(PID.TID 0000.0001) 
(PID.TID 0000.0001) OPTIM_READPARMS: opening data.optim
(PID.TID 0000.0001)  OPEN_COPY_DATA_FILE: opening file data.optim
(PID.TID 0000.0001) // =======================================================
(PID.TID 0000.0001) // Parameter file "data.optim"
(PID.TID 0000.0001) // =======================================================
(PID.TID 0000.0001) >#
(PID.TID 0000.0001) ># ********************************
(PID.TID 0000.0001) ># Off-line optimization parameters
(PID.TID 0000.0001) ># ********************************
(PID.TID 0000.0001) > &OPTIM
(PID.TID 0000.0001) > optimcycle=0,
(PID.TID 0000.0001) > /
(PID.TID 0000.0001) 
(PID.TID 0000.0001) OPTIM_READPARMS: finished reading data.optim
(PID.TID 0000.0001) CTRL_READPARMS: opening data.ctrl
(PID.TID 0000.0001)  OPEN_COPY_DATA_FILE: opening file data.ctrl
(PID.TID 0000.0001) // =======================================================
(PID.TID 0000.0001) // Parameter file "data.ctrl"
(PID.TID 0000.0001) // =======================================================
(PID.TID 0000.0001) >#
(PID.TID 0000.0001) >#
(PID.TID 0000.0001) ># *********************
(PID.TID 0000.0001) ># ECCO controlvariables
(PID.TID 0000.0001) ># *********************
(PID.TID 0000.0001) > &CTRL_NML
(PID.TID 0000.0001) ># doSinglePrecTapelev=.TRUE.,
(PID.TID 0000.0001) > xx_theta_file      ='xx_theta',
(PID.TID 0000.0001) > xx_salt_file       ='xx_salt',
(PID.TID 0000.0001) > xx_siarea_file     ='xx_siarea',
(PID.TID 0000.0001) > xx_siheff_file     ='xx_siheff',
(PID.TID 0000.0001) > xx_sihsnow_file    ='xx_sihsnow',
(PID.TID 0000.0001) >#
(PID.TID 0000.0001) > xx_hfluxstartdate1 = 19790101,
(PID.TID 0000.0001) > xx_hfluxstartdate2 = 000000,
(PID.TID 0000.0001) > xx_hfluxperiod     = 864000.0,
(PID.TID 0000.0001) > xx_hflux_file      = 'xx_hfl',
(PID.TID 0000.0001) >#
(PID.TID 0000.0001) > xx_sfluxstartdate1 = 19790101,
(PID.TID 0000.0001) > xx_sfluxstartdate2 = 000000,
(PID.TID 0000.0001) > xx_sfluxperiod     = 864000.0,
(PID.TID 0000.0001) > xx_sflux_file      = 'xx_sfl',
(PID.TID 0000.0001) >#
(PID.TID 0000.0001) > xx_tauustartdate1 = 19790101,
(PID.TID 0000.0001) > xx_tauustartdate2 = 000000,
(PID.TID 0000.0001) > xx_tauuperiod     = 864000.0,
(PID.TID 0000.0001) > xx_tauu_file      = 'xx_tauu',
(PID.TID 0000.0001) >#
(PID.TID 0000.0001) > xx_tauvstartdate1 = 19790101,
(PID.TID 0000.0001) > xx_tauvstartdate2 = 000000,
(PID.TID 0000.0001) > xx_tauvperiod     = 864000.0,
(PID.TID 0000.0001) > xx_tauv_file      = 'xx_tauv',
(PID.TID 0000.0001) >#
(PID.TID 0000.0001) > xx_atempstartdate1 = 19790101,
(PID.TID 0000.0001) > xx_atempstartdate2 = 000000,
(PID.TID 0000.0001) > xx_atempperiod     = 864000.0,
(PID.TID 0000.0001) > xx_atemp_file      = 'xx_atemp',
(PID.TID 0000.0001) >#
(PID.TID 0000.0001) > xx_aqhstartdate1 = 19790101,
(PID.TID 0000.0001) > xx_aqhstartdate2 = 000000,
(PID.TID 0000.0001) > xx_aqhperiod     = 864000.0,
(PID.TID 0000.0001) > xx_aqh_file      = 'xx_aqh',
(PID.TID 0000.0001) >#
(PID.TID 0000.0001) > xx_precipstartdate1 = 19790101,
(PID.TID 0000.0001) > xx_precipstartdate2 = 000000,
(PID.TID 0000.0001) > xx_precipperiod     = 864000.0,
(PID.TID 0000.0001) > xx_precip_file      = 'xx_precip',
(PID.TID 0000.0001) >#
(PID.TID 0000.0001) > xx_swfluxstartdate1 = 19790101,
(PID.TID 0000.0001) > xx_swfluxstartdate2 = 000000,
(PID.TID 0000.0001) > xx_swfluxperiod     = 864000.0,
(PID.TID 0000.0001) > xx_swflux_file      = 'xx_swflux',
(PID.TID 0000.0001) >#
(PID.TID 0000.0001) > xx_swdownstartdate1 = 19790101,
(PID.TID 0000.0001) > xx_swdownstartdate2 = 000000,
(PID.TID 0000.0001) > xx_swdownperiod     = 864000.0,
(PID.TID 0000.0001) > xx_swdown_file      = 'xx_swdown',
(PID.TID 0000.0001) >#
(PID.TID 0000.0001) > xx_lwfluxstartdate1 = 19790101,
(PID.TID 0000.0001) > xx_lwfluxstartdate2 = 000000,
(PID.TID 0000.0001) > xx_lwfluxperiod     = 864000.0,
(PID.TID 0000.0001) > xx_lwflux_file      = 'xx_lwflux',
(PID.TID 0000.0001) >#
(PID.TID 0000.0001) > xx_lwdownstartdate1 = 19790101,
(PID.TID 0000.0001) > xx_lwdownstartdate2 = 000000,
(PID.TID 0000.0001) > xx_lwdownperiod     = 864000.0,
(PID.TID 0000.0001) > xx_lwdown_file      = 'xx_lwdown',
(PID.TID 0000.0001) >#
(PID.TID 0000.0001) > xx_evapstartdate1 = 19790101,
(PID.TID 0000.0001) > xx_evapstartdate2 = 000000,
(PID.TID 0000.0001) > xx_evapperiod     = 864000.0,
(PID.TID 0000.0001) > xx_evap_file      = 'xx_evap',
(PID.TID 0000.0001) >#
(PID.TID 0000.0001) > xx_snowprecipstartdate1 = 19790101,
(PID.TID 0000.0001) > xx_snowprecipstartdate2 = 000000,
(PID.TID 0000.0001) > xx_snowprecipperiod     = 864000.0,
(PID.TID 0000.0001) > xx_snowprecip_file      = 'xx_snowprecip',
(PID.TID 0000.0001) >#
(PID.TID 0000.0001) > xx_apressurestartdate1 = 19790101,
(PID.TID 0000.0001) > xx_apressurestartdate2 = 000000,
(PID.TID 0000.0001) > xx_apressureperiod     = 864000.0,
(PID.TID 0000.0001) > xx_apressure_file      = 'xx_apressure',
(PID.TID 0000.0001) >#
(PID.TID 0000.0001) > xx_uwindstartdate1 = 19790101,
(PID.TID 0000.0001) > xx_uwindstartdate2 = 000000,
(PID.TID 0000.0001) > xx_uwindperiod     = 864000.0,
(PID.TID 0000.0001) > xx_uwind_file      = 'xx_uwind',
(PID.TID 0000.0001) >#
(PID.TID 0000.0001) > xx_vwindstartdate1 = 19790101,
(PID.TID 0000.0001) > xx_vwindstartdate2 = 000000,
(PID.TID 0000.0001) > xx_vwindperiod     = 864000.0,
(PID.TID 0000.0001) > xx_vwind_file      = 'xx_vwind',
(PID.TID 0000.0001) > /
(PID.TID 0000.0001) >#
(PID.TID 0000.0001) ># *********************
(PID.TID 0000.0001) ># names for ctrl_pack/unpack
(PID.TID 0000.0001) ># *********************
(PID.TID 0000.0001) > &CTRL_PACKNAMES
(PID.TID 0000.0001) > /
(PID.TID 0000.0001) 
(PID.TID 0000.0001) CTRL_READPARMS: finished reading data.ctrl
(PID.TID 0000.0001) COST_READPARMS: opening data.cost
(PID.TID 0000.0001)  OPEN_COPY_DATA_FILE: opening file data.cost
(PID.TID 0000.0001) // =======================================================
(PID.TID 0000.0001) // Parameter file "data.cost"
(PID.TID 0000.0001) // =======================================================
(PID.TID 0000.0001) >#
(PID.TID 0000.0001) >#
(PID.TID 0000.0001) ># ******************
(PID.TID 0000.0001) ># cost function
(PID.TID 0000.0001) ># ******************
(PID.TID 0000.0001) > &COST_NML
(PID.TID 0000.0001) > /
(PID.TID 0000.0001) 
(PID.TID 0000.0001) COST_READPARMS: finished reading data.cost
(PID.TID 0000.0001) GRDCHK_READPARMS: opening data.grdchk
(PID.TID 0000.0001)  OPEN_COPY_DATA_FILE: opening file data.grdchk
(PID.TID 0000.0001) // =======================================================
(PID.TID 0000.0001) // Parameter file "data.grdchk"
(PID.TID 0000.0001) // =======================================================
(PID.TID 0000.0001) >
(PID.TID 0000.0001) ># *******************
(PID.TID 0000.0001) ># ECCO gradient check
(PID.TID 0000.0001) ># *******************
(PID.TID 0000.0001) > &GRDCHK_NML
(PID.TID 0000.0001) > grdchk_eps       = 1.d-7,
(PID.TID 0000.0001) ># nbeg             = 4,
(PID.TID 0000.0001) > iGloPos          = 1,
(PID.TID 0000.0001) > jGloPos          = 1,
(PID.TID 0000.0001) > kGloPos          = 1,
(PID.TID 0000.0001) > nstep            = 1,
(PID.TID 0000.0001) >#nend             = 6,
(PID.TID 0000.0001) > nend             = 3,
(PID.TID 0000.0001) > grdchkvarindex   = 1,
(PID.TID 0000.0001) > /
(PID.TID 0000.0001) 
(PID.TID 0000.0001) GRDCHK_READPARMS: finished reading data.grdchk
(PID.TID 0000.0001) 
(PID.TID 0000.0001) // =======================================================
(PID.TID 0000.0001) // Gradient check configuration  >>> START <<<
(PID.TID 0000.0001) // =======================================================
(PID.TID 0000.0001) 
(PID.TID 0000.0001)   grdchkvarindex :                          1
(PID.TID 0000.0001)   eps:                              0.100E-06
(PID.TID 0000.0001)   First location:                           0
(PID.TID 0000.0001)   Last location:                            3
(PID.TID 0000.0001)   Increment:                                1
(PID.TID 0000.0001)   grdchkWhichProc:                          0
(PID.TID 0000.0001)   iLocTile =       1  ,    jLocTile =       1
(PID.TID 0000.0001) 
(PID.TID 0000.0001) // =======================================================
(PID.TID 0000.0001) // Gradient check configuration  >>> END <<<
(PID.TID 0000.0001) // =======================================================
(PID.TID 0000.0001) 
(PID.TID 0000.0001) ECCO_READPARMS: opening data.ecco
(PID.TID 0000.0001)  OPEN_COPY_DATA_FILE: opening file data.ecco
(PID.TID 0000.0001) // =======================================================
(PID.TID 0000.0001) // Parameter file "data.ecco"
(PID.TID 0000.0001) // =======================================================
(PID.TID 0000.0001) >#
(PID.TID 0000.0001) >#
(PID.TID 0000.0001) ># ******************
(PID.TID 0000.0001) ># ECCO cost function
(PID.TID 0000.0001) ># ******************
(PID.TID 0000.0001) > &ECCO_COST_NML
(PID.TID 0000.0001) > data_errfile ='data.err',
(PID.TID 0000.0001) > topexstartdate1 = 19790101,
(PID.TID 0000.0001) > topexstartdate2 = 00000,
(PID.TID 0000.0001) > topexperiod     = 2635200.0,
(PID.TID 0000.0001) > ersstartdate1 = 19790101,
(PID.TID 0000.0001) > ersstartdate2 = 00000,
(PID.TID 0000.0001) > ersperiod     = 2635200.0,
(PID.TID 0000.0001) >#
(PID.TID 0000.0001) > sststartdate1        = 19790101,
(PID.TID 0000.0001) > sststartdate2        = 00000,
(PID.TID 0000.0001) >
(PID.TID 0000.0001) > tdatfile = 't_ref_1x1x23x13',
(PID.TID 0000.0001) > sdatfile = 's_ref_1x1x23x13',
(PID.TID 0000.0001) > geoid_covariancefile = ' ',
(PID.TID 0000.0001) >#
(PID.TID 0000.0001) > hflux_errfile        = ' ',
(PID.TID 0000.0001) > sflux_errfile        = ' ',
(PID.TID 0000.0001) > tauu_errfile         = ' ',
(PID.TID 0000.0001) > tauv_errfile         = ' ',
(PID.TID 0000.0001) > atemp_errfile        = ' ',
(PID.TID 0000.0001) > aqh_errfile          = ' ',
(PID.TID 0000.0001) > precip_errfile       = ' ',
(PID.TID 0000.0001) > swflux_errfile       = ' ',
(PID.TID 0000.0001) > swdown_errfile       = ' ',
(PID.TID 0000.0001) > uwind_errfile        = ' ',
(PID.TID 0000.0001) > vwind_errfile        = ' ',
(PID.TID 0000.0001) >#
(PID.TID 0000.0001) > whflux0              = 20.,
(PID.TID 0000.0001) > wsflux0              = 3.0E-8,
(PID.TID 0000.0001) > wtau0                = 2.0E-2,
(PID.TID 0000.0001) > watemp0              = 0.5,
(PID.TID 0000.0001) > waqh0                = 5.E-4,
(PID.TID 0000.0001) > wprecip0             = 1.E-8,
(PID.TID 0000.0001) > wswflux0             = 20.,
(PID.TID 0000.0001) > wswdown0             = 20.,
(PID.TID 0000.0001) > wlwflux0             = 20.,
(PID.TID 0000.0001) > wlwdown0             = 20.,
(PID.TID 0000.0001) > wwind0               = 1.0,
(PID.TID 0000.0001) > wevap0               = 1.0,
(PID.TID 0000.0001) > wsnowprecip0         = 1.0,
(PID.TID 0000.0001) > wapressure0          = 1.0,
(PID.TID 0000.0001) >#
(PID.TID 0000.0001) > wmean_hflux          = 30.,
(PID.TID 0000.0001) > wmean_sflux          = 1.6E-8,
(PID.TID 0000.0001) > wmean_tau            = 0.1,
(PID.TID 0000.0001) > wmean_atemp          = 1.,
(PID.TID 0000.0001) > wmean_aqh            = 1.E-3,
(PID.TID 0000.0001) > wmean_precip         = 1.5E-8,
(PID.TID 0000.0001) > wmean_swflux         = 20.,
(PID.TID 0000.0001) > wmean_swdown         = 20.,
(PID.TID 0000.0001) > wmean_lwdown         = 20.,
(PID.TID 0000.0001) > wmean_lwflux         = 20.,
(PID.TID 0000.0001) > wmean_wind           = 2.0,
(PID.TID 0000.0001) > wmean_evap           = 1.0,
(PID.TID 0000.0001) > wmean_snowprecip     = 1.0,
(PID.TID 0000.0001) > wmean_apressure      = 1.0,
(PID.TID 0000.0001) >
(PID.TID 0000.0001) > mult_hmean = 0.,
(PID.TID 0000.0001) > mult_h     = 0.,
(PID.TID 0000.0001) > mult_temp  = 0.,
(PID.TID 0000.0001) > mult_salt  = 0.,
(PID.TID 0000.0001) > mult_sst   = 0.,
(PID.TID 0000.0001) > mult_hflux = 0.,
(PID.TID 0000.0001) > mult_sflux = 0.,
(PID.TID 0000.0001) > mult_tauu  = 0.,
(PID.TID 0000.0001) > mult_tauv  = 0.,
(PID.TID 0000.0001) > mult_atemp = 0.,
(PID.TID 0000.0001) > mult_aqh   = 0.,
(PID.TID 0000.0001) > mult_precip= 0.,
(PID.TID 0000.0001) > mult_swflux= 0.,
(PID.TID 0000.0001) > mult_swdown= 0.,
(PID.TID 0000.0001) > mult_uwind = 0.,
(PID.TID 0000.0001) > mult_vwind = 0.,
(PID.TID 0000.0001) >#
(PID.TID 0000.0001) > cost_iprec  = 32,
(PID.TID 0000.0001) > cost_yftype = 'RL',
(PID.TID 0000.0001) > /
(PID.TID 0000.0001) 
(PID.TID 0000.0001) ECCO_READPARMS: finished reading #1: ecco_cost_nml
(PID.TID 0000.0001) ECCO_READPARMS: done
(PID.TID 0000.0001) SET_PARMS: done
(PID.TID 0000.0001) Enter INI_VERTICAL_GRID: setInterFDr=    T ; setCenterDr=    F
(PID.TID 0000.0001) %MON XC_max                       =   2.5000000000000E+03
(PID.TID 0000.0001) %MON XC_min                       =   2.5000000000000E+03
(PID.TID 0000.0001) %MON XC_mean                      =   2.5000000000000E+03
(PID.TID 0000.0001) %MON XC_sd                        =   0.0000000000000E+00
(PID.TID 0000.0001) %MON XG_max                       =   0.0000000000000E+00
(PID.TID 0000.0001) %MON XG_min                       =   0.0000000000000E+00
(PID.TID 0000.0001) %MON XG_mean                      =   0.0000000000000E+00
(PID.TID 0000.0001) %MON XG_sd                        =   0.0000000000000E+00
(PID.TID 0000.0001) %MON DXC_max                      =   5.0000000000000E+03
(PID.TID 0000.0001) %MON DXC_min                      =   5.0000000000000E+03
(PID.TID 0000.0001) %MON DXC_mean                     =   5.0000000000000E+03
(PID.TID 0000.0001) %MON DXC_sd                       =   0.0000000000000E+00
(PID.TID 0000.0001) %MON DXF_max                      =   5.0000000000000E+03
(PID.TID 0000.0001) %MON DXF_min                      =   5.0000000000000E+03
(PID.TID 0000.0001) %MON DXF_mean                     =   5.0000000000000E+03
(PID.TID 0000.0001) %MON DXF_sd                       =   0.0000000000000E+00
(PID.TID 0000.0001) %MON DXG_max                      =   5.0000000000000E+03
(PID.TID 0000.0001) %MON DXG_min                      =   5.0000000000000E+03
(PID.TID 0000.0001) %MON DXG_mean                     =   5.0000000000000E+03
(PID.TID 0000.0001) %MON DXG_sd                       =   0.0000000000000E+00
(PID.TID 0000.0001) %MON DXV_max                      =   5.0000000000000E+03
(PID.TID 0000.0001) %MON DXV_min                      =   5.0000000000000E+03
(PID.TID 0000.0001) %MON DXV_mean                     =   5.0000000000000E+03
(PID.TID 0000.0001) %MON DXV_sd                       =   0.0000000000000E+00
(PID.TID 0000.0001) %MON YC_max                       =   2.5000000000000E+03
(PID.TID 0000.0001) %MON YC_min                       =   2.5000000000000E+03
(PID.TID 0000.0001) %MON YC_mean                      =   2.5000000000000E+03
(PID.TID 0000.0001) %MON YC_sd                        =   0.0000000000000E+00
(PID.TID 0000.0001) %MON YG_max                       =   0.0000000000000E+00
(PID.TID 0000.0001) %MON YG_min                       =   0.0000000000000E+00
(PID.TID 0000.0001) %MON YG_mean                      =   0.0000000000000E+00
(PID.TID 0000.0001) %MON YG_sd                        =   0.0000000000000E+00
(PID.TID 0000.0001) %MON DYC_max                      =   5.0000000000000E+03
(PID.TID 0000.0001) %MON DYC_min                      =   5.0000000000000E+03
(PID.TID 0000.0001) %MON DYC_mean                     =   5.0000000000000E+03
(PID.TID 0000.0001) %MON DYC_sd                       =   0.0000000000000E+00
(PID.TID 0000.0001) %MON DYF_max                      =   5.0000000000000E+03
(PID.TID 0000.0001) %MON DYF_min                      =   5.0000000000000E+03
(PID.TID 0000.0001) %MON DYF_mean                     =   5.0000000000000E+03
(PID.TID 0000.0001) %MON DYF_sd                       =   0.0000000000000E+00
(PID.TID 0000.0001) %MON DYG_max                      =   5.0000000000000E+03
(PID.TID 0000.0001) %MON DYG_min                      =   5.0000000000000E+03
(PID.TID 0000.0001) %MON DYG_mean                     =   5.0000000000000E+03
(PID.TID 0000.0001) %MON DYG_sd                       =   0.0000000000000E+00
(PID.TID 0000.0001) %MON DYU_max                      =   5.0000000000000E+03
(PID.TID 0000.0001) %MON DYU_min                      =   5.0000000000000E+03
(PID.TID 0000.0001) %MON DYU_mean                     =   5.0000000000000E+03
(PID.TID 0000.0001) %MON DYU_sd                       =   0.0000000000000E+00
(PID.TID 0000.0001) %MON RA_max                       =   2.5000000000000E+07
(PID.TID 0000.0001) %MON RA_min                       =   2.5000000000000E+07
(PID.TID 0000.0001) %MON RA_mean                      =   2.5000000000000E+07
(PID.TID 0000.0001) %MON RA_sd                        =   0.0000000000000E+00
(PID.TID 0000.0001) %MON RAW_max                      =   2.5000000000000E+07
(PID.TID 0000.0001) %MON RAW_min                      =   2.5000000000000E+07
(PID.TID 0000.0001) %MON RAW_mean                     =   2.5000000000000E+07
(PID.TID 0000.0001) %MON RAW_sd                       =   0.0000000000000E+00
(PID.TID 0000.0001) %MON RAS_max                      =   2.5000000000000E+07
(PID.TID 0000.0001) %MON RAS_min                      =   2.5000000000000E+07
(PID.TID 0000.0001) %MON RAS_mean                     =   2.5000000000000E+07
(PID.TID 0000.0001) %MON RAS_sd                       =   0.0000000000000E+00
(PID.TID 0000.0001) %MON RAZ_max                      =   2.5000000000000E+07
(PID.TID 0000.0001) %MON RAZ_min                      =   2.5000000000000E+07
(PID.TID 0000.0001) %MON RAZ_mean                     =   2.5000000000000E+07
(PID.TID 0000.0001) %MON RAZ_sd                       =   0.0000000000000E+00
(PID.TID 0000.0001) %MON AngleCS_max                  =   1.0000000000000E+00
(PID.TID 0000.0001) %MON AngleCS_min                  =   1.0000000000000E+00
(PID.TID 0000.0001) %MON AngleCS_mean                 =   1.0000000000000E+00
(PID.TID 0000.0001) %MON AngleCS_sd                   =   0.0000000000000E+00
(PID.TID 0000.0001) %MON AngleSN_max                  =   0.0000000000000E+00
(PID.TID 0000.0001) %MON AngleSN_min                  =   0.0000000000000E+00
(PID.TID 0000.0001) %MON AngleSN_mean                 =   0.0000000000000E+00
(PID.TID 0000.0001) %MON AngleSN_sd                   =   0.0000000000000E+00
(PID.TID 0000.0001) 
(PID.TID 0000.0001) // =======================================================
(PID.TID 0000.0001) // Calendar configuration >>> START <<<
(PID.TID 0000.0001) // =======================================================
(PID.TID 0000.0001) 
(PID.TID 0000.0001) modelstart = /* Start time of the model integration [s] */
(PID.TID 0000.0001)                 0.000000000000000E+00
(PID.TID 0000.0001)     ;
(PID.TID 0000.0001) modelend  = /* End time of the model integration [s] */
(PID.TID 0000.0001)                 3.600000000000000E+04
(PID.TID 0000.0001)     ;
(PID.TID 0000.0001) modelStep = /* Time interval for a model forward step [s] */
(PID.TID 0000.0001)                 3.600000000000000E+03
(PID.TID 0000.0001)     ;
(PID.TID 0000.0001) usingGregorianCalendar= /* Calendar Type: Gregorian Calendar */
(PID.TID 0000.0001)                   T
(PID.TID 0000.0001)     ;
(PID.TID 0000.0001) usingJulianCalendar = /* Calendar Type: Julian Calendar */
(PID.TID 0000.0001)                   F
(PID.TID 0000.0001)     ;
(PID.TID 0000.0001) usingNoLeapYearCal  = /* Calendar Type: without Leap Year */
(PID.TID 0000.0001)                   F
(PID.TID 0000.0001)     ;
(PID.TID 0000.0001) usingModelCalendar  = /* Calendar Type: Model Calendar */
(PID.TID 0000.0001)                   F
(PID.TID 0000.0001)     ;
(PID.TID 0000.0001) modelStartDate YYYYMMDD = /* Model start date YYYY-MM-DD */
(PID.TID 0000.0001)                19790101
(PID.TID 0000.0001)     ;
(PID.TID 0000.0001)   modelStartDate HHMMSS = /* Model start date HH-MM-SS  */
(PID.TID 0000.0001)                       0
(PID.TID 0000.0001)     ;
(PID.TID 0000.0001) modelEndDate   YYYYMMDD = /* Model end date YYYY-MM-DD */
(PID.TID 0000.0001)                19790101
(PID.TID 0000.0001)     ;
(PID.TID 0000.0001)   modelEndDate   HHMMSS = /* Model end date HH-MM-SS  */
(PID.TID 0000.0001)                  100000
(PID.TID 0000.0001)     ;
(PID.TID 0000.0001) intyears = /* Number of calendar years affected by the integration */
(PID.TID 0000.0001)                       1
(PID.TID 0000.0001)     ;
(PID.TID 0000.0001) intmonths= /* Number of calendar months affected by the integration */
(PID.TID 0000.0001)                       1
(PID.TID 0000.0001)     ;
(PID.TID 0000.0001) intdays = /* Number of calendar days affected by the integration */
(PID.TID 0000.0001)                       1
(PID.TID 0000.0001)     ;
(PID.TID 0000.0001) modelIter0 = /* Base timestep number  */
(PID.TID 0000.0001)                       0
(PID.TID 0000.0001)     ;
(PID.TID 0000.0001) modelIterEnd = /* Final timestep number  */
(PID.TID 0000.0001)                      10
(PID.TID 0000.0001)     ;
(PID.TID 0000.0001) modelIntSteps= /* Number of model timesteps  */
(PID.TID 0000.0001)                      10
(PID.TID 0000.0001)     ;
(PID.TID 0000.0001) 
(PID.TID 0000.0001) // =======================================================
(PID.TID 0000.0001) // Calendar configuration  >>> END <<<
(PID.TID 0000.0001) // =======================================================
(PID.TID 0000.0001) 
(PID.TID 0000.0001) GAD_INIT_FIXED: GAD_OlMinSize=  2  0  1
(PID.TID 0000.0001) 
(PID.TID 0000.0001) // ===================================
(PID.TID 0000.0001) // GAD parameters :
(PID.TID 0000.0001) // ===================================
(PID.TID 0000.0001) tempAdvScheme =   /* Temp. Horiz.Advection scheme selector */
(PID.TID 0000.0001)                      30
(PID.TID 0000.0001)     ;
(PID.TID 0000.0001) tempVertAdvScheme =   /* Temp. Vert. Advection scheme selector */
(PID.TID 0000.0001)                      30
(PID.TID 0000.0001)     ;
(PID.TID 0000.0001) tempMultiDimAdvec =   /* use Muti-Dim Advec method for Temp */
(PID.TID 0000.0001)                   F
(PID.TID 0000.0001)     ;
(PID.TID 0000.0001) tempSOM_Advection = /* use 2nd Order Moment Advection for Temp */
(PID.TID 0000.0001)                   F
(PID.TID 0000.0001)     ;
(PID.TID 0000.0001) AdamsBashforthGt = /* apply Adams-Bashforth extrapolation on Gt */
(PID.TID 0000.0001)                   F
(PID.TID 0000.0001)     ;
(PID.TID 0000.0001) AdamsBashforth_T = /* apply Adams-Bashforth extrapolation on Temp */
(PID.TID 0000.0001)                   F
(PID.TID 0000.0001)     ;
(PID.TID 0000.0001) saltAdvScheme =   /* Salt. Horiz.advection scheme selector */
(PID.TID 0000.0001)                      30
(PID.TID 0000.0001)     ;
(PID.TID 0000.0001) saltVertAdvScheme =   /* Salt. Vert. Advection scheme selector */
(PID.TID 0000.0001)                      30
(PID.TID 0000.0001)     ;
(PID.TID 0000.0001) saltMultiDimAdvec =   /* use Muti-Dim Advec method for Salt */
(PID.TID 0000.0001)                   F
(PID.TID 0000.0001)     ;
(PID.TID 0000.0001) saltSOM_Advection = /* use 2nd Order Moment Advection for Salt */
(PID.TID 0000.0001)                   F
(PID.TID 0000.0001)     ;
(PID.TID 0000.0001) AdamsBashforthGs = /* apply Adams-Bashforth extrapolation on Gs */
(PID.TID 0000.0001)                   F
(PID.TID 0000.0001)     ;
(PID.TID 0000.0001) AdamsBashforth_S = /* apply Adams-Bashforth extrapolation on Salt */
(PID.TID 0000.0001)                   F
(PID.TID 0000.0001)     ;
(PID.TID 0000.0001) // ===================================
(PID.TID 0000.0001) 
(PID.TID 0000.0001) // =======================================================
(PID.TID 0000.0001) // External forcing (EXF) configuration >>> START <<<
(PID.TID 0000.0001) // =======================================================
(PID.TID 0000.0001) 
(PID.TID 0000.0001)  EXF general parameters:
(PID.TID 0000.0001) 
(PID.TID 0000.0001) exf_iprec = /* exf file precision */
(PID.TID 0000.0001)                      32
(PID.TID 0000.0001)     ;
(PID.TID 0000.0001) useExfYearlyFields = /* add extension _YEAR to input file names */
(PID.TID 0000.0001)                   F
(PID.TID 0000.0001)     ;
(PID.TID 0000.0001) twoDigitYear = /* use 2-digit year extension */
(PID.TID 0000.0001)                   F
(PID.TID 0000.0001)     ;
(PID.TID 0000.0001) useExfCheckRange = /* check for fields range */
(PID.TID 0000.0001)                   T
(PID.TID 0000.0001)     ;
(PID.TID 0000.0001) exf_debugLev = /* select EXF-debug printing level */
(PID.TID 0000.0001)                       1
(PID.TID 0000.0001)     ;
(PID.TID 0000.0001) exf_monFreq  = /* EXF monitor frequency [ s ] */
(PID.TID 0000.0001)                 1.000000000000000E+00
(PID.TID 0000.0001)     ;
(PID.TID 0000.0001) repeatPeriod = /* period for cycling forcing dataset [ s ] */
(PID.TID 0000.0001)                 3.162240000000000E+07
(PID.TID 0000.0001)     ;
(PID.TID 0000.0001) climTempFreeze= /* Minimum climatological temperature [deg.C] */
(PID.TID 0000.0001)                -1.900000000000000E+00
(PID.TID 0000.0001)     ;
(PID.TID 0000.0001) windStressMax = /* Maximum absolute windstress [ Pa ] */
(PID.TID 0000.0001)                 2.000000000000000E+00
(PID.TID 0000.0001)     ;
(PID.TID 0000.0001) stressIsOnCgrid = /* set u,v_stress on Arakawa C-grid */
(PID.TID 0000.0001)                   F
(PID.TID 0000.0001)     ;
(PID.TID 0000.0001) rotateStressOnAgrid = /* rotate u,v_stress on Arakawa A-grid */
(PID.TID 0000.0001)                   F
(PID.TID 0000.0001)     ;
(PID.TID 0000.0001) cen2kel = /* conversion of deg. Centigrade to Kelvin [K] */
(PID.TID 0000.0001)                 2.731500000000000E+02
(PID.TID 0000.0001)     ;
(PID.TID 0000.0001) gravity_mks= /* gravitational acceleration [m/s^2] */
(PID.TID 0000.0001)                 9.810000000000000E+00
(PID.TID 0000.0001)     ;
(PID.TID 0000.0001) atmrho =  /* mean atmospheric density [kg/m^3] */
(PID.TID 0000.0001)                 1.200000000000000E+00
(PID.TID 0000.0001)     ;
(PID.TID 0000.0001) atmcp =  /* mean atmospheric specific heat [J/kg/K] */
(PID.TID 0000.0001)                 1.005000000000000E+03
(PID.TID 0000.0001)     ;
(PID.TID 0000.0001) flamb =  /* latent heat of evaporation [J/kg] */
(PID.TID 0000.0001)                 2.500000000000000E+06
(PID.TID 0000.0001)     ;
(PID.TID 0000.0001) flami =  /* latent heat of pure-ice melting [J/kg] */
(PID.TID 0000.0001)                 3.340000000000000E+05
(PID.TID 0000.0001)     ;
(PID.TID 0000.0001) cvapor_fac = /* const. for Saturation calculation [?] */
(PID.TID 0000.0001)                 6.403800000000000E+05
(PID.TID 0000.0001)     ;
(PID.TID 0000.0001) cvapor_exp = /* const. for Saturation calculation [?] */
(PID.TID 0000.0001)                 5.107400000000000E+03
(PID.TID 0000.0001)     ;
(PID.TID 0000.0001) cvapor_fac_ice= /* const. for Saturation calculation [?] */
(PID.TID 0000.0001)                 1.163780000000000E+07
(PID.TID 0000.0001)     ;
(PID.TID 0000.0001) cvapor_exp_ice= /* const. for Saturation calculation [?] */
(PID.TID 0000.0001)                 5.897800000000000E+03
(PID.TID 0000.0001)     ;
(PID.TID 0000.0001) humid_fac = /* humidity coef. in virtual temp. [(kg/kg)^-1] */
(PID.TID 0000.0001)                 6.060000000000000E-01
(PID.TID 0000.0001)     ;
(PID.TID 0000.0001) gamma_blk = /* adiabatic lapse rate [?] */
(PID.TID 0000.0001)                 1.000000000000000E-02
(PID.TID 0000.0001)     ;
(PID.TID 0000.0001) saltsat = /* reduction of Qsat over salty water [-] */
(PID.TID 0000.0001)                 9.800000000000000E-01
(PID.TID 0000.0001)     ;
(PID.TID 0000.0001) noNegativeEvap = /* prevent negative Evaporation */
(PID.TID 0000.0001)                   F
(PID.TID 0000.0001)     ;
(PID.TID 0000.0001) sstExtrapol = /* extrapolation coeff from lev. 1 & 2 to surf [-] */
(PID.TID 0000.0001)                 0.000000000000000E+00
(PID.TID 0000.0001)     ;
(PID.TID 0000.0001) cDrag_1 = /* coef used in drag calculation [?] */
(PID.TID 0000.0001)                 2.700000000000000E-03
(PID.TID 0000.0001)     ;
(PID.TID 0000.0001) cDrag_2 = /* coef used in drag calculation [?] */
(PID.TID 0000.0001)                 1.420000000000000E-04
(PID.TID 0000.0001)     ;
(PID.TID 0000.0001) cDrag_3 = /* coef used in drag calculation [?] */
(PID.TID 0000.0001)                 7.640000000000000E-05
(PID.TID 0000.0001)     ;
(PID.TID 0000.0001) cStanton_1 = /* coef used in Stanton number calculation [?] */
(PID.TID 0000.0001)                 3.270000000000000E-02
(PID.TID 0000.0001)     ;
(PID.TID 0000.0001) cStanton_2 = /* coef used in Stanton number calculation [?] */
(PID.TID 0000.0001)                 1.800000000000000E-02
(PID.TID 0000.0001)     ;
(PID.TID 0000.0001) cDalton = /* coef used in Dalton number calculation [?] */
(PID.TID 0000.0001)                 3.460000000000000E-02
(PID.TID 0000.0001)     ;
(PID.TID 0000.0001) exf_scal_BulkCdn= /* Drag coefficient scaling factor [-] */
(PID.TID 0000.0001)                 1.000000000000000E+00
(PID.TID 0000.0001)     ;
(PID.TID 0000.0001) zolmin = /* minimum stability parameter [?] */
(PID.TID 0000.0001)                -1.000000000000000E+02
(PID.TID 0000.0001)     ;
(PID.TID 0000.0001) psim_fac = /* coef used in turbulent fluxes calculation [-] */
(PID.TID 0000.0001)                 5.000000000000000E+00
(PID.TID 0000.0001)     ;
(PID.TID 0000.0001) zref =  /* reference height [ m ] */
(PID.TID 0000.0001)                 1.000000000000000E+01
(PID.TID 0000.0001)     ;
(PID.TID 0000.0001) hu =  /* height of mean wind [ m ] */
(PID.TID 0000.0001)                 1.000000000000000E+01
(PID.TID 0000.0001)     ;
(PID.TID 0000.0001) ht =  /* height of mean temperature [ m ] */
(PID.TID 0000.0001)                 2.000000000000000E+00
(PID.TID 0000.0001)     ;
(PID.TID 0000.0001) hq =  /* height of mean spec.humidity [ m ] */
(PID.TID 0000.0001)                 2.000000000000000E+00
(PID.TID 0000.0001)     ;
(PID.TID 0000.0001) uMin = /* minimum wind speed [m/s] */
(PID.TID 0000.0001)                 5.000000000000000E-01
(PID.TID 0000.0001)     ;
(PID.TID 0000.0001) useStabilityFct_overIce= /* transfert Coeffs over sea-ice depend on stability */
(PID.TID 0000.0001)                   F
(PID.TID 0000.0001)     ;
(PID.TID 0000.0001) exf_iceCd = /* drag coefficient over sea-ice (fixed) [-] */
(PID.TID 0000.0001)                 1.630000000000000E-03
(PID.TID 0000.0001)     ;
(PID.TID 0000.0001) exf_iceCe = /* transfert coeff. over sea-ice, for Evap (fixed) [-] */
(PID.TID 0000.0001)                 1.630000000000000E-03
(PID.TID 0000.0001)     ;
(PID.TID 0000.0001) exf_iceCh = /* transfert coeff. over sea-ice, Sens.Heat.(fixed)[-] */
(PID.TID 0000.0001)                 1.630000000000000E-03
(PID.TID 0000.0001)     ;
(PID.TID 0000.0001) exf_albedo =  /* Sea-water albedo [-] */
(PID.TID 0000.0001)                 1.000000000000000E-01
(PID.TID 0000.0001)     ;
(PID.TID 0000.0001) useExfZenAlbedo = /* Sea-water albedo varies with zenith angle */
(PID.TID 0000.0001)                   F
(PID.TID 0000.0001)     ;
(PID.TID 0000.0001) select_ZenAlbedo = /* Sea-water albedo computation method */
(PID.TID 0000.0001)                       0
(PID.TID 0000.0001)     ;
(PID.TID 0000.0001) useExfZenIncoming = /* compute incoming solar radiation */
(PID.TID 0000.0001)                   F
(PID.TID 0000.0001)     ;
(PID.TID 0000.0001) ocean_emissivity = /* longwave ocean-surface emissivity [-] */
(PID.TID 0000.0001)                 9.700176366843034E-01
(PID.TID 0000.0001)     ;
(PID.TID 0000.0001) ice_emissivity = /* longwave seaice emissivity [-] */
(PID.TID 0000.0001)                 9.500000000000000E-01
(PID.TID 0000.0001)     ;
(PID.TID 0000.0001) snow_emissivity = /* longwave snow  emissivity [-] */
(PID.TID 0000.0001)                 9.500000000000000E-01
(PID.TID 0000.0001)     ;
(PID.TID 0000.0001) 
(PID.TID 0000.0001)  EXF main CPP flags:
(PID.TID 0000.0001) 
(PID.TID 0000.0001) // USE_EXF_INTERPOLATION:          NOT defined
(PID.TID 0000.0001) // ALLOW_ATM_TEMP:                     defined
(PID.TID 0000.0001) // ALLOW_ATM_WIND (useAtmWind):        defined
(PID.TID 0000.0001) // ALLOW_DOWNWARD_RADIATION:           defined
(PID.TID 0000.0001) // ALLOW_BULKFORMULAE:                 defined
(PID.TID 0000.0001) 
(PID.TID 0000.0001)    Zonal wind forcing starts at                   -1317600.
(PID.TID 0000.0001)    Zonal wind forcing period is                    2635200.
(PID.TID 0000.0001)    Zonal wind forcing repeat-cycle is             31622400.
(PID.TID 0000.0001)    Zonal wind forcing is read from file:
(PID.TID 0000.0001)    >> u_1ms_1x1_one_year <<
(PID.TID 0000.0001) 
(PID.TID 0000.0001)    Meridional wind forcing starts at              -1317600.
(PID.TID 0000.0001)    Meridional wind forcing period is               2635200.
(PID.TID 0000.0001)    Meridional wind forcing repeat-cycle is        31622400.
(PID.TID 0000.0001)    Meridional wind forcing is read from file:
(PID.TID 0000.0001)    >> u_1ms_1x1_one_year <<
(PID.TID 0000.0001) 
(PID.TID 0000.0001)    Atmospheric temperature starts at              -1317600.
(PID.TID 0000.0001)    Atmospheric temperature period is                 86400.
(PID.TID 0000.0001)    Atmospheric temperature repeat-cycle is        31622400.
(PID.TID 0000.0001)    Atmospheric temperature is read from file:
(PID.TID 0000.0001)    >> atemp_1x1_one_year <<
(PID.TID 0000.0001) 
(PID.TID 0000.0001) // ALLOW_READ_TURBFLUXES:          NOT defined
(PID.TID 0000.0001) // EXF_READ_EVAP:                  NOT defined
(PID.TID 0000.0001) // ALLOW_RUNOFF:                       defined
(PID.TID 0000.0001) // ALLOW_RUNOFTEMP:                NOT defined
(PID.TID 0000.0001) // ALLOW_SALTFLX:                  NOT defined
(PID.TID 0000.0001) 
(PID.TID 0000.0001)    Downward shortwave flux starts at              -1317600.
(PID.TID 0000.0001)    Downward shortwave flux period is                 86400.
(PID.TID 0000.0001)    Downward shortwave flux repeat-cycle is        31622400.
(PID.TID 0000.0001)    Downward shortwave flux is read from file:
(PID.TID 0000.0001)    >> dswrf_1x1_one_year <<
(PID.TID 0000.0001) 
(PID.TID 0000.0001)    Downward longwave flux starts at               -1317600.
(PID.TID 0000.0001)    Downward longwave flux period is                  86400.
(PID.TID 0000.0001)    Downward longwave flux repeat-cycle is         31622400.
(PID.TID 0000.0001)    Downward longwave flux is read from file:
(PID.TID 0000.0001)    >> dlwrf_1x1_one_year <<
(PID.TID 0000.0001) 
(PID.TID 0000.0001) // =======================================================
(PID.TID 0000.0001) // External forcing (EXF) climatology configuration :
(PID.TID 0000.0001) // =======================================================
(PID.TID 0000.0001) 
(PID.TID 0000.0001) // ALLOW_CLIMSST_RELAXATION:           defined
(PID.TID 0000.0001)    climsst relaxation is NOT used
(PID.TID 0000.0001) 
(PID.TID 0000.0001) // ALLOW_CLIMSSS_RELAXATION:           defined
(PID.TID 0000.0001)    climsss relaxation is NOT used
(PID.TID 0000.0001) 
(PID.TID 0000.0001) // =======================================================
(PID.TID 0000.0001) // External forcing (EXF) configuration  >>> END <<<
(PID.TID 0000.0001) // =======================================================
(PID.TID 0000.0001) 
(PID.TID 0000.0001)  OPEN_COPY_DATA_FILE: opening file data.err
(PID.TID 0000.0001) // =======================================================
(PID.TID 0000.0001) // Parameter file "data.err"
(PID.TID 0000.0001) // =======================================================
(PID.TID 0000.0001) > 0.25
(PID.TID 0000.0001) >    0.5201    0.2676
(PID.TID 0000.0001) >    0.5199    0.2224
(PID.TID 0000.0001) >    0.5201    0.1942
(PID.TID 0000.0001) >    0.5142    0.1751
(PID.TID 0000.0001) >    0.4917    0.1452
(PID.TID 0000.0001) >    0.4707    0.1223
(PID.TID 0000.0001) >    0.4324    0.1125
(PID.TID 0000.0001) >    0.3782    0.1078
(PID.TID 0000.0001) >    0.3103    0.0884
(PID.TID 0000.0001) >    0.2435    0.0785
(PID.TID 0000.0001) >    0.1994    0.0777
(PID.TID 0000.0001) >    0.1582    0.0702
(PID.TID 0000.0001) >    0.1144    0.0710
(PID.TID 0000.0001) >    0.0905    0.0599
(PID.TID 0000.0001) >    0.0659    0.0510
(PID.TID 0000.0001) >    0.0602    0.0408
(PID.TID 0000.0001) >    0.0508    0.0399
(PID.TID 0000.0001) >    0.0498    0.0314
(PID.TID 0000.0001) >    0.0501    0.0205
(PID.TID 0000.0001) >    0.0500    0.0199
(PID.TID 0000.0001) >    0.0500    0.0200
(PID.TID 0000.0001) >    0.0500    0.0200
(PID.TID 0000.0001) >    0.0500    0.0200
(PID.TID 0000.0001) 
(PID.TID 0000.0001) 
(PID.TID 0000.0001) // =======================================================
(PID.TID 0000.0001) // ECCO configuration >>> START <<<
(PID.TID 0000.0001) // =======================================================
(PID.TID 0000.0001) 
(PID.TID 0000.0001) ECCO version:              0.1.0
(PID.TID 0000.0001) 
(PID.TID 0000.0001) Packages used:
(PID.TID 0000.0001) Calendar version:          0.1.4
(PID.TID 0000.0001) External Forcing version:  0.1.1
(PID.TID 0000.0001) Adjoint support version:   0.1.0
(PID.TID 0000.0001) Optimization version:      2.1.0
(PID.TID 0000.0001) 
(PID.TID 0000.0001) // ALLOW_ECCO_FORWARD_RUN:               defined
(PID.TID 0000.0001) // ALLOW_ECCO_DIAGNOSTIC_RUN:        NOT defined
(PID.TID 0000.0001) // ALLOW_ADJOINT_RUN:                NOT defined
(PID.TID 0000.0001) // ALLOW_GRADIENT_CHECK:             NOT defined
(PID.TID 0000.0001) // ALLOW_ECCO_OPTIMIZATION:          NOT defined
(PID.TID 0000.0001) // ALLOW_NO_DYNAMICS:                NOT defined
(PID.TID 0000.0001) // ALLOW_YMDS_TREE:                  NOT defined
(PID.TID 0000.0001) // ALLOW_STEPPING_CALL:              NOT defined
(PID.TID 0000.0001) // ALLOW_NONDIMENSIONAL_CONTROL_IO:      defined
(PID.TID 0000.0001) // ALLOW_EGM96_ERROR_COV:            NOT defined
(PID.TID 0000.0001) // ALLOW_READ_EGM_DATA:              NOT defined
(PID.TID 0000.0001) // ALLOW_SCAT_COST_CONTRIBUTION:     NOT defined
(PID.TID 0000.0001) // ALLOW_HFLUX_COST_CONTRIBUTION:    NOT defined
(PID.TID 0000.0001) // ALLOW_SFLUX_COST_CONTRIBUTION:    NOT defined
(PID.TID 0000.0001) // ALLOW_USTRESS_COST_CONTRIBUTION:  NOT defined
(PID.TID 0000.0001) // ALLOW_VSTRESS_COST_CONTRIBUTION:  NOT defined
(PID.TID 0000.0001) // ALLOW_SIGMAR_COST_CONTRIBUTION:   NOT defined
(PID.TID 0000.0001) // ALLOW_THETA_COST_CONTRIBUTION:        defined
(PID.TID 0000.0001) // ALLOW_SST_COST_CONTRIBUTION:      NOT defined
(PID.TID 0000.0001) // ALLOW_SALT_COST_CONTRIBUTION:         defined
(PID.TID 0000.0001) // ALLOW_SSH_COST_CONTRIBUTION:      NOT defined
(PID.TID 0000.0001) // APPLY_HFLUX_COST_CONTRIBUTION:    NOT defined
(PID.TID 0000.0001) // APPLY_SFLUX_COST_CONTRIBUTION:    NOT defined
(PID.TID 0000.0001) // APPLY_USTRESS_COST_CONTRIBUTION:  NOT defined
(PID.TID 0000.0001) // APPLY_VSTRESS_COST_CONTRIBUTION:  NOT defined
(PID.TID 0000.0001) // APPLY_THETA_COST_CONTRIBUTION:    NOT defined
(PID.TID 0000.0001) // APPLY_SALT_COST_CONTRIBUTION:     NOT defined
(PID.TID 0000.0001) // APPLY_SST_COST_CONTRIBUTION:      NOT defined
(PID.TID 0000.0001) // APPLY_SSH_COST_CONTRIBUTION:      NOT defined
(PID.TID 0000.0001) // ALLOW_SPH_PROJECTION:             NOT defined
(PID.TID 0000.0001) // ALLOW_THETA0_CONTROL:                 defined
(PID.TID 0000.0001) // ALLOW_SALT0_CONTROL:                  defined
(PID.TID 0000.0001) // ALLOW_ETAN0_CONTROL:              NOT defined
(PID.TID 0000.0001) // ALLOW_UVEL0_CONTROL:              NOT defined
(PID.TID 0000.0001) // ALLOW_VVEL0_CONTROL:              NOT defined
(PID.TID 0000.0001) // ALLOW_HFLUX_CONTROL:              NOT defined
(PID.TID 0000.0001) // ALLOW_SFLUX_CONTROL:              NOT defined
(PID.TID 0000.0001) // ALLOW_USTRESS_CONTROL:            NOT defined
(PID.TID 0000.0001) // ALLOW_VSTRESS_CONTROL:            NOT defined
(PID.TID 0000.0001) // ALLOW_SWFLUX_CONTROL:             NOT defined
(PID.TID 0000.0001) // ALLOW_SWDOWN_CONTROL:                 defined
(PID.TID 0000.0001) // ALLOW_ATEMP_CONTROL:                  defined
(PID.TID 0000.0001) // ALLOW_AQH_CONTROL:                    defined
(PID.TID 0000.0001) // ALLOW_UWIND_CONTROL:                  defined
(PID.TID 0000.0001) // ALLOW_VWIND_CONTROL:                  defined
(PID.TID 0000.0001) // ALLOW_PRECIP_CONTROL:                 defined
(PID.TID 0000.0001) // ALLOW_AUTODIFF_TAMC:                  defined
(PID.TID 0000.0001) // ALLOW_TAMC_CHECKPOINTING:             defined
(PID.TID 0000.0001) 
(PID.TID 0000.0001)  Generation of adjoint code for the ECCO setup is enabled
(PID.TID 0000.0001) 
(PID.TID 0000.0001) // =======================================================
(PID.TID 0000.0001) // ECCO configuration  >>> END <<<
(PID.TID 0000.0001) // =======================================================
(PID.TID 0000.0001) 
(PID.TID 0000.0001) 
(PID.TID 0000.0001) // =======================================================
(PID.TID 0000.0001) // ECCO cost function configuration  >>> START <<<
(PID.TID 0000.0001) // =======================================================
(PID.TID 0000.0001) 
(PID.TID 0000.0001)   Multipliers for the indivdual cost function contributions:
(PID.TID 0000.0001) 
(PID.TID 0000.0001)   Net heat flux:                 0.000E+00
(PID.TID 0000.0001)   Salt flux:                     0.000E+00
(PID.TID 0000.0001)   Zonal wind stress:             0.000E+00
(PID.TID 0000.0001)   Meridional wind stress:        0.000E+00
(PID.TID 0000.0001)   Mean sea surface height:       0.000E+00
(PID.TID 0000.0001)   Sea surface height anomalies:  0.000E+00
(PID.TID 0000.0001)   Temperature Lev.:              0.000E+00
(PID.TID 0000.0001)   Salinity Lev.:                 0.000E+00
(PID.TID 0000.0001)   Temperature ini.:              0.000E+00
(PID.TID 0000.0001)   Salinity ini.:                 0.000E+00
(PID.TID 0000.0001)   Sea level ini.:                0.000E+00
(PID.TID 0000.0001)   zonal velocity ini.:           0.000E+00
(PID.TID 0000.0001)   merid velocity ini.:           0.000E+00
(PID.TID 0000.0001)   TMI Sea surface temperature:   0.000E+00
(PID.TID 0000.0001)   Sea surface temperature:       0.000E+00
(PID.TID 0000.0001)   Sea surface salinity:         0.000E+00
(PID.TID 0000.0001)   CTD temperature:               0.000E+00
(PID.TID 0000.0001)   CTD salinity:                  0.000E+00
(PID.TID 0000.0001)   CTD clim temperature:          0.000E+00
(PID.TID 0000.0001)   CTD clim salinity:             0.000E+00
(PID.TID 0000.0001)   XBT Temperature:               0.000E+00
(PID.TID 0000.0001)   ARGO Temperature:               0.000E+00
(PID.TID 0000.0001)   ARGO Salt:                      0.000E+00
(PID.TID 0000.0001)   drifter velocities:            0.000E+00
(PID.TID 0000.0001)   drift between last and 1st year: 0.000E+00
(PID.TID 0000.0001)   drift between last and 1st year: 0.000E+00
(PID.TID 0000.0001)   Ageostrophic bdy flow:         0.000E+00
(PID.TID 0000.0001)   OB North:                      0.000E+00
(PID.TID 0000.0001)   OB South:                      0.000E+00
(PID.TID 0000.0001)   OB West:                       0.000E+00
(PID.TID 0000.0001)   OB East:                       0.000E+00
(PID.TID 0000.0001) 
(PID.TID 0000.0001) 
(PID.TID 0000.0001)   Temperature data are read from: t_ref_1x1x23x13
(PID.TID 0000.0001)   Salinity data are read from:    s_ref_1x1x23x13
(PID.TID 0000.0001) // =======================================================
(PID.TID 0000.0001) // Seaice configuration (SEAICE_PARM01) >>> START <<<
(PID.TID 0000.0001) // =======================================================
(PID.TID 0000.0001) 
(PID.TID 0000.0001)    Seaice time stepping configuration   > START <
(PID.TID 0000.0001)    ----------------------------------------------
(PID.TID 0000.0001) SEAICE_deltaTtherm= /* thermodynamic timestep */
(PID.TID 0000.0001)                 3.600000000000000E+03
(PID.TID 0000.0001)     ;
(PID.TID 0000.0001) SEAICE_deltaTdyn  = /* dynamic timestep */
(PID.TID 0000.0001)                 3.600000000000000E+03
(PID.TID 0000.0001)     ;
(PID.TID 0000.0001) SEAICE_deltaTevp  = /* EVP timestep */
(PID.TID 0000.0001)                 1.234567000000000E+05
(PID.TID 0000.0001)     ;
(PID.TID 0000.0001) SEAICEuseBDF2  = /* use backw. differencing for mom. eq. */
(PID.TID 0000.0001)                   F
(PID.TID 0000.0001)     ;
(PID.TID 0000.0001) SEAICEupdateOceanStress= /* update Ocean surf. stress */
(PID.TID 0000.0001)                   T
(PID.TID 0000.0001)     ;
(PID.TID 0000.0001) SEAICErestoreUnderIce  = /* restore T and S under ice */
(PID.TID 0000.0001)                   F
(PID.TID 0000.0001)     ;
(PID.TID 0000.0001) 
(PID.TID 0000.0001)    Seaice dynamics configuration   > START <
(PID.TID 0000.0001)    ------------------------------------------
(PID.TID 0000.0001) SEAICEuseDYNAMICS = /* use dynamics */
(PID.TID 0000.0001)                   F
(PID.TID 0000.0001)     ;
(PID.TID 0000.0001)    pkg/seaice dynamics is OFF
(PID.TID 0000.0001) 
(PID.TID 0000.0001)    Seaice advection diffusion config,   > START <
(PID.TID 0000.0001)    -----------------------------------------------
(PID.TID 0000.0001) SEAICEmomAdvection = /* advect sea ice momentum */
(PID.TID 0000.0001)                   F
(PID.TID 0000.0001)     ;
(PID.TID 0000.0001) SEAICEadvHeff = /* advect effective ice thickness */
(PID.TID 0000.0001)                   T
(PID.TID 0000.0001)     ;
(PID.TID 0000.0001) SEAICEadvArea = /* advect fractional ice area */
(PID.TID 0000.0001)                   T
(PID.TID 0000.0001)     ;
(PID.TID 0000.0001) SEAICEadvSnow = /* advect snow layer together with ice */
(PID.TID 0000.0001)                   T
(PID.TID 0000.0001)     ;
(PID.TID 0000.0001) SEAICEadvSalt = /* advect salinity together with ice */
(PID.TID 0000.0001)                   F
(PID.TID 0000.0001)     ;
(PID.TID 0000.0001) SEAICEadvScheme   = /* advection scheme for ice */
(PID.TID 0000.0001)                       2
(PID.TID 0000.0001)     ;
(PID.TID 0000.0001) SEAICEuseFluxForm = /* advection in FV flux form */
(PID.TID 0000.0001)                   T
(PID.TID 0000.0001)     ;
(PID.TID 0000.0001) SEAICEadvSchArea   = /* advection scheme for area */
(PID.TID 0000.0001)                       2
(PID.TID 0000.0001)     ;
(PID.TID 0000.0001) SEAICEadvSchHeff   = /* advection scheme for thickness */
(PID.TID 0000.0001)                       2
(PID.TID 0000.0001)     ;
(PID.TID 0000.0001) SEAICEadvSchSnow   = /* advection scheme for snow */
(PID.TID 0000.0001)                       2
(PID.TID 0000.0001)     ;
(PID.TID 0000.0001) SEAICEdiffKhArea   = /* diffusivity (m^2/s) for area */
(PID.TID 0000.0001)                 0.000000000000000E+00
(PID.TID 0000.0001)     ;
(PID.TID 0000.0001) SEAICEdiffKhHeff   = /* diffusivity (m^2/s) for heff */
(PID.TID 0000.0001)                 0.000000000000000E+00
(PID.TID 0000.0001)     ;
(PID.TID 0000.0001) SEAICEdiffKhSnow   = /* diffusivity (m^2/s) for snow */
(PID.TID 0000.0001)                 0.000000000000000E+00
(PID.TID 0000.0001)     ;
(PID.TID 0000.0001) DIFF1             = /* parameter used in advect.F [m/s] */
(PID.TID 0000.0001)                 0.000000000000000E+00
(PID.TID 0000.0001)     ;
(PID.TID 0000.0001) 
(PID.TID 0000.0001)    Seaice thermodynamics configuration   > START <
(PID.TID 0000.0001)    -----------------------------------------------
(PID.TID 0000.0001) SEAICE_rhoIce     = /* density of sea ice (kg/m3) */
(PID.TID 0000.0001)                 9.100000000000000E+02
(PID.TID 0000.0001)     ;
(PID.TID 0000.0001) SEAICE_rhoSnow    = /* density of snow (kg/m3) */
(PID.TID 0000.0001)                 3.300000000000000E+02
(PID.TID 0000.0001)     ;
(PID.TID 0000.0001) SEAICE_rhoAir     = /* density of air (kg/m3) */
(PID.TID 0000.0001)                 1.200000000000000E+00
(PID.TID 0000.0001)     ;
(PID.TID 0000.0001) usePW79thermodynamics  = /* default 0-layer TD */
(PID.TID 0000.0001)                   T
(PID.TID 0000.0001)     ;
(PID.TID 0000.0001) SEAICE_lhEvap     = /* latent heat of evaporation */
(PID.TID 0000.0001)                 2.500000000000000E+06
(PID.TID 0000.0001)     ;
(PID.TID 0000.0001) SEAICE_lhFusion   = /* latent heat of fusion */
(PID.TID 0000.0001)                 3.340000000000000E+05
(PID.TID 0000.0001)     ;
(PID.TID 0000.0001) SEAICE_mcPheePiston = /* turbulent flux "piston velocity" a la McPhee (m/s) */
(PID.TID 0000.0001)                 8.749999999999999E-04
(PID.TID 0000.0001)     ;
(PID.TID 0000.0001) SEAICE_mcPheeTaper = /* tapering of turbulent flux (0.< <1.) for AREA=1. */
(PID.TID 0000.0001)                 9.200000000000000E-01
(PID.TID 0000.0001)     ;
(PID.TID 0000.0001) SEAICE_mcPheeStepFunc = /* replace linear tapering with step funct. */
(PID.TID 0000.0001)                   F
(PID.TID 0000.0001)     ;
(PID.TID 0000.0001) SEAICE_frazilFrac = /* frazil (T<tempFrz) to seaice conversion rate (0.< <1.) */
(PID.TID 0000.0001)                 0.000000000000000E+00
(PID.TID 0000.0001)     ;
(PID.TID 0000.0001) SEAICE_tempFrz0   = /* freezing temp. of sea water (intercept) */
(PID.TID 0000.0001)                -1.960000000000000E+00
(PID.TID 0000.0001)     ;
(PID.TID 0000.0001) SEAICE_dTempFrz_dS= /* freezing temp. of sea water (slope) */
(PID.TID 0000.0001)                 0.000000000000000E+00
(PID.TID 0000.0001)     ;
(PID.TID 0000.0001) SEAICE_growMeltByConv  = /* grow,melt by vert. conv. */
(PID.TID 0000.0001)                   F
(PID.TID 0000.0001)     ;
(PID.TID 0000.0001) SEAICE_doOpenWaterGrowth = /* grow by open water */
(PID.TID 0000.0001)                   T
(PID.TID 0000.0001)     ;
(PID.TID 0000.0001) SEAICE_doOpenWaterMelt = /* melt by open water */
(PID.TID 0000.0001)                   F
(PID.TID 0000.0001)     ;
(PID.TID 0000.0001) SEAICE_areaGainFormula = /* ice cover gain formula (1,2)*/
(PID.TID 0000.0001)                       1
(PID.TID 0000.0001)     1=from growth by ATM
(PID.TID 0000.0001)     2=from predicted growth by ATM
(PID.TID 0000.0001)     ;
(PID.TID 0000.0001) SEAICE_areaLossFormula = /* ice cover loss formula (1,2)*/
(PID.TID 0000.0001)                       1
(PID.TID 0000.0001)     1=from all but only melt conributions by ATM and OCN
(PID.TID 0000.0001)     2=from net melt-grow>0 by ATM and OCN
(PID.TID 0000.0001)     3=from predicted melt by ATM
(PID.TID 0000.0001)     ;
(PID.TID 0000.0001) HO                = /* nominal thickness of new ice */
(PID.TID 0000.0001)                 5.000000000000000E-01
(PID.TID 0000.0001)     ;
(PID.TID 0000.0001) HO_south               = /* Southern Ocean HO */
(PID.TID 0000.0001)                 5.000000000000000E-01
(PID.TID 0000.0001)     ;
(PID.TID 0000.0001) SEAICE_area_max        = /* set to les than 1. to mimic open leads */
(PID.TID 0000.0001)                 1.000000000000000E+00
(PID.TID 0000.0001)     ;
(PID.TID 0000.0001)    Sea ice has a variable salinity such that
(PID.TID 0000.0001) SEAICE_saltFrac = /* fraction of ocn salinity in new ice */
(PID.TID 0000.0001)                 3.000000000000000E-01
(PID.TID 0000.0001)     ;
(PID.TID 0000.0001) SEAICE_salinityTracer = /* test SITR varia. salinity */
(PID.TID 0000.0001)                   F
(PID.TID 0000.0001)     ;
(PID.TID 0000.0001) SEAICEuseFlooding = /* turn submerged snow into ice */
(PID.TID 0000.0001)                   T
(PID.TID 0000.0001)     ;
(PID.TID 0000.0001) 
(PID.TID 0000.0001)    Seaice air-sea fluxes configuration,   > START <
(PID.TID 0000.0001)    -----------------------------------------------
(PID.TID 0000.0001) SEAICEheatConsFix  = /* accound for ocn<->seaice advect. heat flux */
(PID.TID 0000.0001)                   F
(PID.TID 0000.0001)     ;
(PID.TID 0000.0001) SEAICE_multDim    = /* number of ice categories (1 or 7) */
(PID.TID 0000.0001)                       1
(PID.TID 0000.0001)     ;
(PID.TID 0000.0001) SEAICE_PDF        = /* sea-ice distribution (-) */
(PID.TID 0000.0001)                 1.000000000000000E+00,      /* K =  1 */
(PID.TID 0000.0001)     6 @  0.000000000000000E+00              /* K =  2:  7 */
(PID.TID 0000.0001)     ;
(PID.TID 0000.0001) IMAX_TICE         = /* iterations for ice surface temp */
(PID.TID 0000.0001)                       6
(PID.TID 0000.0001)     ;
(PID.TID 0000.0001) postSolvTempIter= /* flux calculation after surf. temp iter */
(PID.TID 0000.0001)                       2
(PID.TID 0000.0001)     ;
(PID.TID 0000.0001) SEAICE_dryIceAlb  = /* winter albedo */
(PID.TID 0000.0001)                 7.500000000000000E-01
(PID.TID 0000.0001)     ;
(PID.TID 0000.0001) SEAICE_wetIceAlb  = /* summer albedo */
(PID.TID 0000.0001)                 6.600000000000000E-01
(PID.TID 0000.0001)     ;
(PID.TID 0000.0001) SEAICE_drySnowAlb = /* dry snow albedo */
(PID.TID 0000.0001)                 8.400000000000000E-01
(PID.TID 0000.0001)     ;
(PID.TID 0000.0001) SEAICE_wetSnowAlb = /* wet snow albedo */
(PID.TID 0000.0001)                 7.000000000000000E-01
(PID.TID 0000.0001)     ;
(PID.TID 0000.0001) SEAICE_dryIceAlb_south = /* Southern Ocean dryIceAlb */
(PID.TID 0000.0001)                 7.500000000000000E-01
(PID.TID 0000.0001)     ;
(PID.TID 0000.0001) SEAICE_wetIceAlb_south = /* Southern Ocean wetIceAlb */
(PID.TID 0000.0001)                 6.600000000000000E-01
(PID.TID 0000.0001)     ;
(PID.TID 0000.0001) SEAICE_drySnowAlb_south= /* Southern Ocean drySnowAlb */
(PID.TID 0000.0001)                 8.400000000000000E-01
(PID.TID 0000.0001)     ;
(PID.TID 0000.0001) SEAICE_wetSnowAlb_south= /* Southern Ocean wetSnowAlb */
(PID.TID 0000.0001)                 7.000000000000000E-01
(PID.TID 0000.0001)     ;
(PID.TID 0000.0001) SEAICE_wetAlbTemp= /* Temp (o.C) threshold for wet-albedo */
(PID.TID 0000.0001)                 0.000000000000000E+00
(PID.TID 0000.0001)     ;
(PID.TID 0000.0001) SEAICE_snow_emiss = /* snow emissivity */
(PID.TID 0000.0001)                 9.700176366843034E-01
(PID.TID 0000.0001)     ;
(PID.TID 0000.0001) SEAICE_ice_emiss = /* seaice emissivity */
(PID.TID 0000.0001)                 9.700176366843034E-01
(PID.TID 0000.0001)     ;
(PID.TID 0000.0001) SEAICE_cpAir      = /* heat capacity of air */
(PID.TID 0000.0001)                 1.005000000000000E+03
(PID.TID 0000.0001)     ;
(PID.TID 0000.0001) SEAICE_dalton     = /* constant dalton number */
(PID.TID 0000.0001)                 1.750000000000000E-03
(PID.TID 0000.0001)     ;
(PID.TID 0000.0001) SEAICE_iceConduct = /* sea-ice conductivity */
(PID.TID 0000.0001)                 2.165600000000000E+00
(PID.TID 0000.0001)     ;
(PID.TID 0000.0001) SEAICE_snowConduct= /* snow conductivity */
(PID.TID 0000.0001)                 3.100000000000000E-01
(PID.TID 0000.0001)     ;
(PID.TID 0000.0001) SEAICE_snowThick  = /* cutoff snow thickness (for albedo) */
(PID.TID 0000.0001)                 0.000000000000000E+00
(PID.TID 0000.0001)     ;
(PID.TID 0000.0001) SEAICE_shortwave  = /* penetration shortwave radiation */
(PID.TID 0000.0001)                 3.000000000000000E-01
(PID.TID 0000.0001)     ;
(PID.TID 0000.0001) useMaykutSatVapPoly = /* use Maykut Polynomial for Sat.Vap.Pr */
(PID.TID 0000.0001)                   F
(PID.TID 0000.0001)     ;
(PID.TID 0000.0001) MIN_ATEMP         = /* minimum air temperature */
(PID.TID 0000.0001)                -5.000000000000000E+01
(PID.TID 0000.0001)     ;
(PID.TID 0000.0001) MIN_LWDOWN        = /* minimum downward longwave */
(PID.TID 0000.0001)                 6.000000000000000E+01
(PID.TID 0000.0001)     ;
(PID.TID 0000.0001) MIN_TICE          = /* minimum ice temperature */
(PID.TID 0000.0001)                -5.000000000000000E+01
(PID.TID 0000.0001)     ;
(PID.TID 0000.0001) 
(PID.TID 0000.0001)    Seaice initialization and IO config.,   > START <
(PID.TID 0000.0001)    -------------------------------------------------
(PID.TID 0000.0001) SEAICE_initialHEFF= /* initial sea-ice thickness */
(PID.TID 0000.0001)                 0.000000000000000E+00
(PID.TID 0000.0001)     ;
(PID.TID 0000.0001) AreaFile = /* Initial ice concentration File */
(PID.TID 0000.0001)               ''
(PID.TID 0000.0001)     ;
(PID.TID 0000.0001) HeffFile = /* Initial effective ice thickness File */
(PID.TID 0000.0001)               ''
(PID.TID 0000.0001)     ;
(PID.TID 0000.0001) HsnowFile = /* Initial snow thickness File */
(PID.TID 0000.0001)               'snow_0m_1x1'
(PID.TID 0000.0001)     ;
(PID.TID 0000.0001) HsaltFile = /* Initial HSALT File */
(PID.TID 0000.0001)               ''
(PID.TID 0000.0001)     ;
(PID.TID 0000.0001) uIceFile = /* Initial U-ice velocity File */
(PID.TID 0000.0001)               ''
(PID.TID 0000.0001)     ;
(PID.TID 0000.0001) vIceFile = /* Initial V-ice velocity File */
(PID.TID 0000.0001)               ''
(PID.TID 0000.0001)     ;
(PID.TID 0000.0001) SEAICEwriteState  = /* write sea ice state to file */
(PID.TID 0000.0001)                   T
(PID.TID 0000.0001)     ;
(PID.TID 0000.0001) SEAICE_monFreq  = /* monitor frequency */
(PID.TID 0000.0001)                 1.000000000000000E+00
(PID.TID 0000.0001)     ;
(PID.TID 0000.0001) SEAICE_dumpFreq   = /* dump frequency */
(PID.TID 0000.0001)                 0.000000000000000E+00
(PID.TID 0000.0001)     ;
(PID.TID 0000.0001) SEAICE_taveFreq   = /* time-averaging frequency */
(PID.TID 0000.0001)                 0.000000000000000E+00
(PID.TID 0000.0001)     ;
(PID.TID 0000.0001) SEAICE_mon_stdio  = /* write monitor to std-outp */
(PID.TID 0000.0001)                   T
(PID.TID 0000.0001)     ;
(PID.TID 0000.0001) SEAICE_dump_mdsio = /* write snap-shot   using MDSIO */
(PID.TID 0000.0001)                   T
(PID.TID 0000.0001)     ;
(PID.TID 0000.0001) SEAICE_tave_mdsio = /* write TimeAverage using MDSIO */
(PID.TID 0000.0001)                   T
(PID.TID 0000.0001)     ;
(PID.TID 0000.0001) 
(PID.TID 0000.0001)    Seaice regularization numbers,   > START <
(PID.TID 0000.0001)    -----------------------------------------------
(PID.TID 0000.0001) SEAICE_deltaMin   = /* reduce singularities in Delta */
(PID.TID 0000.0001)                 1.000000000000000E-08
(PID.TID 0000.0001)     ;
(PID.TID 0000.0001) SEAICE_EPS        = /* small number */
(PID.TID 0000.0001)                 1.000000000000000E-08
(PID.TID 0000.0001)     ;
(PID.TID 0000.0001) SEAICE_EPS_SQ     = /* small number squared */
(PID.TID 0000.0001)                 1.000000000000000E-16
(PID.TID 0000.0001)     ;
(PID.TID 0000.0001) SEAICE_area_reg   = /* reduce derivative singularities */
(PID.TID 0000.0001)                 1.500000000000000E-01
(PID.TID 0000.0001)     ;
(PID.TID 0000.0001) SEAICE_hice_reg   = /* reduce derivative singularities */
(PID.TID 0000.0001)                 1.000000000000000E-01
(PID.TID 0000.0001)     ;
(PID.TID 0000.0001) SEAICE_area_floor = /* reduce derivative singularities */
(PID.TID 0000.0001)                 1.000000000000000E-05
(PID.TID 0000.0001)     ;
(PID.TID 0000.0001) 
(PID.TID 0000.0001) // =======================================================
(PID.TID 0000.0001) // Seaice configuration (SEAICE_PARM01) >>> END <<<
(PID.TID 0000.0001) // =======================================================
(PID.TID 0000.0001) 
(PID.TID 0000.0001) ctrl-wet 1:    nvarlength =           64
(PID.TID 0000.0001) ctrl-wet 2: surface wet C =            1
(PID.TID 0000.0001) ctrl-wet 3: surface wet W =            1
(PID.TID 0000.0001) ctrl-wet 4: surface wet S =            1
(PID.TID 0000.0001) ctrl-wet 4a:surface wet V =            0
(PID.TID 0000.0001) ctrl-wet 5: 3D wet points =           23
(PID.TID 0000.0001) ctrl-wet 6: no recs for i =     1           1
(PID.TID 0000.0001) ctrl-wet 6: no recs for i =     2           1
(PID.TID 0000.0001) ctrl-wet 6: no recs for i =     3           0
(PID.TID 0000.0001) ctrl-wet 6: no recs for i =     4           0
(PID.TID 0000.0001) ctrl-wet 6: no recs for i =     5           0
(PID.TID 0000.0001) ctrl-wet 6: no recs for i =     6           0
(PID.TID 0000.0001) ctrl-wet 6: no recs for i =     7           2
(PID.TID 0000.0001) ctrl-wet 6: no recs for i =     8           2
(PID.TID 0000.0001) ctrl-wet 6: no recs for i =     9           2
(PID.TID 0000.0001) ctrl-wet 6: no recs for i =    10           2
(PID.TID 0000.0001) ctrl-wet 6: no recs for i =    11           0
(PID.TID 0000.0001) ctrl-wet 6: no recs for i =    12           0
(PID.TID 0000.0001) ctrl-wet 6: no recs for i =    13           0
(PID.TID 0000.0001) ctrl-wet 6: no recs for i =    14           0
(PID.TID 0000.0001) ctrl-wet 6: no recs for i =    15           0
(PID.TID 0000.0001) ctrl-wet 6: no recs for i =    16           0
(PID.TID 0000.0001) ctrl-wet 6: no recs for i =    17           0
(PID.TID 0000.0001) ctrl-wet 6: no recs for i =    18           0
(PID.TID 0000.0001) ctrl-wet 6: no recs for i =    19           0
(PID.TID 0000.0001) ctrl-wet 6: no recs for i =    20           0
(PID.TID 0000.0001) ctrl-wet 6: no recs for i =    21           0
(PID.TID 0000.0001) ctrl-wet 6: no recs for i =    22           0
(PID.TID 0000.0001) ctrl-wet 6: no recs for i =    23           0
(PID.TID 0000.0001) ctrl-wet 6: no recs for i =    24           0
(PID.TID 0000.0001) ctrl-wet 6: no recs for i =    25           0
(PID.TID 0000.0001) ctrl-wet 6: no recs for i =    26           0
(PID.TID 0000.0001) ctrl-wet 6: no recs for i =    27           0
(PID.TID 0000.0001) ctrl-wet 6: no recs for i =    28           0
(PID.TID 0000.0001) ctrl-wet 6: no recs for i =    29           0
(PID.TID 0000.0001) ctrl-wet 6: no recs for i =    30           0
(PID.TID 0000.0001) ctrl-wet 6: no recs for i =    31           0
(PID.TID 0000.0001) ctrl-wet 6: no recs for i =    32           2
(PID.TID 0000.0001) ctrl-wet 6: no recs for i =    33           0
(PID.TID 0000.0001) ctrl-wet 6: no recs for i =    34           2
(PID.TID 0000.0001) ctrl-wet 6: no recs for i =    35           0
(PID.TID 0000.0001) ctrl-wet 6: no recs for i =    36           2
(PID.TID 0000.0001) ctrl-wet 6: no recs for i =    37           0
(PID.TID 0000.0001) ctrl-wet 6: no recs for i =    38           2
(PID.TID 0000.0001) ctrl-wet 6: no recs for i =    39           2
(PID.TID 0000.0001) ctrl-wet 6: no recs for i =    40           0
(PID.TID 0000.0001) ctrl-wet 6: no recs for i =    41           0
(PID.TID 0000.0001) ctrl-wet 6: no recs for i =    42           0
(PID.TID 0000.0001) ctrl-wet 6: no recs for i =    43           0
(PID.TID 0000.0001) ctrl-wet 6: no recs for i =    44           0
(PID.TID 0000.0001) ctrl-wet 6: no recs for i =    45           0
(PID.TID 0000.0001) ctrl-wet 6: no recs for i =    46           0
(PID.TID 0000.0001) ctrl-wet 6: no recs for i =    47           0
(PID.TID 0000.0001) ctrl-wet 6: no recs for i =    48           0
(PID.TID 0000.0001) ctrl-wet 6: no recs for i =    49           0
(PID.TID 0000.0001) ctrl-wet 6: no recs for i =    50           0
(PID.TID 0000.0001) ctrl-wet 6: no recs for i =    51           0
(PID.TID 0000.0001) ctrl-wet 6: no recs for i =    52           0
(PID.TID 0000.0001) ctrl-wet 6: no recs for i =    53           0
(PID.TID 0000.0001) ctrl-wet 6: no recs for i =    54           0
(PID.TID 0000.0001) ctrl-wet 6: no recs for i =    55           0
(PID.TID 0000.0001) ctrl-wet 6: no recs for i =    56           0
(PID.TID 0000.0001) ctrl-wet 6: no recs for i =    57           0
(PID.TID 0000.0001) ctrl-wet 6: no recs for i =    58           0
(PID.TID 0000.0001) ctrl-wet 6: no recs for i =    59           0
(PID.TID 0000.0001) ctrl-wet 6: no recs for i =    60           0
(PID.TID 0000.0001) ctrl-wet 7: flux            46
(PID.TID 0000.0001) ctrl-wet 8: atmos           54
(PID.TID 0000.0001) ctrl-wet -------------------------------------------------
(PID.TID 0000.0001) ctrl-wet 13: global nvarlength for Nr =   23          64
(PID.TID 0000.0001) ctrl-wet -------------------------------------------------
(PID.TID 0000.0001) ctrl-wet 14: global nWet C/S/W/V k=    1           1           1           1           0
(PID.TID 0000.0001) ctrl-wet 14: global nWet C/S/W/V k=    2           1           1           1           0
(PID.TID 0000.0001) ctrl-wet 14: global nWet C/S/W/V k=    3           1           1           1           0
(PID.TID 0000.0001) ctrl-wet 14: global nWet C/S/W/V k=    4           1           1           1           0
(PID.TID 0000.0001) ctrl-wet 14: global nWet C/S/W/V k=    5           1           1           1           0
(PID.TID 0000.0001) ctrl-wet 14: global nWet C/S/W/V k=    6           1           1           1           0
(PID.TID 0000.0001) ctrl-wet 14: global nWet C/S/W/V k=    7           1           1           1           0
(PID.TID 0000.0001) ctrl-wet 14: global nWet C/S/W/V k=    8           1           1           1           0
(PID.TID 0000.0001) ctrl-wet 14: global nWet C/S/W/V k=    9           1           1           1           0
(PID.TID 0000.0001) ctrl-wet 14: global nWet C/S/W/V k=   10           1           1           1           0
(PID.TID 0000.0001) ctrl-wet 14: global nWet C/S/W/V k=   11           1           1           1           0
(PID.TID 0000.0001) ctrl-wet 14: global nWet C/S/W/V k=   12           1           1           1           0
(PID.TID 0000.0001) ctrl-wet 14: global nWet C/S/W/V k=   13           1           1           1           0
(PID.TID 0000.0001) ctrl-wet 14: global nWet C/S/W/V k=   14           1           1           1           0
(PID.TID 0000.0001) ctrl-wet 14: global nWet C/S/W/V k=   15           1           1           1           0
(PID.TID 0000.0001) ctrl-wet 14: global nWet C/S/W/V k=   16           1           1           1           0
(PID.TID 0000.0001) ctrl-wet 14: global nWet C/S/W/V k=   17           1           1           1           0
(PID.TID 0000.0001) ctrl-wet 14: global nWet C/S/W/V k=   18           1           1           1           0
(PID.TID 0000.0001) ctrl-wet 14: global nWet C/S/W/V k=   19           1           1           1           0
(PID.TID 0000.0001) ctrl-wet 14: global nWet C/S/W/V k=   20           1           1           1           0
(PID.TID 0000.0001) ctrl-wet 14: global nWet C/S/W/V k=   21           1           1           1           0
(PID.TID 0000.0001) ctrl-wet 14: global nWet C/S/W/V k=   22           1           1           1           0
(PID.TID 0000.0001) ctrl-wet 14: global nWet C/S/W/V k=   23           1           1           1           0
(PID.TID 0000.0001) ctrl-wet -------------------------------------------------
(PID.TID 0000.0001) ctrl-wet -------------------------------------------------
(PID.TID 0000.0001) ctrl-wet -------------------------------------------------
(PID.TID 0000.0001) ctrl_init: no. of control variables:           11
(PID.TID 0000.0001) ctrl_init: control vector length:              64
(PID.TID 0000.0001) 
(PID.TID 0000.0001) // =======================================================
(PID.TID 0000.0001) // control vector configuration  >>> START <<<
(PID.TID 0000.0001) // =======================================================
(PID.TID 0000.0001) 
(PID.TID 0000.0001)  Total number of ocean points per tile:
(PID.TID 0000.0001)  --------------------------------------
(PID.TID 0000.0001)  snx*sny*nr =       23
(PID.TID 0000.0001) 
(PID.TID 0000.0001)  Number of ocean points per tile:
(PID.TID 0000.0001)  --------------------------------
(PID.TID 0000.0001)  bi,bj,#(c/s/w): 0001 0001 000023 000023 000023
(PID.TID 0000.0001) 
(PID.TID 0000.0001)  Initial state temperature contribution:
(PID.TID 0000.0001)  Control variable index:    0101
(PID.TID 0000.0001) 
(PID.TID 0000.0001)  Initial state salinity contribution:
(PID.TID 0000.0001)  Control variable index:    0102
(PID.TID 0000.0001) 
(PID.TID 0000.0001) // =======================================================
(PID.TID 0000.0001) // control vector configuration  >>> END <<<
(PID.TID 0000.0001) // =======================================================
(PID.TID 0000.0001) 
(PID.TID 0000.0001) %MON fCori_max                    =   1.0000000000000E-04
(PID.TID 0000.0001) %MON fCori_min                    =   1.0000000000000E-04
(PID.TID 0000.0001) %MON fCori_mean                   =   1.0000000000000E-04
(PID.TID 0000.0001) %MON fCori_sd                     =   0.0000000000000E+00
(PID.TID 0000.0001) %MON fCoriG_max                   =   1.0000000000000E-04
(PID.TID 0000.0001) %MON fCoriG_min                   =   1.0000000000000E-04
(PID.TID 0000.0001) %MON fCoriG_mean                  =   1.0000000000000E-04
(PID.TID 0000.0001) %MON fCoriG_sd                    =   0.0000000000000E+00
(PID.TID 0000.0001) %MON fCoriCos_max                 =   0.0000000000000E+00
(PID.TID 0000.0001) %MON fCoriCos_min                 =   0.0000000000000E+00
(PID.TID 0000.0001) %MON fCoriCos_mean                =   0.0000000000000E+00
(PID.TID 0000.0001) %MON fCoriCos_sd                  =   0.0000000000000E+00
(PID.TID 0000.0001) INI_CG2D: CG2D normalisation factor =  1.9483302809492266E-03
(PID.TID 0000.0001) 
(PID.TID 0000.0001) // =======================================================
(PID.TID 0000.0001) // Model configuration
(PID.TID 0000.0001) // =======================================================
(PID.TID 0000.0001) //
(PID.TID 0000.0001) // "Physical" paramters ( PARM01 in namelist )
(PID.TID 0000.0001) //
(PID.TID 0000.0001) buoyancyRelation = /* Type of relation to get Buoyancy */
(PID.TID 0000.0001)               'OCEANIC'
(PID.TID 0000.0001)     ;
(PID.TID 0000.0001) fluidIsAir   =  /* fluid major constituent is Air */
(PID.TID 0000.0001)                   F
(PID.TID 0000.0001)     ;
(PID.TID 0000.0001) fluidIsWater =  /* fluid major constituent is Water */
(PID.TID 0000.0001)                   T
(PID.TID 0000.0001)     ;
(PID.TID 0000.0001) usingPCoords =  /* use p (or p*) vertical coordinate */
(PID.TID 0000.0001)                   F
(PID.TID 0000.0001)     ;
(PID.TID 0000.0001) usingZCoords =  /* use z (or z*) vertical coordinate */
(PID.TID 0000.0001)                   T
(PID.TID 0000.0001)     ;
(PID.TID 0000.0001) tRef =   /* Reference temperature profile ( oC or K ) */
(PID.TID 0000.0001)                -1.930000000000000E+00,      /* K =  1 */
(PID.TID 0000.0001)                -1.931000000000000E+00,      /* K =  2 */
(PID.TID 0000.0001)                -1.932000000000000E+00,      /* K =  3 */
(PID.TID 0000.0001)                -1.285400000000000E+00,      /* K =  4 */
(PID.TID 0000.0001)     2 @ -6.000000000000000E-01,             /* K =  5:  6 */
(PID.TID 0000.0001)                -9.000000000000000E-01,      /* K =  7 */
(PID.TID 0000.0001)     2 @ -1.200000000000000E+00,             /* K =  8:  9 */
(PID.TID 0000.0001)                -1.300000000000000E+00,      /* K = 10 */
(PID.TID 0000.0001)     2 @ -1.400000000000000E+00,             /* K = 11: 12 */
(PID.TID 0000.0001)     4 @ -1.500000000000000E+00,             /* K = 13: 16 */
(PID.TID 0000.0001)                -1.300000000000000E+00,      /* K = 17 */
(PID.TID 0000.0001)                -9.000000000000000E-01,      /* K = 18 */
(PID.TID 0000.0001)                -3.000000000000000E-01,      /* K = 19 */
(PID.TID 0000.0001)                 2.000000000000000E-01,      /* K = 20 */
(PID.TID 0000.0001)     3 @  5.000000000000000E-01              /* K = 21: 23 */
(PID.TID 0000.0001)     ;
(PID.TID 0000.0001) sRef =   /* Reference salinity profile ( psu ) */
(PID.TID 0000.0001)                 2.900790000000000E+01,      /* K =  1 */
(PID.TID 0000.0001)                 2.900800000000000E+01,      /* K =  2 */
(PID.TID 0000.0001)                 2.900860000000000E+01,      /* K =  3 */
(PID.TID 0000.0001)                 2.907750000000000E+01,      /* K =  4 */
(PID.TID 0000.0001)                 3.070000000000000E+01,      /* K =  5 */
(PID.TID 0000.0001)                 3.160000000000000E+01,      /* K =  6 */
(PID.TID 0000.0001)                 3.190000000000000E+01,      /* K =  7 */
(PID.TID 0000.0001)                 3.210000000000000E+01,      /* K =  8 */
(PID.TID 0000.0001)                 3.230000000000000E+01,      /* K =  9 */
(PID.TID 0000.0001)                 3.240000000000000E+01,      /* K = 10 */
(PID.TID 0000.0001)                 3.250000000000000E+01,      /* K = 11 */
(PID.TID 0000.0001)                 3.270000000000000E+01,      /* K = 12 */
(PID.TID 0000.0001)                 3.280000000000000E+01,      /* K = 13 */
(PID.TID 0000.0001)                 3.290000000000000E+01,      /* K = 14 */
(PID.TID 0000.0001)                 3.310000000000000E+01,      /* K = 15 */
(PID.TID 0000.0001)                 3.340000000000000E+01,      /* K = 16 */
(PID.TID 0000.0001)                 3.380000000000000E+01,      /* K = 17 */
(PID.TID 0000.0001)                 3.420000000000000E+01,      /* K = 18 */
(PID.TID 0000.0001)                 3.450000000000000E+01,      /* K = 19 */
(PID.TID 0000.0001)                 3.470000000000000E+01,      /* K = 20 */
(PID.TID 0000.0001)     3 @  3.480000000000000E+01              /* K = 21: 23 */
(PID.TID 0000.0001)     ;
(PID.TID 0000.0001) useStrainTensionVisc= /* Use StrainTension Form of Viscous Operator */
(PID.TID 0000.0001)                   F
(PID.TID 0000.0001)     ;
(PID.TID 0000.0001) useVariableVisc = /* Use variable horizontal viscosity */
(PID.TID 0000.0001)                   F
(PID.TID 0000.0001)     ;
(PID.TID 0000.0001) useHarmonicVisc = /* Use harmonic horizontal viscosity */
(PID.TID 0000.0001)                   T
(PID.TID 0000.0001)     ;
(PID.TID 0000.0001) useBiharmonicVisc= /* Use biharmonic horiz.  viscosity */
(PID.TID 0000.0001)                   F
(PID.TID 0000.0001)     ;
(PID.TID 0000.0001) useSmag3D = /* Use isotropic 3-D Smagorinsky viscosity */
(PID.TID 0000.0001)                   F
(PID.TID 0000.0001)     ;
(PID.TID 0000.0001) viscAh  =   /* Lateral harmonic viscosity ( m^2/s ) */
(PID.TID 0000.0001)                 5.000000000000000E+04
(PID.TID 0000.0001)     ;
(PID.TID 0000.0001) viscA4  =   /* Lateral biharmonic viscosity ( m^4/s ) */
(PID.TID 0000.0001)                 0.000000000000000E+00
(PID.TID 0000.0001)     ;
(PID.TID 0000.0001) no_slip_sides =  /* Viscous BCs: No-slip sides */
(PID.TID 0000.0001)                   F
(PID.TID 0000.0001)     ;
(PID.TID 0000.0001) sideDragFactor = /* side-drag scaling factor (non-dim) */
(PID.TID 0000.0001)                 2.000000000000000E+00
(PID.TID 0000.0001)     ;
(PID.TID 0000.0001) viscArNr = /* vertical profile of vertical viscosity ( m^2/s )*/
(PID.TID 0000.0001)    23 @  1.930000000000000E-05              /* K =  1: 23 */
(PID.TID 0000.0001)     ;
(PID.TID 0000.0001) no_slip_bottom =  /* Viscous BCs: No-slip bottom */
(PID.TID 0000.0001)                   T
(PID.TID 0000.0001)     ;
(PID.TID 0000.0001) bottomVisc_pCell = /* Partial-cell in bottom Visc. BC */
(PID.TID 0000.0001)                   F
(PID.TID 0000.0001)     ;
(PID.TID 0000.0001) bottomDragLinear = /* linear bottom-drag coefficient ( m/s ) */
(PID.TID 0000.0001)                 0.000000000000000E+00
(PID.TID 0000.0001)     ;
(PID.TID 0000.0001) bottomDragQuadratic = /* quadratic bottom-drag coefficient (-) */
(PID.TID 0000.0001)                 0.000000000000000E+00
(PID.TID 0000.0001)     ;
(PID.TID 0000.0001) selectBotDragQuadr = /* select quadratic bottom drag options */
(PID.TID 0000.0001)                      -1
(PID.TID 0000.0001)     ;
(PID.TID 0000.0001) diffKhT =   /* Laplacian diffusion of heat laterally ( m^2/s ) */
(PID.TID 0000.0001)                 0.000000000000000E+00
(PID.TID 0000.0001)     ;
(PID.TID 0000.0001) diffK4T =   /* Biharmonic diffusion of heat laterally ( m^4/s ) */
(PID.TID 0000.0001)                 0.000000000000000E+00
(PID.TID 0000.0001)     ;
(PID.TID 0000.0001) diffKhS =   /* Laplacian diffusion of salt laterally ( m^2/s ) */
(PID.TID 0000.0001)                 0.000000000000000E+00
(PID.TID 0000.0001)     ;
(PID.TID 0000.0001) diffK4S =   /* Biharmonic diffusion of salt laterally ( m^4/s ) */
(PID.TID 0000.0001)                 0.000000000000000E+00
(PID.TID 0000.0001)     ;
(PID.TID 0000.0001) diffKrNrT = /* vertical profile of vertical diffusion of Temp ( m^2/s )*/
(PID.TID 0000.0001)    23 @  1.460000000000000E-07              /* K =  1: 23 */
(PID.TID 0000.0001)     ;
(PID.TID 0000.0001) diffKrNrS = /* vertical profile of vertical diffusion of Salt ( m^2/s )*/
(PID.TID 0000.0001)    23 @  1.460000000000000E-07              /* K =  1: 23 */
(PID.TID 0000.0001)     ;
(PID.TID 0000.0001) diffKrBL79surf = /* Surface diffusion for Bryan and Lewis 79 ( m^2/s ) */
(PID.TID 0000.0001)                 0.000000000000000E+00
(PID.TID 0000.0001)     ;
(PID.TID 0000.0001) diffKrBL79deep = /* Deep diffusion for Bryan and Lewis 1979 ( m^2/s ) */
(PID.TID 0000.0001)                 0.000000000000000E+00
(PID.TID 0000.0001)     ;
(PID.TID 0000.0001) diffKrBL79scl = /* Depth scale for Bryan and Lewis 1979 ( m ) */
(PID.TID 0000.0001)                 2.000000000000000E+02
(PID.TID 0000.0001)     ;
(PID.TID 0000.0001) diffKrBL79Ho = /* Turning depth for Bryan and Lewis 1979 ( m ) */
(PID.TID 0000.0001)                -2.000000000000000E+03
(PID.TID 0000.0001)     ;
(PID.TID 0000.0001) ivdc_kappa = /* Implicit Vertical Diffusivity for Convection ( m^2/s) */
(PID.TID 0000.0001)                 0.000000000000000E+00
(PID.TID 0000.0001)     ;
(PID.TID 0000.0001) hMixCriteria=  /* Criteria for mixed-layer diagnostic */
(PID.TID 0000.0001)                -8.000000000000000E-01
(PID.TID 0000.0001)     ;
(PID.TID 0000.0001) dRhoSmall =  /* Parameter for mixed-layer diagnostic */
(PID.TID 0000.0001)                 1.000000000000000E-06
(PID.TID 0000.0001)     ;
(PID.TID 0000.0001) hMixSmooth=  /* Smoothing parameter for mixed-layer diagnostic */
(PID.TID 0000.0001)                 0.000000000000000E+00
(PID.TID 0000.0001)     ;
(PID.TID 0000.0001) eosType =  /* Type of Equation of State */
(PID.TID 0000.0001)               'JMD95Z'
(PID.TID 0000.0001)     ;
(PID.TID 0000.0001) selectP_inEOS_Zc = /* select pressure to use in EOS (0,1,2,3) */
(PID.TID 0000.0001)                       0
(PID.TID 0000.0001)     0= -g*rhoConst*z ; 1= pRef (from tRef,sRef); 2= Hyd P ; 3= Hyd+NH P
(PID.TID 0000.0001)     ;
(PID.TID 0000.0001) HeatCapacity_Cp =  /* Specific heat capacity ( J/kg/K ) */
(PID.TID 0000.0001)                 3.986000000000000E+03
(PID.TID 0000.0001)     ;
(PID.TID 0000.0001) celsius2K = /* 0 degree Celsius converted to Kelvin ( K ) */
(PID.TID 0000.0001)                 2.731600000000000E+02
(PID.TID 0000.0001)     ;
(PID.TID 0000.0001) rhoConst  = /* Reference density (Boussinesq)  ( kg/m^3 ) */
(PID.TID 0000.0001)                 1.027000000000000E+03
(PID.TID 0000.0001)     ;
(PID.TID 0000.0001) rhoFacC = /* normalized Reference density @ cell-Center (-) */
(PID.TID 0000.0001)    23 @  1.000000000000000E+00              /* K =  1: 23 */
(PID.TID 0000.0001)     ;
(PID.TID 0000.0001) rhoFacF = /* normalized Reference density @ W-Interface (-) */
(PID.TID 0000.0001)    24 @  1.000000000000000E+00              /* K =  1: 24 */
(PID.TID 0000.0001)     ;
(PID.TID 0000.0001) rhoConstFresh = /* Fresh-water reference density ( kg/m^3 ) */
(PID.TID 0000.0001)                 9.998000000000000E+02
(PID.TID 0000.0001)     ;
(PID.TID 0000.0001) gravity =   /* Gravitational acceleration ( m/s^2 ) */
(PID.TID 0000.0001)                 9.815600000000000E+00
(PID.TID 0000.0001)     ;
(PID.TID 0000.0001) gBaro =   /* Barotropic gravity ( m/s^2 ) */
(PID.TID 0000.0001)                 9.815600000000000E+00
(PID.TID 0000.0001)     ;
(PID.TID 0000.0001) gravFacC = /* gravity factor (vs surf.) @ cell-Center (-) */
(PID.TID 0000.0001)    23 @  1.000000000000000E+00              /* K =  1: 23 */
(PID.TID 0000.0001)     ;
(PID.TID 0000.0001) gravFacF = /* gravity factor (vs surf.) @ W-Interface (-) */
(PID.TID 0000.0001)    24 @  1.000000000000000E+00              /* K =  1: 24 */
(PID.TID 0000.0001)     ;
(PID.TID 0000.0001) rotationPeriod =   /* Rotation Period ( s ) */
(PID.TID 0000.0001)                 8.616400000000000E+04
(PID.TID 0000.0001)     ;
(PID.TID 0000.0001) omega =   /* Angular velocity ( rad/s ) */
(PID.TID 0000.0001)                 7.292123516990375E-05
(PID.TID 0000.0001)     ;
(PID.TID 0000.0001) f0 =   /* Reference coriolis parameter ( 1/s ) */
(PID.TID 0000.0001)                 1.000000000000000E-04
(PID.TID 0000.0001)     ;
(PID.TID 0000.0001) beta =   /* Beta ( 1/(m.s) ) */
(PID.TID 0000.0001)                 9.999999999999999E-12
(PID.TID 0000.0001)     ;
(PID.TID 0000.0001) fPrime =   /* Second coriolis parameter ( 1/s ) */
(PID.TID 0000.0001)                 0.000000000000000E+00
(PID.TID 0000.0001)     ;
(PID.TID 0000.0001) rigidLid =   /* Rigid lid on/off flag */
(PID.TID 0000.0001)                   F
(PID.TID 0000.0001)     ;
(PID.TID 0000.0001) implicitFreeSurface =   /* Implicit free surface on/off flag */
(PID.TID 0000.0001)                   T
(PID.TID 0000.0001)     ;
(PID.TID 0000.0001) freeSurfFac =   /* Implicit free surface factor */
(PID.TID 0000.0001)                 1.000000000000000E+00
(PID.TID 0000.0001)     ;
(PID.TID 0000.0001) implicSurfPress =  /* Surface Pressure implicit factor (0-1)*/
(PID.TID 0000.0001)                 1.000000000000000E+00
(PID.TID 0000.0001)     ;
(PID.TID 0000.0001) implicDiv2DFlow =  /* Barot. Flow Div. implicit factor (0-1)*/
(PID.TID 0000.0001)                 1.000000000000000E+00
(PID.TID 0000.0001)     ;
(PID.TID 0000.0001) uniformLin_PhiSurf = /* use uniform Bo_surf on/off flag*/
(PID.TID 0000.0001)                   T
(PID.TID 0000.0001)     ;
(PID.TID 0000.0001) uniformFreeSurfLev = /* free-surface level-index is uniform */
(PID.TID 0000.0001)                   T
(PID.TID 0000.0001)     ;
(PID.TID 0000.0001) hFacMin =   /* minimum partial cell factor (hFac) */
(PID.TID 0000.0001)                 1.000000000000000E+00
(PID.TID 0000.0001)     ;
(PID.TID 0000.0001) hFacMinDr = /* minimum partial cell thickness ( m) */
(PID.TID 0000.0001)                 0.000000000000000E+00
(PID.TID 0000.0001)     ;
(PID.TID 0000.0001) exactConserv =  /* Exact Volume Conservation on/off flag*/
(PID.TID 0000.0001)                   F
(PID.TID 0000.0001)     ;
(PID.TID 0000.0001) linFSConserveTr = /* Tracer correction for Lin Free Surface on/off flag*/
(PID.TID 0000.0001)                   F
(PID.TID 0000.0001)     ;
(PID.TID 0000.0001) nonlinFreeSurf = /* Non-linear Free Surf. options (-1,0,1,2,3)*/
(PID.TID 0000.0001)                       0
(PID.TID 0000.0001)      -1,0= Off ; 1,2,3= On, 2=+rescale gU,gV, 3=+update cg2d solv.
(PID.TID 0000.0001)     ;
(PID.TID 0000.0001) hFacInf =   /* lower threshold for hFac (nonlinFreeSurf only)*/
(PID.TID 0000.0001)                 2.000000000000000E-01
(PID.TID 0000.0001)     ;
(PID.TID 0000.0001) hFacSup =   /* upper threshold for hFac (nonlinFreeSurf only)*/
(PID.TID 0000.0001)                 2.000000000000000E+00
(PID.TID 0000.0001)     ;
(PID.TID 0000.0001) select_rStar = /* r* Vertical coord. options (=0 r coord.; >0 uses r*)*/
(PID.TID 0000.0001)                       0
(PID.TID 0000.0001)     ;
(PID.TID 0000.0001) useRealFreshWaterFlux = /* Real Fresh Water Flux on/off flag*/
(PID.TID 0000.0001)                   T
(PID.TID 0000.0001)     ;
(PID.TID 0000.0001) temp_EvPrRn = /* Temp. of Evap/Prec/R (UNSET=use local T)(oC)*/
(PID.TID 0000.0001)                 1.234567000000000E+05
(PID.TID 0000.0001)     ;
(PID.TID 0000.0001) salt_EvPrRn = /* Salin. of Evap/Prec/R (UNSET=use local S)(psu)*/
(PID.TID 0000.0001)                 0.000000000000000E+00
(PID.TID 0000.0001)     ;
(PID.TID 0000.0001) selectAddFluid = /* option for mass source/sink of fluid (=0: off) */
(PID.TID 0000.0001)                       0
(PID.TID 0000.0001)     ;
(PID.TID 0000.0001) temp_addMass = /* Temp. of addMass array (UNSET=use local T)(oC)*/
(PID.TID 0000.0001)                 1.234567000000000E+05
(PID.TID 0000.0001)     ;
(PID.TID 0000.0001) salt_addMass = /* Salin. of addMass array (UNSET=use local S)(psu)*/
(PID.TID 0000.0001)                 0.000000000000000E+00
(PID.TID 0000.0001)     ;
(PID.TID 0000.0001) convertFW2Salt = /* convert F.W. Flux to Salt Flux (-1=use local S)(psu)*/
(PID.TID 0000.0001)                -1.000000000000000E+00
(PID.TID 0000.0001)     ;
(PID.TID 0000.0001) use3Dsolver = /* use 3-D pressure solver on/off flag */
(PID.TID 0000.0001)                   F
(PID.TID 0000.0001)     ;
(PID.TID 0000.0001) nonHydrostatic =  /* Non-Hydrostatic on/off flag */
(PID.TID 0000.0001)                   F
(PID.TID 0000.0001)     ;
(PID.TID 0000.0001) nh_Am2 = /* Non-Hydrostatic terms scaling factor */
(PID.TID 0000.0001)                 1.000000000000000E+00
(PID.TID 0000.0001)     ;
(PID.TID 0000.0001) implicitNHPress = /* Non-Hyd Pressure implicit factor (0-1)*/
(PID.TID 0000.0001)                 1.000000000000000E+00
(PID.TID 0000.0001)     ;
(PID.TID 0000.0001) selectNHfreeSurf = /* Non-Hyd (free-)Surface option */
(PID.TID 0000.0001)                       0
(PID.TID 0000.0001)     ;
(PID.TID 0000.0001) quasiHydrostatic = /* Quasi-Hydrostatic on/off flag */
(PID.TID 0000.0001)                   F
(PID.TID 0000.0001)     ;
(PID.TID 0000.0001) calc_wVelocity = /* vertical velocity calculation on/off flag */
(PID.TID 0000.0001)                   T
(PID.TID 0000.0001)     ;
(PID.TID 0000.0001) momStepping =  /* Momentum equation on/off flag */
(PID.TID 0000.0001)                   T
(PID.TID 0000.0001)     ;
(PID.TID 0000.0001) vectorInvariantMomentum= /* Vector-Invariant Momentum on/off */
(PID.TID 0000.0001)                   T
(PID.TID 0000.0001)     ;
(PID.TID 0000.0001) momAdvection =  /* Momentum advection on/off flag */
(PID.TID 0000.0001)                   T
(PID.TID 0000.0001)     ;
(PID.TID 0000.0001) momViscosity =  /* Momentum viscosity on/off flag */
(PID.TID 0000.0001)                   T
(PID.TID 0000.0001)     ;
(PID.TID 0000.0001) momImplVertAdv= /* Momentum implicit vert. advection on/off*/
(PID.TID 0000.0001)                   F
(PID.TID 0000.0001)     ;
(PID.TID 0000.0001) implicitViscosity = /* Implicit viscosity on/off flag */
(PID.TID 0000.0001)                   T
(PID.TID 0000.0001)     ;
(PID.TID 0000.0001) selectImplicitDrag= /* Implicit bot Drag options (0,1,2)*/
(PID.TID 0000.0001)                       0
(PID.TID 0000.0001)     0= Expl. ; 1= Impl. on provis. Vel ; 2= Fully Impl (with surf.P)
(PID.TID 0000.0001)     ;
(PID.TID 0000.0001) metricTerms =  /* metric-Terms on/off flag */
(PID.TID 0000.0001)                   F
(PID.TID 0000.0001)     ;
(PID.TID 0000.0001) useNHMTerms = /* Non-Hydrostatic Metric-Terms on/off */
(PID.TID 0000.0001)                   F
(PID.TID 0000.0001)     ;
(PID.TID 0000.0001) selectCoriMap = /* Coriolis Map options (0,1,2,3)*/
(PID.TID 0000.0001)                       0
(PID.TID 0000.0001)     0= f-Plane ; 1= Beta-Plane ; 2= Spherical ; 3= read from file
(PID.TID 0000.0001)     ;
(PID.TID 0000.0001) use3dCoriolis = /* 3-D Coriolis on/off flag */
(PID.TID 0000.0001)                   F
(PID.TID 0000.0001)     ;
(PID.TID 0000.0001) useCoriolis =  /* Coriolis on/off flag */
(PID.TID 0000.0001)                   T
(PID.TID 0000.0001)     ;
(PID.TID 0000.0001) useCDscheme =  /* CD scheme on/off flag */
(PID.TID 0000.0001)                   F
(PID.TID 0000.0001)     ;
(PID.TID 0000.0001) useEnergyConservingCoriolis= /* Flx-Form Coriolis scheme flag */
(PID.TID 0000.0001)                   F
(PID.TID 0000.0001)     ;
(PID.TID 0000.0001) useJamartWetPoints= /* Coriolis WetPoints method flag */
(PID.TID 0000.0001)                   F
(PID.TID 0000.0001)     ;
(PID.TID 0000.0001) useJamartMomAdv= /* V.I Non-linear terms Jamart flag */
(PID.TID 0000.0001)                   F
(PID.TID 0000.0001)     ;
(PID.TID 0000.0001) useAbsVorticity= /* V.I Works with f+zeta in Coriolis */
(PID.TID 0000.0001)                   F
(PID.TID 0000.0001)     ;
(PID.TID 0000.0001) selectVortScheme= /* V.I Scheme selector for Vorticity-Term */
(PID.TID 0000.0001)                       1
(PID.TID 0000.0001)    = 0 : enstrophy (Shallow-Water Eq.) conserving scheme by Sadourny, JAS 75
(PID.TID 0000.0001)    = 1 : same as 0 with modified hFac
(PID.TID 0000.0001)    = 2 : energy conserving scheme (used by Sadourny in JAS 75 paper)
(PID.TID 0000.0001)    = 3 : energy (general) and enstrophy (2D, nonDiv.) conserving scheme
(PID.TID 0000.0001)          from Sadourny (Burridge & Haseler, ECMWF Rep.4, 1977)
(PID.TID 0000.0001)     ;
(PID.TID 0000.0001) upwindVorticity= /* V.I Upwind bias vorticity flag */
(PID.TID 0000.0001)                   F
(PID.TID 0000.0001)     ;
(PID.TID 0000.0001) highOrderVorticity= /* V.I High order vort. advect. flag */
(PID.TID 0000.0001)                   F
(PID.TID 0000.0001)     ;
(PID.TID 0000.0001) upwindShear= /* V.I Upwind vertical Shear advection flag */
(PID.TID 0000.0001)                   F
(PID.TID 0000.0001)     ;
(PID.TID 0000.0001) selectKEscheme= /* V.I Kinetic Energy scheme selector */
(PID.TID 0000.0001)                       0
(PID.TID 0000.0001)     ;
(PID.TID 0000.0001) momForcing =  /* Momentum forcing on/off flag */
(PID.TID 0000.0001)                   T
(PID.TID 0000.0001)     ;
(PID.TID 0000.0001) momTidalForcing = /* Momentum Tidal forcing on/off flag */
(PID.TID 0000.0001)                   T
(PID.TID 0000.0001)     ;
(PID.TID 0000.0001) momPressureForcing =  /* Momentum pressure term on/off flag */
(PID.TID 0000.0001)                   T
(PID.TID 0000.0001)     ;
(PID.TID 0000.0001) implicitIntGravWave= /* Implicit Internal Gravity Wave flag */
(PID.TID 0000.0001)                   F
(PID.TID 0000.0001)     ;
(PID.TID 0000.0001) staggerTimeStep =    /* Stagger time stepping on/off flag */
(PID.TID 0000.0001)                   T
(PID.TID 0000.0001)     ;
(PID.TID 0000.0001) doResetHFactors = /* reset thickness factors @ each time-step */
(PID.TID 0000.0001)                   F
(PID.TID 0000.0001)     ;
(PID.TID 0000.0001) multiDimAdvection =  /* enable/disable Multi-Dim Advection */
(PID.TID 0000.0001)                   F
(PID.TID 0000.0001)     ;
(PID.TID 0000.0001) useMultiDimAdvec =   /* Multi-Dim Advection is/is-not used */
(PID.TID 0000.0001)                   F
(PID.TID 0000.0001)     ;
(PID.TID 0000.0001) implicitDiffusion = /* Implicit Diffusion on/off flag */
(PID.TID 0000.0001)                   T
(PID.TID 0000.0001)     ;
(PID.TID 0000.0001) tempStepping =  /* Temperature equation on/off flag */
(PID.TID 0000.0001)                   T
(PID.TID 0000.0001)     ;
(PID.TID 0000.0001) tempAdvection = /* Temperature advection on/off flag */
(PID.TID 0000.0001)                   T
(PID.TID 0000.0001)     ;
(PID.TID 0000.0001) tempImplVertAdv = /* Temp. implicit vert. advection on/off */
(PID.TID 0000.0001)                   F
(PID.TID 0000.0001)     ;
(PID.TID 0000.0001) tempForcing  =  /* Temperature forcing on/off flag */
(PID.TID 0000.0001)                   T
(PID.TID 0000.0001)     ;
(PID.TID 0000.0001) doThetaClimRelax = /* apply SST relaxation on/off flag */
(PID.TID 0000.0001)                   F
(PID.TID 0000.0001)     ;
(PID.TID 0000.0001) tempIsActiveTr = /* Temp. is a dynamically Active Tracer */
(PID.TID 0000.0001)                   T
(PID.TID 0000.0001)     ;
(PID.TID 0000.0001) saltStepping =  /* Salinity equation on/off flag */
(PID.TID 0000.0001)                   T
(PID.TID 0000.0001)     ;
(PID.TID 0000.0001) saltAdvection = /* Salinity advection on/off flag */
(PID.TID 0000.0001)                   T
(PID.TID 0000.0001)     ;
(PID.TID 0000.0001) saltImplVertAdv = /* Sali. implicit vert. advection on/off */
(PID.TID 0000.0001)                   F
(PID.TID 0000.0001)     ;
(PID.TID 0000.0001) saltForcing  =  /* Salinity forcing on/off flag */
(PID.TID 0000.0001)                   T
(PID.TID 0000.0001)     ;
(PID.TID 0000.0001) doSaltClimRelax = /* apply SSS relaxation on/off flag */
(PID.TID 0000.0001)                   F
(PID.TID 0000.0001)     ;
(PID.TID 0000.0001) saltIsActiveTr = /* Salt  is a dynamically Active Tracer */
(PID.TID 0000.0001)                   T
(PID.TID 0000.0001)     ;
(PID.TID 0000.0001)  readBinaryPrec = /* Precision used for reading binary files */
(PID.TID 0000.0001)                      32
(PID.TID 0000.0001)     ;
(PID.TID 0000.0001) writeBinaryPrec = /* Precision used for writing binary files */
(PID.TID 0000.0001)                      32
(PID.TID 0000.0001)     ;
(PID.TID 0000.0001)  rwSuffixType =   /* select format of mds file suffix */
(PID.TID 0000.0001)                       0
(PID.TID 0000.0001)    = 0 : myIter (I10.10) ;   = 1 : 100*myTime (100th sec) ;
(PID.TID 0000.0001)    = 2 : myTime (seconds);   = 3 : myTime/360 (10th of hr);
(PID.TID 0000.0001)    = 4 : myTime/3600 (hours)
(PID.TID 0000.0001)     ;
(PID.TID 0000.0001)  globalFiles = /* write "global" (=not per tile) files */
(PID.TID 0000.0001)                   F
(PID.TID 0000.0001)     ;
(PID.TID 0000.0001)  useSingleCpuIO = /* only master MPI process does I/O */
(PID.TID 0000.0001)                   F
(PID.TID 0000.0001)     ;
(PID.TID 0000.0001)  useSingleCpuInput = /* only master process reads input */
(PID.TID 0000.0001)                   F
(PID.TID 0000.0001)     ;
(PID.TID 0000.0001) /* debLev[*]  : level of debug & auxiliary message printing */
(PID.TID 0000.0001) debLevZero =  0 ; /* level of disabled aux. msg printing */
(PID.TID 0000.0001)    debLevA =  1 ; /* level of minimum  aux. msg printing */
(PID.TID 0000.0001)    debLevB =  2 ; /* level of low aux. print (report read-file opening)*/
(PID.TID 0000.0001)    debLevC =  3 ; /* level of moderate debug prt (most pkgs debug msg) */
(PID.TID 0000.0001)    debLevD =  4 ; /* level of enhanced debug prt (add DEBUG_STATS prt) */
(PID.TID 0000.0001)    debLevE =  5 ; /* level of extensive debug printing */
(PID.TID 0000.0001) debugLevel =  /* select debug printing level */
(PID.TID 0000.0001)                       1
(PID.TID 0000.0001)     ;
(PID.TID 0000.0001)  plotLevel =  /* select PLOT_FIELD printing level */
(PID.TID 0000.0001)                       1
(PID.TID 0000.0001)     ;
(PID.TID 0000.0001) //
(PID.TID 0000.0001) // Elliptic solver(s) paramters ( PARM02 in namelist )
(PID.TID 0000.0001) //
(PID.TID 0000.0001) cg2dMaxIters =   /* Upper limit on 2d con. grad iterations  */
(PID.TID 0000.0001)                    1000
(PID.TID 0000.0001)     ;
(PID.TID 0000.0001) cg2dChkResFreq =   /* 2d con. grad convergence test frequency */
(PID.TID 0000.0001)                       1
(PID.TID 0000.0001)     ;
(PID.TID 0000.0001) cg2dUseMinResSol= /* use cg2d last-iter(=0) / min-resid.(=1) solution */
(PID.TID 0000.0001)                       0
(PID.TID 0000.0001)     ;
(PID.TID 0000.0001) cg2dTargetResidual =   /* 2d con. grad target residual  */
(PID.TID 0000.0001)                 1.000000000000000E-13
(PID.TID 0000.0001)     ;
(PID.TID 0000.0001) cg2dTargetResWunit =   /* CG2d target residual [W units] */
(PID.TID 0000.0001)                -1.000000000000000E+00
(PID.TID 0000.0001)     ;
(PID.TID 0000.0001) cg2dPreCondFreq =   /* Freq. for updating cg2d preconditioner */
(PID.TID 0000.0001)                       1
(PID.TID 0000.0001)     ;
(PID.TID 0000.0001) useSRCGSolver =  /* use single reduction CG solver(s) */
(PID.TID 0000.0001)                   F
(PID.TID 0000.0001)     ;
(PID.TID 0000.0001) printResidualFreq = /* Freq. for printing CG residual */
(PID.TID 0000.0001)                       0
(PID.TID 0000.0001)     ;
(PID.TID 0000.0001) //
(PID.TID 0000.0001) // Time stepping paramters ( PARM03 in namelist )
(PID.TID 0000.0001) //
(PID.TID 0000.0001) deltaTMom =   /* Momentum equation timestep ( s ) */
(PID.TID 0000.0001)                 3.600000000000000E+03
(PID.TID 0000.0001)     ;
(PID.TID 0000.0001) deltaTFreeSurf = /* FreeSurface equation timestep ( s ) */
(PID.TID 0000.0001)                 3.600000000000000E+03
(PID.TID 0000.0001)     ;
(PID.TID 0000.0001) dTtracerLev =  /* Tracer equation timestep ( s ) */
(PID.TID 0000.0001)    23 @  3.600000000000000E+03              /* K =  1: 23 */
(PID.TID 0000.0001)     ;
(PID.TID 0000.0001) deltaTClock  =   /* Model clock timestep ( s ) */
(PID.TID 0000.0001)                 3.600000000000000E+03
(PID.TID 0000.0001)     ;
(PID.TID 0000.0001) cAdjFreq =   /* Convective adjustment interval ( s ) */
(PID.TID 0000.0001)                 0.000000000000000E+00
(PID.TID 0000.0001)     ;
(PID.TID 0000.0001) momForcingOutAB = /* =1: take Momentum Forcing out of Adams-Bash. stepping */
(PID.TID 0000.0001)                       0
(PID.TID 0000.0001)     ;
(PID.TID 0000.0001) tracForcingOutAB = /* =1: take T,S,pTr Forcing out of Adams-Bash. stepping */
(PID.TID 0000.0001)                       1
(PID.TID 0000.0001)     ;
(PID.TID 0000.0001) momDissip_In_AB = /* put Dissipation Tendency in Adams-Bash. stepping */
(PID.TID 0000.0001)                   T
(PID.TID 0000.0001)     ;
(PID.TID 0000.0001) doAB_onGtGs = /* apply AB on Tendencies (rather than on T,S)*/
(PID.TID 0000.0001)                   T
(PID.TID 0000.0001)     ;
(PID.TID 0000.0001) abEps =   /* Adams-Bashforth-2 stabilizing weight */
(PID.TID 0000.0001)                 1.000000000000000E-01
(PID.TID 0000.0001)     ;
(PID.TID 0000.0001) applyExchUV_early = /* Apply EXCH to U,V earlier in time-step */
(PID.TID 0000.0001)                   F
(PID.TID 0000.0001)     ;
(PID.TID 0000.0001) pickupStrictlyMatch= /* stop if pickup do not strictly match */
(PID.TID 0000.0001)                   T
(PID.TID 0000.0001)     ;
(PID.TID 0000.0001) nIter0   =   /* Run starting timestep number */
(PID.TID 0000.0001)                       0
(PID.TID 0000.0001)     ;
(PID.TID 0000.0001) nTimeSteps = /* Number of timesteps */
(PID.TID 0000.0001)                      10
(PID.TID 0000.0001)     ;
(PID.TID 0000.0001) nEndIter =   /* Run ending timestep number */
(PID.TID 0000.0001)                      10
(PID.TID 0000.0001)     ;
(PID.TID 0000.0001) baseTime =   /* Model base time ( s ) */
(PID.TID 0000.0001)                 0.000000000000000E+00
(PID.TID 0000.0001)     ;
(PID.TID 0000.0001) startTime =  /* Run start time ( s ) */
(PID.TID 0000.0001)                 0.000000000000000E+00
(PID.TID 0000.0001)     ;
(PID.TID 0000.0001) endTime  =   /* Integration ending time ( s ) */
(PID.TID 0000.0001)                 3.600000000000000E+04
(PID.TID 0000.0001)     ;
(PID.TID 0000.0001) pChkPtFreq = /* Permanent restart/pickup file interval ( s ) */
(PID.TID 0000.0001)                 0.000000000000000E+00
(PID.TID 0000.0001)     ;
(PID.TID 0000.0001) chkPtFreq  = /* Rolling restart/pickup file interval ( s ) */
(PID.TID 0000.0001)                 0.000000000000000E+00
(PID.TID 0000.0001)     ;
(PID.TID 0000.0001) pickup_write_mdsio =   /* Model IO flag. */
(PID.TID 0000.0001)                   T
(PID.TID 0000.0001)     ;
(PID.TID 0000.0001) pickup_read_mdsio =   /* Model IO flag. */
(PID.TID 0000.0001)                   T
(PID.TID 0000.0001)     ;
(PID.TID 0000.0001) writePickupAtEnd =   /* Model IO flag. */
(PID.TID 0000.0001)                   T
(PID.TID 0000.0001)     ;
(PID.TID 0000.0001) dumpFreq =   /* Model state write out interval ( s ). */
(PID.TID 0000.0001)                 0.000000000000000E+00
(PID.TID 0000.0001)     ;
(PID.TID 0000.0001) dumpInitAndLast= /* write out Initial & Last iter. model state */
(PID.TID 0000.0001)                   T
(PID.TID 0000.0001)     ;
(PID.TID 0000.0001) snapshot_mdsio =   /* Model IO flag. */
(PID.TID 0000.0001)                   T
(PID.TID 0000.0001)     ;
(PID.TID 0000.0001) monitorFreq =   /* Monitor output interval ( s ). */
(PID.TID 0000.0001)                 1.000000000000000E+00
(PID.TID 0000.0001)     ;
(PID.TID 0000.0001) monitorSelect = /* select group of variables to monitor */
(PID.TID 0000.0001)                       3
(PID.TID 0000.0001)     ;
(PID.TID 0000.0001) monitor_stdio =   /* Model IO flag. */
(PID.TID 0000.0001)                   T
(PID.TID 0000.0001)     ;
(PID.TID 0000.0001) externForcingPeriod =   /* forcing period (s) */
(PID.TID 0000.0001)                 0.000000000000000E+00
(PID.TID 0000.0001)     ;
(PID.TID 0000.0001) externForcingCycle =   /* period of the cyle (s). */
(PID.TID 0000.0001)                 0.000000000000000E+00
(PID.TID 0000.0001)     ;
(PID.TID 0000.0001) tauThetaClimRelax =   /* relaxation time scale (s) */
(PID.TID 0000.0001)                 0.000000000000000E+00
(PID.TID 0000.0001)     ;
(PID.TID 0000.0001) tauSaltClimRelax =   /* relaxation time scale (s) */
(PID.TID 0000.0001)                 0.000000000000000E+00
(PID.TID 0000.0001)     ;
(PID.TID 0000.0001) latBandClimRelax =   /* max. Lat. where relaxation */
(PID.TID 0000.0001)                 1.500000000000000E+04
(PID.TID 0000.0001)     ;
(PID.TID 0000.0001) //
(PID.TID 0000.0001) // Gridding paramters ( PARM04 in namelist )
(PID.TID 0000.0001) //
(PID.TID 0000.0001) usingCartesianGrid = /* Cartesian coordinates flag ( True/False ) */
(PID.TID 0000.0001)                   T
(PID.TID 0000.0001)     ;
(PID.TID 0000.0001) usingCylindricalGrid = /* Cylindrical coordinates flag ( True/False ) */
(PID.TID 0000.0001)                   F
(PID.TID 0000.0001)     ;
(PID.TID 0000.0001) usingSphericalPolarGrid = /* Spherical coordinates flag ( True/False ) */
(PID.TID 0000.0001)                   F
(PID.TID 0000.0001)     ;
(PID.TID 0000.0001) usingCurvilinearGrid = /* Curvilinear coordinates flag ( True/False ) */
(PID.TID 0000.0001)                   F
(PID.TID 0000.0001)     ;
(PID.TID 0000.0001) useMin4hFacEdges = /* set hFacW,S as minimum of adjacent hFacC factor */
(PID.TID 0000.0001)                   F
(PID.TID 0000.0001)     ;
(PID.TID 0000.0001) interViscAr_pCell = /* account for partial-cell in interior vert. viscosity */
(PID.TID 0000.0001)                   F
(PID.TID 0000.0001)     ;
(PID.TID 0000.0001) interDiffKr_pCell = /* account for partial-cell in interior vert. diffusion */
(PID.TID 0000.0001)                   F
(PID.TID 0000.0001)     ;
(PID.TID 0000.0001) pCellMix_select = /* option to enhance mixing near surface & bottom */
(PID.TID 0000.0001)                       0
(PID.TID 0000.0001)     ;
(PID.TID 0000.0001) selectSigmaCoord = /* Hybrid-Sigma Vert. Coordinate option */
(PID.TID 0000.0001)                       0
(PID.TID 0000.0001)     ;
(PID.TID 0000.0001) rSigmaBnd = /* r/sigma transition ( units of r ==  m ) */
(PID.TID 0000.0001)                 1.234567000000000E+05
(PID.TID 0000.0001)     ;
(PID.TID 0000.0001) rkSign =   /* index orientation relative to vertical coordinate */
(PID.TID 0000.0001)                -1.000000000000000E+00
(PID.TID 0000.0001)     ;
(PID.TID 0000.0001) gravitySign = /* gravity orientation relative to vertical coordinate */
(PID.TID 0000.0001)                -1.000000000000000E+00
(PID.TID 0000.0001)     ;
(PID.TID 0000.0001) seaLev_Z =  /* reference height of sea-level [m] */
(PID.TID 0000.0001)                 0.000000000000000E+00
(PID.TID 0000.0001)     ;
(PID.TID 0000.0001) top_Pres =  /* reference pressure at the top [Pa] */
(PID.TID 0000.0001)                 0.000000000000000E+00
(PID.TID 0000.0001)     ;
(PID.TID 0000.0001) mass2rUnit = /* convert mass per unit area [kg/m2] to r-units [m] */
(PID.TID 0000.0001)                 9.737098344693282E-04
(PID.TID 0000.0001)     ;
(PID.TID 0000.0001) rUnit2mass = /* convert r-units [m] to mass per unit area [kg/m2] */
(PID.TID 0000.0001)                 1.027000000000000E+03
(PID.TID 0000.0001)     ;
(PID.TID 0000.0001) drC =   /* C spacing ( units of r ) */
(PID.TID 0000.0001)                 5.000000000000000E+00,      /* K =  1 */
(PID.TID 0000.0001)     6 @  1.000000000000000E+01,             /* K =  2:  7 */
(PID.TID 0000.0001)                 1.000500000000000E+01,      /* K =  8 */
(PID.TID 0000.0001)                 1.002000000000000E+01,      /* K =  9 */
(PID.TID 0000.0001)                 1.007000000000000E+01,      /* K = 10 */
(PID.TID 0000.0001)                 1.021500000000000E+01,      /* K = 11 */
(PID.TID 0000.0001)                 1.056000000000000E+01,      /* K = 12 */
(PID.TID 0000.0001)                 1.128000000000000E+01,      /* K = 13 */
(PID.TID 0000.0001)                 1.259000000000000E+01,      /* K = 14 */
(PID.TID 0000.0001)                 1.473000000000000E+01,      /* K = 15 */
(PID.TID 0000.0001)                 1.793000000000000E+01,      /* K = 16 */
(PID.TID 0000.0001)                 2.233500000000000E+01,      /* K = 17 */
(PID.TID 0000.0001)                 2.797500000000000E+01,      /* K = 18 */
(PID.TID 0000.0001)                 3.476000000000001E+01,      /* K = 19 */
(PID.TID 0000.0001)                 4.246000000000000E+01,      /* K = 20 */
(PID.TID 0000.0001)                 5.075000000000000E+01,      /* K = 21 */
(PID.TID 0000.0001)                 5.925000000000000E+01,      /* K = 22 */
(PID.TID 0000.0001)                 6.753999999999999E+01,      /* K = 23 */
(PID.TID 0000.0001)                 3.579000000000000E+01       /* K = 24 */
(PID.TID 0000.0001)     ;
(PID.TID 0000.0001) drF =   /* W spacing ( units of r ) */
(PID.TID 0000.0001)     7 @  1.000000000000000E+01,             /* K =  1:  7 */
(PID.TID 0000.0001)                 1.001000000000000E+01,      /* K =  8 */
(PID.TID 0000.0001)                 1.003000000000000E+01,      /* K =  9 */
(PID.TID 0000.0001)                 1.011000000000000E+01,      /* K = 10 */
(PID.TID 0000.0001)                 1.032000000000000E+01,      /* K = 11 */
(PID.TID 0000.0001)                 1.080000000000000E+01,      /* K = 12 */
(PID.TID 0000.0001)                 1.176000000000000E+01,      /* K = 13 */
(PID.TID 0000.0001)                 1.342000000000000E+01,      /* K = 14 */
(PID.TID 0000.0001)                 1.604000000000000E+01,      /* K = 15 */
(PID.TID 0000.0001)                 1.982000000000000E+01,      /* K = 16 */
(PID.TID 0000.0001)                 2.485000000000000E+01,      /* K = 17 */
(PID.TID 0000.0001)                 3.110000000000000E+01,      /* K = 18 */
(PID.TID 0000.0001)                 3.842000000000000E+01,      /* K = 19 */
(PID.TID 0000.0001)                 4.650000000000000E+01,      /* K = 20 */
(PID.TID 0000.0001)                 5.500000000000000E+01,      /* K = 21 */
(PID.TID 0000.0001)                 6.350000000000000E+01,      /* K = 22 */
(PID.TID 0000.0001)                 7.158000000000000E+01       /* K = 23 */
(PID.TID 0000.0001)     ;
(PID.TID 0000.0001) delX = /* U spacing ( m - cartesian, degrees - spherical ) */
(PID.TID 0000.0001)                 5.000000000000000E+03       /* I =  1 */
(PID.TID 0000.0001)     ;
(PID.TID 0000.0001) delY = /* V spacing ( m - cartesian, degrees - spherical ) */
(PID.TID 0000.0001)                 5.000000000000000E+03       /* J =  1 */
(PID.TID 0000.0001)     ;
(PID.TID 0000.0001) xgOrigin = /* X-axis origin of West  edge (cartesian: m, lat-lon: deg) */
(PID.TID 0000.0001)                 0.000000000000000E+00
(PID.TID 0000.0001)     ;
(PID.TID 0000.0001) ygOrigin = /* Y-axis origin of South edge (cartesian: m, lat-lon: deg) */
(PID.TID 0000.0001)                 0.000000000000000E+00
(PID.TID 0000.0001)     ;
(PID.TID 0000.0001) rSphere =  /* Radius ( ignored - cartesian, m - spherical ) */
(PID.TID 0000.0001)                 6.370000000000000E+06
(PID.TID 0000.0001)     ;
(PID.TID 0000.0001) deepAtmosphere = /* Deep/Shallow Atmosphere flag (True/False) */
(PID.TID 0000.0001)                   F
(PID.TID 0000.0001)     ;
(PID.TID 0000.0001) xC =  /* xC(:,1,:,1) : P-point X coord ( deg. or m if cartesian) */
(PID.TID 0000.0001)                 2.500000000000000E+03       /* I =  1 */
(PID.TID 0000.0001)     ;
(PID.TID 0000.0001) yC =  /* yC(1,:,1,:) : P-point Y coord ( deg. or m if cartesian) */
(PID.TID 0000.0001)                 2.500000000000000E+03       /* J =  1 */
(PID.TID 0000.0001)     ;
(PID.TID 0000.0001) rcoord = /* P-point R coordinate (  units of r ) */
(PID.TID 0000.0001)                -5.000000000000000E+00,      /* K =  1 */
(PID.TID 0000.0001)                -1.500000000000000E+01,      /* K =  2 */
(PID.TID 0000.0001)                -2.500000000000000E+01,      /* K =  3 */
(PID.TID 0000.0001)                -3.500000000000000E+01,      /* K =  4 */
(PID.TID 0000.0001)                -4.500000000000000E+01,      /* K =  5 */
(PID.TID 0000.0001)                -5.500000000000000E+01,      /* K =  6 */
(PID.TID 0000.0001)                -6.500000000000000E+01,      /* K =  7 */
(PID.TID 0000.0001)                -7.500500000000000E+01,      /* K =  8 */
(PID.TID 0000.0001)                -8.502499999999999E+01,      /* K =  9 */
(PID.TID 0000.0001)                -9.509500000000000E+01,      /* K = 10 */
(PID.TID 0000.0001)                -1.053100000000000E+02,      /* K = 11 */
(PID.TID 0000.0001)                -1.158700000000000E+02,      /* K = 12 */
(PID.TID 0000.0001)                -1.271500000000000E+02,      /* K = 13 */
(PID.TID 0000.0001)                -1.397400000000000E+02,      /* K = 14 */
(PID.TID 0000.0001)                -1.544700000000000E+02,      /* K = 15 */
(PID.TID 0000.0001)                -1.724000000000000E+02,      /* K = 16 */
(PID.TID 0000.0001)                -1.947350000000000E+02,      /* K = 17 */
(PID.TID 0000.0001)                -2.227100000000000E+02,      /* K = 18 */
(PID.TID 0000.0001)                -2.574700000000000E+02,      /* K = 19 */
(PID.TID 0000.0001)                -2.999300000000000E+02,      /* K = 20 */
(PID.TID 0000.0001)                -3.506800000000000E+02,      /* K = 21 */
(PID.TID 0000.0001)                -4.099300000000000E+02,      /* K = 22 */
(PID.TID 0000.0001)                -4.774700000000000E+02       /* K = 23 */
(PID.TID 0000.0001)     ;
(PID.TID 0000.0001) rF =   /* W-Interf. R coordinate (  units of r ) */
(PID.TID 0000.0001)                 0.000000000000000E+00,      /* K =  1 */
(PID.TID 0000.0001)                -1.000000000000000E+01,      /* K =  2 */
(PID.TID 0000.0001)                -2.000000000000000E+01,      /* K =  3 */
(PID.TID 0000.0001)                -3.000000000000000E+01,      /* K =  4 */
(PID.TID 0000.0001)                -4.000000000000000E+01,      /* K =  5 */
(PID.TID 0000.0001)                -5.000000000000000E+01,      /* K =  6 */
(PID.TID 0000.0001)                -6.000000000000000E+01,      /* K =  7 */
(PID.TID 0000.0001)                -7.000000000000000E+01,      /* K =  8 */
(PID.TID 0000.0001)                -8.001000000000001E+01,      /* K =  9 */
(PID.TID 0000.0001)                -9.004000000000001E+01,      /* K = 10 */
(PID.TID 0000.0001)                -1.001500000000000E+02,      /* K = 11 */
(PID.TID 0000.0001)                -1.104700000000000E+02,      /* K = 12 */
(PID.TID 0000.0001)                -1.212700000000000E+02,      /* K = 13 */
(PID.TID 0000.0001)                -1.330300000000000E+02,      /* K = 14 */
(PID.TID 0000.0001)                -1.464500000000000E+02,      /* K = 15 */
(PID.TID 0000.0001)                -1.624900000000000E+02,      /* K = 16 */
(PID.TID 0000.0001)                -1.823100000000000E+02,      /* K = 17 */
(PID.TID 0000.0001)                -2.071600000000000E+02,      /* K = 18 */
(PID.TID 0000.0001)                -2.382600000000000E+02,      /* K = 19 */
(PID.TID 0000.0001)                -2.766799999999999E+02,      /* K = 20 */
(PID.TID 0000.0001)                -3.231799999999999E+02,      /* K = 21 */
(PID.TID 0000.0001)                -3.781799999999999E+02,      /* K = 22 */
(PID.TID 0000.0001)                -4.416799999999999E+02,      /* K = 23 */
(PID.TID 0000.0001)                -5.132600000000000E+02       /* K = 24 */
(PID.TID 0000.0001)     ;
(PID.TID 0000.0001) deepFacC = /* deep-model grid factor @ cell-Center (-) */
(PID.TID 0000.0001)    23 @  1.000000000000000E+00              /* K =  1: 23 */
(PID.TID 0000.0001)     ;
(PID.TID 0000.0001) deepFacF = /* deep-model grid factor @ W-Interface (-) */
(PID.TID 0000.0001)    24 @  1.000000000000000E+00              /* K =  1: 24 */
(PID.TID 0000.0001)     ;
(PID.TID 0000.0001) rVel2wUnit = /* convert units: rVel -> wSpeed (=1 if z-coord)*/
(PID.TID 0000.0001)    24 @  1.000000000000000E+00              /* K =  1: 24 */
(PID.TID 0000.0001)     ;
(PID.TID 0000.0001) wUnit2rVel = /* convert units: wSpeed -> rVel (=1 if z-coord)*/
(PID.TID 0000.0001)    24 @  1.000000000000000E+00              /* K =  1: 24 */
(PID.TID 0000.0001)     ;
(PID.TID 0000.0001) dBdrRef = /* Vertical grad. of reference buoyancy [(m/s/r)^2] */
(PID.TID 0000.0001)                 0.000000000000000E+00,      /* K =  1 */
(PID.TID 0000.0001)                 8.400626767775133E-08,      /* K =  2 */
(PID.TID 0000.0001)                 4.726438194253301E-07,      /* K =  3 */
(PID.TID 0000.0001)                 4.585615465197204E-05,      /* K =  4 */
(PID.TID 0000.0001)                 1.238246572701474E-03,      /* K =  5 */
(PID.TID 0000.0001)                 6.951801729149382E-04,      /* K =  6 */
(PID.TID 0000.0001)                 2.418966274333319E-04,      /* K =  7 */
(PID.TID 0000.0001)                 1.638092340319407E-04,      /* K =  8 */
(PID.TID 0000.0001)                 1.545442190763079E-04,      /* K =  9 */
(PID.TID 0000.0001)                 7.981944964515872E-05,      /* K = 10 */
(PID.TID 0000.0001)                 7.863895531004773E-05,      /* K = 11 */
(PID.TID 0000.0001)                 1.467275808873821E-04,      /* K = 12 */
(PID.TID 0000.0001)                 7.125354478079847E-05,      /* K = 13 */
(PID.TID 0000.0001)                 6.154857046087147E-05,      /* K = 14 */
(PID.TID 0000.0001)                 1.052015240405023E-04,      /* K = 15 */
(PID.TID 0000.0001)                 1.296240024880414E-04,      /* K = 16 */
(PID.TID 0000.0001)                 1.356071782775411E-04,      /* K = 17 */
(PID.TID 0000.0001)                 1.048037635740844E-04,      /* K = 18 */
(PID.TID 0000.0001)                 5.815235710133455E-05,      /* K = 19 */
(PID.TID 0000.0001)                 2.944026976867708E-05,      /* K = 20 */
(PID.TID 0000.0001)                 1.131184781779247E-05,      /* K = 21 */
(PID.TID 0000.0001)     2 @  0.000000000000000E+00              /* K = 22: 23 */
(PID.TID 0000.0001)     ;
(PID.TID 0000.0001) rotateGrid = /* use rotated grid ( True/False ) */
(PID.TID 0000.0001)                   F
(PID.TID 0000.0001)     ;
(PID.TID 0000.0001) phiEuler = /* Euler angle, rotation about original z-coordinate [rad] */
(PID.TID 0000.0001)                 0.000000000000000E+00
(PID.TID 0000.0001)     ;
(PID.TID 0000.0001) thetaEuler = /* Euler angle, rotation about new x-coordinate [rad] */
(PID.TID 0000.0001)                 0.000000000000000E+00
(PID.TID 0000.0001)     ;
(PID.TID 0000.0001) psiEuler = /* Euler angle, rotation about new z-coordinate [rad] */
(PID.TID 0000.0001)                 0.000000000000000E+00
(PID.TID 0000.0001)     ;
(PID.TID 0000.0001) dxF =  /* dxF(:,1,:,1) ( units: m ) */
(PID.TID 0000.0001)                 5.000000000000000E+03       /* I =  1 */
(PID.TID 0000.0001)     ;
(PID.TID 0000.0001) dxF =  /* dxF(1,:,1,:) ( units: m ) */
(PID.TID 0000.0001)                 5.000000000000000E+03       /* J =  1 */
(PID.TID 0000.0001)     ;
(PID.TID 0000.0001) dyF =  /* dyF(:,1,:,1) ( units: m ) */
(PID.TID 0000.0001)                 5.000000000000000E+03       /* I =  1 */
(PID.TID 0000.0001)     ;
(PID.TID 0000.0001) dyF =  /* dyF(1,:,1,:) ( units: m ) */
(PID.TID 0000.0001)                 5.000000000000000E+03       /* J =  1 */
(PID.TID 0000.0001)     ;
(PID.TID 0000.0001) dxG =  /* dxG(:,1,:,1) ( units: m ) */
(PID.TID 0000.0001)                 5.000000000000000E+03       /* I =  1 */
(PID.TID 0000.0001)     ;
(PID.TID 0000.0001) dxG =  /* dxG(1,:,1,:) ( units: m ) */
(PID.TID 0000.0001)                 5.000000000000000E+03       /* J =  1 */
(PID.TID 0000.0001)     ;
(PID.TID 0000.0001) dyG =  /* dyG(:,1,:,1) ( units: m ) */
(PID.TID 0000.0001)                 5.000000000000000E+03       /* I =  1 */
(PID.TID 0000.0001)     ;
(PID.TID 0000.0001) dyG =  /* dyG(1,:,1,:) ( units: m ) */
(PID.TID 0000.0001)                 5.000000000000000E+03       /* J =  1 */
(PID.TID 0000.0001)     ;
(PID.TID 0000.0001) dxC =  /* dxC(:,1,:,1) ( units: m ) */
(PID.TID 0000.0001)                 5.000000000000000E+03       /* I =  1 */
(PID.TID 0000.0001)     ;
(PID.TID 0000.0001) dxC =  /* dxC(1,:,1,:) ( units: m ) */
(PID.TID 0000.0001)                 5.000000000000000E+03       /* J =  1 */
(PID.TID 0000.0001)     ;
(PID.TID 0000.0001) dyC =  /* dyC(:,1,:,1) ( units: m ) */
(PID.TID 0000.0001)                 5.000000000000000E+03       /* I =  1 */
(PID.TID 0000.0001)     ;
(PID.TID 0000.0001) dyC =  /* dyC(1,:,1,:) ( units: m ) */
(PID.TID 0000.0001)                 5.000000000000000E+03       /* J =  1 */
(PID.TID 0000.0001)     ;
(PID.TID 0000.0001) dxV =  /* dxV(:,1,:,1) ( units: m ) */
(PID.TID 0000.0001)                 5.000000000000000E+03       /* I =  1 */
(PID.TID 0000.0001)     ;
(PID.TID 0000.0001) dxV =  /* dxV(1,:,1,:) ( units: m ) */
(PID.TID 0000.0001)                 5.000000000000000E+03       /* J =  1 */
(PID.TID 0000.0001)     ;
(PID.TID 0000.0001) dyU =  /* dyU(:,1,:,1) ( units: m ) */
(PID.TID 0000.0001)                 5.000000000000000E+03       /* I =  1 */
(PID.TID 0000.0001)     ;
(PID.TID 0000.0001) dyU =  /* dyU(1,:,1,:) ( units: m ) */
(PID.TID 0000.0001)                 5.000000000000000E+03       /* J =  1 */
(PID.TID 0000.0001)     ;
(PID.TID 0000.0001) rA  =  /* rA (:,1,:,1) ( units: m^2 ) */
(PID.TID 0000.0001)                 2.500000000000000E+07       /* I =  1 */
(PID.TID 0000.0001)     ;
(PID.TID 0000.0001) rA  =  /* rA (1,:,1,:) ( units: m^2 ) */
(PID.TID 0000.0001)                 2.500000000000000E+07       /* J =  1 */
(PID.TID 0000.0001)     ;
(PID.TID 0000.0001) rAw =  /* rAw(:,1,:,1) ( units: m^2 ) */
(PID.TID 0000.0001)                 2.500000000000000E+07       /* I =  1 */
(PID.TID 0000.0001)     ;
(PID.TID 0000.0001) rAw =  /* rAw(1,:,1,:) ( units: m^2 ) */
(PID.TID 0000.0001)                 2.500000000000000E+07       /* J =  1 */
(PID.TID 0000.0001)     ;
(PID.TID 0000.0001) rAs =  /* rAs(:,1,:,1) ( units: m^2 ) */
(PID.TID 0000.0001)                 2.500000000000000E+07       /* I =  1 */
(PID.TID 0000.0001)     ;
(PID.TID 0000.0001) rAs =  /* rAs(1,:,1,:) ( units: m^2 ) */
(PID.TID 0000.0001)                 2.500000000000000E+07       /* J =  1 */
(PID.TID 0000.0001)     ;
(PID.TID 0000.0001) globalArea = /* Integrated horizontal Area (m^2) */
(PID.TID 0000.0001)                 2.500000000000000E+07
(PID.TID 0000.0001)     ;
(PID.TID 0000.0001) // =======================================================
(PID.TID 0000.0001) // End of Model config. summary
(PID.TID 0000.0001) // =======================================================
(PID.TID 0000.0001) 
(PID.TID 0000.0001) == Packages configuration : Check & print summary ==
(PID.TID 0000.0001) 
(PID.TID 0000.0001) KPP_CHECK: #define ALLOW_KPP
(PID.TID 0000.0001)  kpp_freq = /* frequency of KPP calculation */
(PID.TID 0000.0001)                 3.600000000000000E+03
(PID.TID 0000.0001)     ;
(PID.TID 0000.0001) KPP_ghatUseTotalDiffus= /* non-local term fct of total diffus */
(PID.TID 0000.0001)                   T
(PID.TID 0000.0001)     ;
(PID.TID 0000.0001) KPPuseDoubleDiff = /* include double diffusive contrib */
(PID.TID 0000.0001)                   F
(PID.TID 0000.0001)     ;
(PID.TID 0000.0001) LimitHblStable = /* limits depth of hbl if stable cond.*/
(PID.TID 0000.0001)                   T
(PID.TID 0000.0001)     ;
(PID.TID 0000.0001)  minKPPhbl = /* minimum KPPhbl value [m] */
(PID.TID 0000.0001)                 5.000000000000000E+00
(PID.TID 0000.0001)     ;
(PID.TID 0000.0001)  epsln     = /* constant [-] */
(PID.TID 0000.0001)                 9.999999999999999E-21
(PID.TID 0000.0001)     ;
(PID.TID 0000.0001)  phepsi    = /* constant [-] */
(PID.TID 0000.0001)                 1.000000000000000E-10
(PID.TID 0000.0001)     ;
(PID.TID 0000.0001)  epsilon   = /* constant [-] */
(PID.TID 0000.0001)                 1.000000000000000E-01
(PID.TID 0000.0001)     ;
(PID.TID 0000.0001)  vonk      = /* Von Karmans constant [-] */
(PID.TID 0000.0001)                 4.000000000000000E-01
(PID.TID 0000.0001)     ;
(PID.TID 0000.0001)  dB_dz     = /* maximum N^2 in mixed layer [s^-2] */
(PID.TID 0000.0001)                 5.200000000000000E-05
(PID.TID 0000.0001)     ;
(PID.TID 0000.0001)  conc1     = /* scalar constant [-] */
(PID.TID 0000.0001)                 5.000000000000000E+00
(PID.TID 0000.0001)     ;
(PID.TID 0000.0001)  conam     = /* scalar constant [-] */
(PID.TID 0000.0001)                 1.257000000000000E+00
(PID.TID 0000.0001)     ;
(PID.TID 0000.0001)  concm     = /* scalar constant [-] */
(PID.TID 0000.0001)                 8.380000000000001E+00
(PID.TID 0000.0001)     ;
(PID.TID 0000.0001)  conc2     = /* scalar constant [-] */
(PID.TID 0000.0001)                 1.600000000000000E+01
(PID.TID 0000.0001)     ;
(PID.TID 0000.0001)  conas     = /* scalar constant [-] */
(PID.TID 0000.0001)                -2.886000000000000E+01
(PID.TID 0000.0001)     ;
(PID.TID 0000.0001)  concs     = /* scalar constant [-] */
(PID.TID 0000.0001)                 9.895999999999999E+01
(PID.TID 0000.0001)     ;
(PID.TID 0000.0001)  conc3     = /* scalar constant [-] */
(PID.TID 0000.0001)                 1.600000000000000E+01
(PID.TID 0000.0001)     ;
(PID.TID 0000.0001)  zetam     = /* scalar constant [-] */
(PID.TID 0000.0001)                -2.000000000000000E-01
(PID.TID 0000.0001)     ;
(PID.TID 0000.0001)  zetas     = /* scalar constant [-] */
(PID.TID 0000.0001)                -1.000000000000000E+00
(PID.TID 0000.0001)     ;
(PID.TID 0000.0001)  Ricr      = /* critical bulk Richardson Number [-] */
(PID.TID 0000.0001)                 3.000000000000000E-01
(PID.TID 0000.0001)     ;
(PID.TID 0000.0001)  cekman    = /* coeff for Ekman depth [-] */
(PID.TID 0000.0001)                 7.000000000000000E-01
(PID.TID 0000.0001)     ;
(PID.TID 0000.0001)  cmonob    = /* coeff for Monin-Obukhov depth [-] */
(PID.TID 0000.0001)                 1.000000000000000E+00
(PID.TID 0000.0001)     ;
(PID.TID 0000.0001)  concv     = /* buoyancy freq ratio [-] */
(PID.TID 0000.0001)                 1.800000000000000E+00
(PID.TID 0000.0001)     ;
(PID.TID 0000.0001)  hbf       = /* solar radiation depth ratio [-] */
(PID.TID 0000.0001)                 1.000000000000000E+00
(PID.TID 0000.0001)     ;
(PID.TID 0000.0001)  zmin      = /* minimum for zehat in table [m3/s3] */
(PID.TID 0000.0001)                -4.000000000000000E-07
(PID.TID 0000.0001)     ;
(PID.TID 0000.0001)  zmax      = /* maximum for zehat in table [m3/s3] */
(PID.TID 0000.0001)                 0.000000000000000E+00
(PID.TID 0000.0001)     ;
(PID.TID 0000.0001)  umin      = /* minimum for ustar in table [m/s] */
(PID.TID 0000.0001)                 0.000000000000000E+00
(PID.TID 0000.0001)     ;
(PID.TID 0000.0001)  umax      = /* maximum for ustar in table [m/s] */
(PID.TID 0000.0001)                 4.000000000000000E-02
(PID.TID 0000.0001)     ;
(PID.TID 0000.0001) num_v_smooth_Ri = /* number of vertical smoothing */
(PID.TID 0000.0001)                       0
(PID.TID 0000.0001)     ;
(PID.TID 0000.0001)  Riinfty   = /* shear instability Ri number limit [-] */
(PID.TID 0000.0001)                 7.000000000000000E-01
(PID.TID 0000.0001)     ;
(PID.TID 0000.0001)  BVSQcon   = /* Brunt-Vaisala squared (=N^2) [s^-2] */
(PID.TID 0000.0001)                -2.000000000000000E-05
(PID.TID 0000.0001)     ;
(PID.TID 0000.0001)  difm0     = /* max viscosity from shear instab. [m2/s] */
(PID.TID 0000.0001)                 5.000000000000000E-03
(PID.TID 0000.0001)     ;
(PID.TID 0000.0001)  difs0     = /* max diffusiv. from shear instab. [m2/s] */
(PID.TID 0000.0001)                 5.000000000000000E-03
(PID.TID 0000.0001)     ;
(PID.TID 0000.0001)  dift0     = /* max diffusiv. from shear instab. [m2/s] */
(PID.TID 0000.0001)                 5.000000000000000E-03
(PID.TID 0000.0001)     ;
(PID.TID 0000.0001)  difmcon   = /* convective viscosity [m2/s] */
(PID.TID 0000.0001)                 1.000000000000000E-01
(PID.TID 0000.0001)     ;
(PID.TID 0000.0001)  difscon   = /* convective diffusiv. [m2/s] */
(PID.TID 0000.0001)                 1.000000000000000E-01
(PID.TID 0000.0001)     ;
(PID.TID 0000.0001)  diftcon   = /* convective diffusiv. [m2/s] */
(PID.TID 0000.0001)                 1.000000000000000E-01
(PID.TID 0000.0001)     ;
(PID.TID 0000.0001)  Rrho0     = /* double diffusion density ratio [-] */
(PID.TID 0000.0001)                 1.900000000000000E+00
(PID.TID 0000.0001)     ;
(PID.TID 0000.0001)  dsfmax    = /* max diffusiv. for salt fingering [m2/s] */
(PID.TID 0000.0001)                 1.000000000000000E-02
(PID.TID 0000.0001)     ;
(PID.TID 0000.0001)  cstar     = /* coeff for non-locak transport [-] */
(PID.TID 0000.0001)                 1.000000000000000E+01
(PID.TID 0000.0001)     ;
(PID.TID 0000.0001) KPPwriteState = /* write KPP fields to file */
(PID.TID 0000.0001)                   T
(PID.TID 0000.0001)     ;
(PID.TID 0000.0001)  kpp_dumpFreq = /* dump freq of KPP output */
(PID.TID 0000.0001)                 0.000000000000000E+00
(PID.TID 0000.0001)     ;
(PID.TID 0000.0001)  kpp_taveFreq = /* time-averaging freq of KPP output */
(PID.TID 0000.0001)                 0.000000000000000E+00
(PID.TID 0000.0001)     ;
(PID.TID 0000.0001) 
(PID.TID 0000.0001) EXF_CHECK: #define ALLOW_EXF
(PID.TID 0000.0001) SEAICE_CHECK: #define ALLOW_SEAICE
(PID.TID 0000.0001) CTRL_CHECK: #define ALLOW_CTRL
(PID.TID 0000.0001) COST_CHECK: #define ALLOW_COST
(PID.TID 0000.0001) GRDCHK_CHECK: grdchk package
(PID.TID 0000.0001) GAD_CHECK: #define ALLOW_GENERIC_ADVDIFF
(PID.TID 0000.0001) // =======================================================
(PID.TID 0000.0001) // Check Model config. (CONFIG_CHECK):
(PID.TID 0000.0001) // CONFIG_CHECK : Normal End
(PID.TID 0000.0001) // =======================================================
(PID.TID 0000.0001) 
(PID.TID 0000.0001) Start initial hydrostatic pressure computation
(PID.TID 0000.0001) Pressure is predetermined for buoyancyRelation OCEANIC
(PID.TID 0000.0001) 
(PID.TID 0000.0001) // =======================================================
(PID.TID 0000.0001) // Begin MONITOR dynamic field statistics
(PID.TID 0000.0001) // =======================================================
(PID.TID 0000.0001) %MON time_tsnumber                =                     0
(PID.TID 0000.0001) %MON time_secondsf                =   0.0000000000000E+00
(PID.TID 0000.0001) %MON dynstat_eta_max              =   0.0000000000000E+00
(PID.TID 0000.0001) %MON dynstat_eta_min              =   0.0000000000000E+00
(PID.TID 0000.0001) %MON dynstat_eta_mean             =   0.0000000000000E+00
(PID.TID 0000.0001) %MON dynstat_eta_sd               =   0.0000000000000E+00
(PID.TID 0000.0001) %MON dynstat_eta_del2             =   0.0000000000000E+00
(PID.TID 0000.0001) %MON dynstat_uvel_max             =   0.0000000000000E+00
(PID.TID 0000.0001) %MON dynstat_uvel_min             =   0.0000000000000E+00
(PID.TID 0000.0001) %MON dynstat_uvel_mean            =   0.0000000000000E+00
(PID.TID 0000.0001) %MON dynstat_uvel_sd              =   0.0000000000000E+00
(PID.TID 0000.0001) %MON dynstat_uvel_del2            =   0.0000000000000E+00
(PID.TID 0000.0001) %MON dynstat_vvel_max             =   0.0000000000000E+00
(PID.TID 0000.0001) %MON dynstat_vvel_min             =   0.0000000000000E+00
(PID.TID 0000.0001) %MON dynstat_vvel_mean            =   0.0000000000000E+00
(PID.TID 0000.0001) %MON dynstat_vvel_sd              =   0.0000000000000E+00
(PID.TID 0000.0001) %MON dynstat_vvel_del2            =   0.0000000000000E+00
(PID.TID 0000.0001) %MON dynstat_wvel_max             =  -0.0000000000000E+00
(PID.TID 0000.0001) %MON dynstat_wvel_min             =  -0.0000000000000E+00
(PID.TID 0000.0001) %MON dynstat_wvel_mean            =   0.0000000000000E+00
(PID.TID 0000.0001) %MON dynstat_wvel_sd              =   0.0000000000000E+00
(PID.TID 0000.0001) %MON dynstat_wvel_del2            =   0.0000000000000E+00
(PID.TID 0000.0001) %MON dynstat_theta_max            =   5.0000000000000E-01
(PID.TID 0000.0001) %MON dynstat_theta_min            =  -1.9320000000000E+00
(PID.TID 0000.0001) %MON dynstat_theta_mean           =  -4.2392549585006E-01
(PID.TID 0000.0001) %MON dynstat_theta_sd             =   8.7853912549962E-01
(PID.TID 0000.0001) %MON dynstat_theta_del2           =   0.0000000000000E+00
(PID.TID 0000.0001) %MON dynstat_salt_max             =   3.4800000000000E+01
(PID.TID 0000.0001) %MON dynstat_salt_min             =   2.9007900000000E+01
(PID.TID 0000.0001) %MON dynstat_salt_mean            =   3.3593044460897E+01
(PID.TID 0000.0001) %MON dynstat_salt_sd              =   1.6851473101234E+00
(PID.TID 0000.0001) %MON dynstat_salt_del2            =   0.0000000000000E+00
(PID.TID 0000.0001) %MON dynstat_sst_max              =  -1.9300000000000E+00
(PID.TID 0000.0001) %MON dynstat_sst_min              =  -1.9300000000000E+00
(PID.TID 0000.0001) %MON dynstat_sst_mean             =  -1.9300000000000E+00
(PID.TID 0000.0001) %MON dynstat_sst_sd               =   0.0000000000000E+00
(PID.TID 0000.0001) %MON dynstat_sst_del2             =   0.0000000000000E+00
(PID.TID 0000.0001) %MON dynstat_sss_max              =   2.9007900000000E+01
(PID.TID 0000.0001) %MON dynstat_sss_min              =   2.9007900000000E+01
(PID.TID 0000.0001) %MON dynstat_sss_mean             =   2.9007900000000E+01
(PID.TID 0000.0001) %MON dynstat_sss_sd               =   0.0000000000000E+00
(PID.TID 0000.0001) %MON dynstat_sss_del2             =   0.0000000000000E+00
(PID.TID 0000.0001) %MON forcing_qnet_max             =   0.0000000000000E+00
(PID.TID 0000.0001) %MON forcing_qnet_min             =   0.0000000000000E+00
(PID.TID 0000.0001) %MON forcing_qnet_mean            =   0.0000000000000E+00
(PID.TID 0000.0001) %MON forcing_qnet_sd              =   0.0000000000000E+00
(PID.TID 0000.0001) %MON forcing_qnet_del2            =   0.0000000000000E+00
(PID.TID 0000.0001) %MON forcing_qsw_max              =   0.0000000000000E+00
(PID.TID 0000.0001) %MON forcing_qsw_min              =   0.0000000000000E+00
(PID.TID 0000.0001) %MON forcing_qsw_mean             =   0.0000000000000E+00
(PID.TID 0000.0001) %MON forcing_qsw_sd               =   0.0000000000000E+00
(PID.TID 0000.0001) %MON forcing_qsw_del2             =   0.0000000000000E+00
(PID.TID 0000.0001) %MON forcing_empmr_max            =   0.0000000000000E+00
(PID.TID 0000.0001) %MON forcing_empmr_min            =   0.0000000000000E+00
(PID.TID 0000.0001) %MON forcing_empmr_mean           =   0.0000000000000E+00
(PID.TID 0000.0001) %MON forcing_empmr_sd             =   0.0000000000000E+00
(PID.TID 0000.0001) %MON forcing_empmr_del2           =   0.0000000000000E+00
(PID.TID 0000.0001) %MON forcing_fu_max               =   0.0000000000000E+00
(PID.TID 0000.0001) %MON forcing_fu_min               =   0.0000000000000E+00
(PID.TID 0000.0001) %MON forcing_fu_mean              =   0.0000000000000E+00
(PID.TID 0000.0001) %MON forcing_fu_sd                =   0.0000000000000E+00
(PID.TID 0000.0001) %MON forcing_fu_del2              =   0.0000000000000E+00
(PID.TID 0000.0001) %MON forcing_fv_max               =   0.0000000000000E+00
(PID.TID 0000.0001) %MON forcing_fv_min               =   0.0000000000000E+00
(PID.TID 0000.0001) %MON forcing_fv_mean              =   0.0000000000000E+00
(PID.TID 0000.0001) %MON forcing_fv_sd                =   0.0000000000000E+00
(PID.TID 0000.0001) %MON forcing_fv_del2              =   0.0000000000000E+00
(PID.TID 0000.0001) %MON trAdv_CFL_u_max              =   0.0000000000000E+00
(PID.TID 0000.0001) %MON trAdv_CFL_v_max              =   0.0000000000000E+00
(PID.TID 0000.0001) %MON trAdv_CFL_w_max              =   0.0000000000000E+00
(PID.TID 0000.0001) %MON advcfl_uvel_max              =   0.0000000000000E+00
(PID.TID 0000.0001) %MON advcfl_vvel_max              =   0.0000000000000E+00
(PID.TID 0000.0001) %MON advcfl_wvel_max              =   0.0000000000000E+00
(PID.TID 0000.0001) %MON advcfl_W_hf_max              =   0.0000000000000E+00
(PID.TID 0000.0001) %MON pe_b_mean                    =   0.0000000000000E+00
(PID.TID 0000.0001) %MON ke_max                       =   0.0000000000000E+00
(PID.TID 0000.0001) %MON ke_mean                      =   0.0000000000000E+00
(PID.TID 0000.0001) %MON ke_vol                       =   1.2831500000000E+10
(PID.TID 0000.0001) %MON vort_r_min                   =   0.0000000000000E+00
(PID.TID 0000.0001) %MON vort_r_max                   =   0.0000000000000E+00
(PID.TID 0000.0001) %MON vort_a_mean                  =   1.0000000000000E-04
(PID.TID 0000.0001) %MON vort_a_sd                    =   0.0000000000000E+00
(PID.TID 0000.0001) %MON vort_p_mean                  =   1.0000000000000E-04
(PID.TID 0000.0001) %MON vort_p_sd                    =   0.0000000000000E+00
(PID.TID 0000.0001) %MON surfExpan_theta_mean         =   0.0000000000000E+00
(PID.TID 0000.0001) %MON surfExpan_salt_mean          =   0.0000000000000E+00
(PID.TID 0000.0001) // =======================================================
(PID.TID 0000.0001) // End MONITOR dynamic field statistics
(PID.TID 0000.0001) // =======================================================
(PID.TID 0000.0001) // =======================================================
(PID.TID 0000.0001) // Begin MONITOR SEAICE statistics
(PID.TID 0000.0001) // =======================================================
(PID.TID 0000.0001) %MON seaice_tsnumber              =                     0
(PID.TID 0000.0001) %MON seaice_time_sec              =   0.0000000000000E+00
(PID.TID 0000.0001) %MON seaice_uice_max              =   0.0000000000000E+00
(PID.TID 0000.0001) %MON seaice_uice_min              =   0.0000000000000E+00
(PID.TID 0000.0001) %MON seaice_uice_mean             =   0.0000000000000E+00
(PID.TID 0000.0001) %MON seaice_uice_sd               =   0.0000000000000E+00
(PID.TID 0000.0001) %MON seaice_uice_del2             =   0.0000000000000E+00
(PID.TID 0000.0001) %MON seaice_vice_max              =   0.0000000000000E+00
(PID.TID 0000.0001) %MON seaice_vice_min              =   0.0000000000000E+00
(PID.TID 0000.0001) %MON seaice_vice_mean             =   0.0000000000000E+00
(PID.TID 0000.0001) %MON seaice_vice_sd               =   0.0000000000000E+00
(PID.TID 0000.0001) %MON seaice_vice_del2             =   0.0000000000000E+00
(PID.TID 0000.0001) %MON seaice_area_max              =   0.0000000000000E+00
(PID.TID 0000.0001) %MON seaice_area_min              =   0.0000000000000E+00
(PID.TID 0000.0001) %MON seaice_area_mean             =   0.0000000000000E+00
(PID.TID 0000.0001) %MON seaice_area_sd               =   0.0000000000000E+00
(PID.TID 0000.0001) %MON seaice_area_del2             =   0.0000000000000E+00
(PID.TID 0000.0001) %MON seaice_heff_max              =   0.0000000000000E+00
(PID.TID 0000.0001) %MON seaice_heff_min              =   0.0000000000000E+00
(PID.TID 0000.0001) %MON seaice_heff_mean             =   0.0000000000000E+00
(PID.TID 0000.0001) %MON seaice_heff_sd               =   0.0000000000000E+00
(PID.TID 0000.0001) %MON seaice_heff_del2             =   0.0000000000000E+00
(PID.TID 0000.0001) %MON seaice_hsnow_max             =   0.0000000000000E+00
(PID.TID 0000.0001) %MON seaice_hsnow_min             =   0.0000000000000E+00
(PID.TID 0000.0001) %MON seaice_hsnow_mean            =   0.0000000000000E+00
(PID.TID 0000.0001) %MON seaice_hsnow_sd              =   0.0000000000000E+00
(PID.TID 0000.0001) %MON seaice_hsnow_del2            =   0.0000000000000E+00
(PID.TID 0000.0001) %MON seaice_hsalt_max             =   0.0000000000000E+00
(PID.TID 0000.0001) %MON seaice_hsalt_min             =   0.0000000000000E+00
(PID.TID 0000.0001) %MON seaice_hsalt_mean            =   0.0000000000000E+00
(PID.TID 0000.0001) %MON seaice_hsalt_sd              =   0.0000000000000E+00
(PID.TID 0000.0001) %MON seaice_hsalt_del2            =   0.0000000000000E+00
(PID.TID 0000.0001) // =======================================================
(PID.TID 0000.0001) // End MONITOR SEAICE statistics
(PID.TID 0000.0001) // =======================================================
(PID.TID 0000.0001) // =======================================================
(PID.TID 0000.0001) // Begin MONITOR EXF statistics
(PID.TID 0000.0001) // =======================================================
(PID.TID 0000.0001) %MON exf_tsnumber                 =                     0
(PID.TID 0000.0001) %MON exf_time_sec                 =   0.0000000000000E+00
(PID.TID 0000.0001) %MON exf_ustress_max              =   5.9520928469939E-03
(PID.TID 0000.0001) %MON exf_ustress_min              =   5.9520928469939E-03
(PID.TID 0000.0001) %MON exf_ustress_mean             =   5.9520928469939E-03
(PID.TID 0000.0001) %MON exf_ustress_sd               =   8.6736173798840E-19
(PID.TID 0000.0001) %MON exf_ustress_del2             =   0.0000000000000E+00
(PID.TID 0000.0001) %MON exf_vstress_max              =   5.9520928469939E-03
(PID.TID 0000.0001) %MON exf_vstress_min              =   5.9520928469939E-03
(PID.TID 0000.0001) %MON exf_vstress_mean             =   5.9520928469939E-03
(PID.TID 0000.0001) %MON exf_vstress_sd               =   8.6736173798840E-19
(PID.TID 0000.0001) %MON exf_vstress_del2             =   0.0000000000000E+00
(PID.TID 0000.0001) %MON exf_hflux_max                =   2.3771234124791E+02
(PID.TID 0000.0001) %MON exf_hflux_min                =   2.3771234124791E+02
(PID.TID 0000.0001) %MON exf_hflux_mean               =   2.3771234124791E+02
(PID.TID 0000.0001) %MON exf_hflux_sd                 =   0.0000000000000E+00
(PID.TID 0000.0001) %MON exf_hflux_del2               =   6.7235203387250E+02
(PID.TID 0000.0001) %MON exf_sflux_max                =   2.0657967531776E-08
(PID.TID 0000.0001) %MON exf_sflux_min                =   2.0657967531776E-08
(PID.TID 0000.0001) %MON exf_sflux_mean               =   2.0657967531776E-08
(PID.TID 0000.0001) %MON exf_sflux_sd                 =   0.0000000000000E+00
(PID.TID 0000.0001) %MON exf_sflux_del2               =   5.8429555709000E-08
(PID.TID 0000.0001) %MON exf_uwind_max                =   1.0000000000000E+00
(PID.TID 0000.0001) %MON exf_uwind_min                =   1.0000000000000E+00
(PID.TID 0000.0001) %MON exf_uwind_mean               =   1.0000000000000E+00
(PID.TID 0000.0001) %MON exf_uwind_sd                 =   0.0000000000000E+00
(PID.TID 0000.0001) %MON exf_uwind_del2               =   2.8284271247462E+00
(PID.TID 0000.0001) %MON exf_vwind_max                =   1.0000000000000E+00
(PID.TID 0000.0001) %MON exf_vwind_min                =   1.0000000000000E+00
(PID.TID 0000.0001) %MON exf_vwind_mean               =   1.0000000000000E+00
(PID.TID 0000.0001) %MON exf_vwind_sd                 =   0.0000000000000E+00
(PID.TID 0000.0001) %MON exf_vwind_del2               =   2.8284271247462E+00
(PID.TID 0000.0001) %MON exf_wspeed_max               =   1.4142135623731E+00
(PID.TID 0000.0001) %MON exf_wspeed_min               =   1.4142135623731E+00
(PID.TID 0000.0001) %MON exf_wspeed_mean              =   1.4142135623731E+00
(PID.TID 0000.0001) %MON exf_wspeed_sd                =   0.0000000000000E+00
(PID.TID 0000.0001) %MON exf_wspeed_del2              =   4.0000000000000E+00
(PID.TID 0000.0001) %MON exf_atemp_max                =   2.5300109100342E+02
(PID.TID 0000.0001) %MON exf_atemp_min                =   2.5300109100342E+02
(PID.TID 0000.0001) %MON exf_atemp_mean               =   2.5300109100342E+02
(PID.TID 0000.0001) %MON exf_atemp_sd                 =   0.0000000000000E+00
(PID.TID 0000.0001) %MON exf_atemp_del2               =   5.7018005011223E+01
(PID.TID 0000.0001) %MON exf_lwflux_max               =   1.0645410928315E+02
(PID.TID 0000.0001) %MON exf_lwflux_min               =   1.0645410928315E+02
(PID.TID 0000.0001) %MON exf_lwflux_mean              =   1.0645410928315E+02
(PID.TID 0000.0001) %MON exf_lwflux_sd                =   0.0000000000000E+00
(PID.TID 0000.0001) %MON exf_lwflux_del2              =   3.0109769023715E+02
(PID.TID 0000.0001) %MON exf_evap_max                 =   2.0657967531776E-08
(PID.TID 0000.0001) %MON exf_evap_min                 =   2.0657967531776E-08
(PID.TID 0000.0001) %MON exf_evap_mean                =   2.0657967531776E-08
(PID.TID 0000.0001) %MON exf_evap_sd                  =   0.0000000000000E+00
(PID.TID 0000.0001) %MON exf_evap_del2                =   5.8429555709000E-08
(PID.TID 0000.0001) %MON exf_swflux_max               =  -1.9420749807358E+01
(PID.TID 0000.0001) %MON exf_swflux_min               =  -1.9420749807358E+01
(PID.TID 0000.0001) %MON exf_swflux_mean              =  -1.9420749807358E+01
(PID.TID 0000.0001) %MON exf_swflux_sd                =   0.0000000000000E+00
(PID.TID 0000.0001) %MON exf_swflux_del2              =   5.4930175538040E+01
(PID.TID 0000.0001) %MON exf_swdown_max               =   2.1578610897064E+01
(PID.TID 0000.0001) %MON exf_swdown_min               =   2.1578610897064E+01
(PID.TID 0000.0001) %MON exf_swdown_mean              =   2.1578610897064E+01
(PID.TID 0000.0001) %MON exf_swdown_sd                =   0.0000000000000E+00
(PID.TID 0000.0001) %MON exf_swdown_del2              =   6.1033528375600E+01
(PID.TID 0000.0001) %MON exf_lwdown_max               =   1.9115727233887E+02
(PID.TID 0000.0001) %MON exf_lwdown_min               =   1.9115727233887E+02
(PID.TID 0000.0001) %MON exf_lwdown_mean              =   1.9115727233887E+02
(PID.TID 0000.0001) %MON exf_lwdown_sd                =   0.0000000000000E+00
(PID.TID 0000.0001) %MON exf_lwdown_del2              =   5.4067441417575E+02
(PID.TID 0000.0001) // =======================================================
(PID.TID 0000.0001) // End MONITOR EXF statistics
(PID.TID 0000.0001) // =======================================================
 ph-ice B            0  -1.9299999999999999       3.19162471080251071E-003  1.59581235540125536E-003
 ph-ice C            0   7978.8401425578732     
(PID.TID 0000.0001) SOLVE_FOR_PRESSURE: putPmEinXvector =    F
 cg2d: Sum(rhs),rhsMax =   1.00000000000000E+00  5.58645366562891E-06
(PID.TID 0000.0001)      cg2d_init_res =   1.00000000000000E+00
(PID.TID 0000.0001)      cg2d_iters(min,last) =      -1       1
(PID.TID 0000.0001)      cg2d_last_res =   1.11022302462516E-16
(PID.TID 0000.0001) // =======================================================
(PID.TID 0000.0001) // Begin MONITOR dynamic field statistics
(PID.TID 0000.0001) // =======================================================
(PID.TID 0000.0001) %MON time_tsnumber                =                     1
(PID.TID 0000.0001) %MON time_secondsf                =   3.6000000000000E+03
(PID.TID 0000.0001) %MON dynstat_eta_max              =  -1.4864099832467E-03
(PID.TID 0000.0001) %MON dynstat_eta_min              =  -1.4864099832467E-03
(PID.TID 0000.0001) %MON dynstat_eta_mean             =  -1.4864099832467E-03
(PID.TID 0000.0001) %MON dynstat_eta_sd               =   0.0000000000000E+00
(PID.TID 0000.0001) %MON dynstat_eta_del2             =   0.0000000000000E+00
(PID.TID 0000.0001) %MON dynstat_uvel_max             =   1.4545636471253E-03
(PID.TID 0000.0001) %MON dynstat_uvel_min             =   1.6617396860077E-71
(PID.TID 0000.0001) %MON dynstat_uvel_mean            =   4.0650354258764E-05
(PID.TID 0000.0001) %MON dynstat_uvel_sd              =   2.1109638199881E-04
(PID.TID 0000.0001) %MON dynstat_uvel_del2            =   0.0000000000000E+00
(PID.TID 0000.0001) %MON dynstat_vvel_max             =   1.4545636471253E-03
(PID.TID 0000.0001) %MON dynstat_vvel_min             =   1.6617396860077E-71
(PID.TID 0000.0001) %MON dynstat_vvel_mean            =   4.0650354258764E-05
(PID.TID 0000.0001) %MON dynstat_vvel_sd              =   2.1109638199881E-04
(PID.TID 0000.0001) %MON dynstat_vvel_del2            =   0.0000000000000E+00
(PID.TID 0000.0001) %MON dynstat_wvel_max             =  -0.0000000000000E+00
(PID.TID 0000.0001) %MON dynstat_wvel_min             =  -0.0000000000000E+00
(PID.TID 0000.0001) %MON dynstat_wvel_mean            =   0.0000000000000E+00
(PID.TID 0000.0001) %MON dynstat_wvel_sd              =   0.0000000000000E+00
(PID.TID 0000.0001) %MON dynstat_wvel_del2            =   0.0000000000000E+00
(PID.TID 0000.0001) %MON dynstat_theta_max            =   4.9999999999901E-01
(PID.TID 0000.0001) %MON dynstat_theta_min            =  -1.9277414181067E+00
(PID.TID 0000.0001) %MON dynstat_theta_mean           =  -4.2410194369038E-01
(PID.TID 0000.0001) %MON dynstat_theta_sd             =   8.7835103825375E-01
(PID.TID 0000.0001) %MON dynstat_theta_del2           =   0.0000000000000E+00
(PID.TID 0000.0001) %MON dynstat_salt_max             =   3.4800000000000E+01
(PID.TID 0000.0001) %MON dynstat_salt_min             =   2.9009178182179E+01
(PID.TID 0000.0001) %MON dynstat_salt_mean            =   3.3593104493601E+01
(PID.TID 0000.0001) %MON dynstat_salt_sd              =   1.6849810426860E+00
(PID.TID 0000.0001) %MON dynstat_salt_del2            =   0.0000000000000E+00
(PID.TID 0000.0001) %MON dynstat_sst_max              =  -1.9277414181067E+00
(PID.TID 0000.0001) %MON dynstat_sst_min              =  -1.9277414181067E+00
(PID.TID 0000.0001) %MON dynstat_sst_mean             =  -1.9277414181067E+00
(PID.TID 0000.0001) %MON dynstat_sst_sd               =   0.0000000000000E+00
(PID.TID 0000.0001) %MON dynstat_sst_del2             =   0.0000000000000E+00
(PID.TID 0000.0001) %MON dynstat_sss_max              =   2.9009178182179E+01
(PID.TID 0000.0001) %MON dynstat_sss_min              =   2.9009178182179E+01
(PID.TID 0000.0001) %MON dynstat_sss_mean             =   2.9009178182179E+01
(PID.TID 0000.0001) %MON dynstat_sss_sd               =   0.0000000000000E+00
(PID.TID 0000.0001) %MON dynstat_sss_del2             =   0.0000000000000E+00
(PID.TID 0000.0001) %MON forcing_qnet_max             =   1.0298145033106E+02
(PID.TID 0000.0001) %MON forcing_qnet_min             =   1.0298145033106E+02
(PID.TID 0000.0001) %MON forcing_qnet_mean            =   1.0298145033106E+02
(PID.TID 0000.0001) %MON forcing_qnet_sd              =   0.0000000000000E+00
(PID.TID 0000.0001) %MON forcing_qnet_del2            =   0.0000000000000E+00
(PID.TID 0000.0001) %MON forcing_qsw_max              =  -1.9420749807358E+01
(PID.TID 0000.0001) %MON forcing_qsw_min              =  -1.9420749807358E+01
(PID.TID 0000.0001) %MON forcing_qsw_mean             =  -1.9420749807358E+01
(PID.TID 0000.0001) %MON forcing_qsw_sd               =   0.0000000000000E+00
(PID.TID 0000.0001) %MON forcing_qsw_del2             =   0.0000000000000E+00
(PID.TID 0000.0001) %MON forcing_empmr_max            =   4.2403973688692E-04
(PID.TID 0000.0001) %MON forcing_empmr_min            =   4.2403973688692E-04
(PID.TID 0000.0001) %MON forcing_empmr_mean           =   4.2403973688692E-04
(PID.TID 0000.0001) %MON forcing_empmr_sd             =   0.0000000000000E+00
(PID.TID 0000.0001) %MON forcing_empmr_del2           =   0.0000000000000E+00
(PID.TID 0000.0001) %MON forcing_fu_max               =   5.9520928469939E-03
(PID.TID 0000.0001) %MON forcing_fu_min               =   5.9520928469939E-03
(PID.TID 0000.0001) %MON forcing_fu_mean              =   5.9520928469939E-03
(PID.TID 0000.0001) %MON forcing_fu_sd                =   8.6736173798840E-19
(PID.TID 0000.0001) %MON forcing_fu_del2              =   0.0000000000000E+00
(PID.TID 0000.0001) %MON forcing_fv_max               =   5.9520928469939E-03
(PID.TID 0000.0001) %MON forcing_fv_min               =   5.9520928469939E-03
(PID.TID 0000.0001) %MON forcing_fv_mean              =   5.9520928469939E-03
(PID.TID 0000.0001) %MON forcing_fv_sd                =   8.6736173798840E-19
(PID.TID 0000.0001) %MON forcing_fv_del2              =   0.0000000000000E+00
(PID.TID 0000.0001) %MON trAdv_CFL_u_max              =   1.0472858259302E-03
(PID.TID 0000.0001) %MON trAdv_CFL_v_max              =   1.0472858259302E-03
(PID.TID 0000.0001) %MON trAdv_CFL_w_max              =   0.0000000000000E+00
(PID.TID 0000.0001) %MON advcfl_uvel_max              =   1.0472858259302E-03
(PID.TID 0000.0001) %MON advcfl_vvel_max              =   1.0472858259302E-03
(PID.TID 0000.0001) %MON advcfl_wvel_max              =   0.0000000000000E+00
(PID.TID 0000.0001) %MON advcfl_W_hf_max              =   0.0000000000000E+00
(PID.TID 0000.0001) %MON pe_b_mean                    =  -1.9068430839747E-08
(PID.TID 0000.0001) %MON ke_max                       =   2.1157554035386E-06
(PID.TID 0000.0001) %MON ke_mean                      =   4.6214133794352E-08
(PID.TID 0000.0001) %MON ke_vol                       =   1.2831500000000E+10
(PID.TID 0000.0001) %MON vort_r_min                   =   0.0000000000000E+00
(PID.TID 0000.0001) %MON vort_r_max                   =   0.0000000000000E+00
(PID.TID 0000.0001) %MON vort_a_mean                  =   1.0000000000000E-04
(PID.TID 0000.0001) %MON vort_a_sd                    =   0.0000000000000E+00
(PID.TID 0000.0001) %MON vort_p_mean                  =   1.0000000000000E-04
(PID.TID 0000.0001) %MON vort_p_sd                    =   0.0000000000000E+00
(PID.TID 0000.0001) %MON surfExpan_theta_mean         =   0.0000000000000E+00
(PID.TID 0000.0001) %MON surfExpan_salt_mean          =   0.0000000000000E+00
(PID.TID 0000.0001) // =======================================================
(PID.TID 0000.0001) // End MONITOR dynamic field statistics
(PID.TID 0000.0001) // =======================================================
(PID.TID 0000.0001) // =======================================================
(PID.TID 0000.0001) // Begin MONITOR SEAICE statistics
(PID.TID 0000.0001) // =======================================================
(PID.TID 0000.0001) %MON seaice_tsnumber              =                     1
(PID.TID 0000.0001) %MON seaice_time_sec              =   3.6000000000000E+03
(PID.TID 0000.0001) %MON seaice_uice_max              =   0.0000000000000E+00
(PID.TID 0000.0001) %MON seaice_uice_min              =   0.0000000000000E+00
(PID.TID 0000.0001) %MON seaice_uice_mean             =   0.0000000000000E+00
(PID.TID 0000.0001) %MON seaice_uice_sd               =   0.0000000000000E+00
(PID.TID 0000.0001) %MON seaice_uice_del2             =   0.0000000000000E+00
(PID.TID 0000.0001) %MON seaice_vice_max              =   0.0000000000000E+00
(PID.TID 0000.0001) %MON seaice_vice_min              =   0.0000000000000E+00
(PID.TID 0000.0001) %MON seaice_vice_mean             =   0.0000000000000E+00
(PID.TID 0000.0001) %MON seaice_vice_sd               =   0.0000000000000E+00
(PID.TID 0000.0001) %MON seaice_vice_del2             =   0.0000000000000E+00
(PID.TID 0000.0001) %MON seaice_area_max              =   3.1916247108025E-03
(PID.TID 0000.0001) %MON seaice_area_min              =   3.1916247108025E-03
(PID.TID 0000.0001) %MON seaice_area_mean             =   3.1916247108025E-03
(PID.TID 0000.0001) %MON seaice_area_sd               =   0.0000000000000E+00
(PID.TID 0000.0001) %MON seaice_area_del2             =   0.0000000000000E+00
(PID.TID 0000.0001) %MON seaice_heff_max              =   1.5958123554013E-03
(PID.TID 0000.0001) %MON seaice_heff_min              =   1.5958123554013E-03
(PID.TID 0000.0001) %MON seaice_heff_mean             =   1.5958123554013E-03
(PID.TID 0000.0001) %MON seaice_heff_sd               =   0.0000000000000E+00
(PID.TID 0000.0001) %MON seaice_heff_del2             =   0.0000000000000E+00
(PID.TID 0000.0001) %MON seaice_hsnow_max             =   0.0000000000000E+00
(PID.TID 0000.0001) %MON seaice_hsnow_min             =   0.0000000000000E+00
(PID.TID 0000.0001) %MON seaice_hsnow_mean            =   0.0000000000000E+00
(PID.TID 0000.0001) %MON seaice_hsnow_sd              =   0.0000000000000E+00
(PID.TID 0000.0001) %MON seaice_hsnow_del2            =   0.0000000000000E+00
(PID.TID 0000.0001) %MON seaice_hsalt_max             =   1.2637488106219E+01
(PID.TID 0000.0001) %MON seaice_hsalt_min             =   1.2637488106219E+01
(PID.TID 0000.0001) %MON seaice_hsalt_mean            =   1.2637488106219E+01
(PID.TID 0000.0001) %MON seaice_hsalt_sd              =   0.0000000000000E+00
(PID.TID 0000.0001) %MON seaice_hsalt_del2            =   0.0000000000000E+00
(PID.TID 0000.0001) // =======================================================
(PID.TID 0000.0001) // End MONITOR SEAICE statistics
(PID.TID 0000.0001) // =======================================================
(PID.TID 0000.0001) // =======================================================
(PID.TID 0000.0001) // Begin MONITOR EXF statistics
(PID.TID 0000.0001) // =======================================================
(PID.TID 0000.0001) %MON exf_tsnumber                 =                     1
(PID.TID 0000.0001) %MON exf_time_sec                 =   3.6000000000000E+03
(PID.TID 0000.0001) %MON exf_ustress_max              =   5.9519873751132E-03
(PID.TID 0000.0001) %MON exf_ustress_min              =   5.9519873751132E-03
(PID.TID 0000.0001) %MON exf_ustress_mean             =   5.9519873751132E-03
(PID.TID 0000.0001) %MON exf_ustress_sd               =   0.0000000000000E+00
(PID.TID 0000.0001) %MON exf_ustress_del2             =   0.0000000000000E+00
(PID.TID 0000.0001) %MON exf_vstress_max              =   5.9519873751132E-03
(PID.TID 0000.0001) %MON exf_vstress_min              =   5.9519873751132E-03
(PID.TID 0000.0001) %MON exf_vstress_mean             =   5.9519873751132E-03
(PID.TID 0000.0001) %MON exf_vstress_sd               =   0.0000000000000E+00
(PID.TID 0000.0001) %MON exf_vstress_del2             =   0.0000000000000E+00
(PID.TID 0000.0001) %MON exf_hflux_max                =   2.3765057995320E+02
(PID.TID 0000.0001) %MON exf_hflux_min                =   2.3765057995320E+02
(PID.TID 0000.0001) %MON exf_hflux_mean               =   2.3765057995320E+02
(PID.TID 0000.0001) %MON exf_hflux_sd                 =   0.0000000000000E+00
(PID.TID 0000.0001) %MON exf_hflux_del2               =   6.7217734655129E+02
(PID.TID 0000.0001) %MON exf_sflux_max                =   2.0660668632121E-08
(PID.TID 0000.0001) %MON exf_sflux_min                =   2.0660668632121E-08
(PID.TID 0000.0001) %MON exf_sflux_mean               =   2.0660668632121E-08
(PID.TID 0000.0001) %MON exf_sflux_sd                 =   0.0000000000000E+00
(PID.TID 0000.0001) %MON exf_sflux_del2               =   5.8437195574485E-08
(PID.TID 0000.0001) %MON exf_uwind_max                =   1.0000000000000E+00
(PID.TID 0000.0001) %MON exf_uwind_min                =   1.0000000000000E+00
(PID.TID 0000.0001) %MON exf_uwind_mean               =   1.0000000000000E+00
(PID.TID 0000.0001) %MON exf_uwind_sd                 =   0.0000000000000E+00
(PID.TID 0000.0001) %MON exf_uwind_del2               =   0.0000000000000E+00
(PID.TID 0000.0001) %MON exf_vwind_max                =   1.0000000000000E+00
(PID.TID 0000.0001) %MON exf_vwind_min                =   1.0000000000000E+00
(PID.TID 0000.0001) %MON exf_vwind_mean               =   1.0000000000000E+00
(PID.TID 0000.0001) %MON exf_vwind_sd                 =   0.0000000000000E+00
(PID.TID 0000.0001) %MON exf_vwind_del2               =   0.0000000000000E+00
(PID.TID 0000.0001) %MON exf_wspeed_max               =   1.4142135623731E+00
(PID.TID 0000.0001) %MON exf_wspeed_min               =   1.4142135623731E+00
(PID.TID 0000.0001) %MON exf_wspeed_mean              =   1.4142135623731E+00
(PID.TID 0000.0001) %MON exf_wspeed_sd                =   0.0000000000000E+00
(PID.TID 0000.0001) %MON exf_wspeed_del2              =   4.0000000000000E+00
(PID.TID 0000.0001) %MON exf_atemp_max                =   2.5300548934937E+02
(PID.TID 0000.0001) %MON exf_atemp_min                =   2.5300548934937E+02
(PID.TID 0000.0001) %MON exf_atemp_mean               =   2.5300548934937E+02
(PID.TID 0000.0001) %MON exf_atemp_sd                 =   0.0000000000000E+00
(PID.TID 0000.0001) %MON exf_atemp_del2               =   5.7005564610241E+01
(PID.TID 0000.0001) %MON exf_lwflux_max               =   1.0643446401289E+02
(PID.TID 0000.0001) %MON exf_lwflux_min               =   1.0643446401289E+02
(PID.TID 0000.0001) %MON exf_lwflux_mean              =   1.0643446401289E+02
(PID.TID 0000.0001) %MON exf_lwflux_sd                =   0.0000000000000E+00
(PID.TID 0000.0001) %MON exf_lwflux_del2              =   3.0104212502189E+02
(PID.TID 0000.0001) %MON exf_evap_max                 =   2.0660668632121E-08
(PID.TID 0000.0001) %MON exf_evap_min                 =   2.0660668632121E-08
(PID.TID 0000.0001) %MON exf_evap_mean                =   2.0660668632121E-08
(PID.TID 0000.0001) %MON exf_evap_sd                  =   0.0000000000000E+00
(PID.TID 0000.0001) %MON exf_evap_del2                =   5.8437195574485E-08
(PID.TID 0000.0001) %MON exf_swflux_max               =  -1.9455544352531E+01
(PID.TID 0000.0001) %MON exf_swflux_min               =  -1.9455544352531E+01
(PID.TID 0000.0001) %MON exf_swflux_mean              =  -1.9455544352531E+01
(PID.TID 0000.0001) %MON exf_swflux_sd                =   0.0000000000000E+00
(PID.TID 0000.0001) %MON exf_swflux_del2              =   5.5028589373402E+01
(PID.TID 0000.0001) %MON exf_swdown_max               =   2.1617271502813E+01
(PID.TID 0000.0001) %MON exf_swdown_min               =   2.1617271502813E+01
(PID.TID 0000.0001) %MON exf_swdown_mean              =   2.1617271502813E+01
(PID.TID 0000.0001) %MON exf_swdown_sd                =   0.0000000000000E+00
(PID.TID 0000.0001) %MON exf_swdown_del2              =   6.1142877081558E+01
(PID.TID 0000.0001) %MON exf_lwdown_max               =   1.9118683115641E+02
(PID.TID 0000.0001) %MON exf_lwdown_min               =   1.9118683115641E+02
(PID.TID 0000.0001) %MON exf_lwdown_mean              =   1.9118683115641E+02
(PID.TID 0000.0001) %MON exf_lwdown_sd                =   0.0000000000000E+00
(PID.TID 0000.0001) %MON exf_lwdown_del2              =   5.4075801913707E+02
(PID.TID 0000.0001) // =======================================================
(PID.TID 0000.0001) // End MONITOR EXF statistics
(PID.TID 0000.0001) // =======================================================
 ph-ice B            1  -1.9277414181066890       8.88744644711660960E-003  3.09504219936541621E-003
 ph-ice C            1   30196.839093711867     
 cg2d: Sum(rhs),rhsMax =   1.00000000000000E+00  1.08504365899875E-05
(PID.TID 0000.0001)      cg2d_init_res =   4.85140195115491E-01
(PID.TID 0000.0001)      cg2d_iters(min,last) =      -1       1
(PID.TID 0000.0001)      cg2d_last_res =   0.00000000000000E+00
(PID.TID 0000.0001) // =======================================================
(PID.TID 0000.0001) // Begin MONITOR dynamic field statistics
(PID.TID 0000.0001) // =======================================================
(PID.TID 0000.0001) %MON time_tsnumber                =                     2
(PID.TID 0000.0001) %MON time_secondsf                =   7.2000000000000E+03
(PID.TID 0000.0001) %MON dynstat_eta_max              =  -2.8870188916381E-03
(PID.TID 0000.0001) %MON dynstat_eta_min              =  -2.8870188916381E-03
(PID.TID 0000.0001) %MON dynstat_eta_mean             =  -2.8870188916381E-03
(PID.TID 0000.0001) %MON dynstat_eta_sd               =   0.0000000000000E+00
(PID.TID 0000.0001) %MON dynstat_eta_del2             =   0.0000000000000E+00
(PID.TID 0000.0001) %MON dynstat_uvel_max             =   3.2471469440474E-03
(PID.TID 0000.0001) %MON dynstat_uvel_min             =   3.9667568453707E-71
(PID.TID 0000.0001) %MON dynstat_uvel_mean            =   1.0450657864123E-04
(PID.TID 0000.0001) %MON dynstat_uvel_sd              =   4.9531856018091E-04
(PID.TID 0000.0001) %MON dynstat_uvel_del2            =   0.0000000000000E+00
(PID.TID 0000.0001) %MON dynstat_vvel_max             =   1.9346950624926E-03
(PID.TID 0000.0001) %MON dynstat_vvel_min             =   1.0694357322577E-71
(PID.TID 0000.0001) %MON dynstat_vvel_mean            =   5.7677370535130E-05
(PID.TID 0000.0001) %MON dynstat_vvel_sd              =   2.8645045418946E-04
(PID.TID 0000.0001) %MON dynstat_vvel_del2            =   0.0000000000000E+00
(PID.TID 0000.0001) %MON dynstat_wvel_max             =  -0.0000000000000E+00
(PID.TID 0000.0001) %MON dynstat_wvel_min             =  -0.0000000000000E+00
(PID.TID 0000.0001) %MON dynstat_wvel_mean            =   0.0000000000000E+00
(PID.TID 0000.0001) %MON dynstat_wvel_sd              =   0.0000000000000E+00
(PID.TID 0000.0001) %MON dynstat_wvel_del2            =   0.0000000000000E+00
(PID.TID 0000.0001) %MON dynstat_theta_max            =   4.9999999999854E-01
(PID.TID 0000.0001) %MON dynstat_theta_min            =  -1.9227439708289E+00
(PID.TID 0000.0001) %MON dynstat_theta_mean           =  -4.2429167207850E-01
(PID.TID 0000.0001) %MON dynstat_theta_sd             =   8.7824081659666E-01
(PID.TID 0000.0001) %MON dynstat_theta_del2           =   0.0000000000000E+00
(PID.TID 0000.0001) %MON dynstat_salt_max             =   3.4800000000000E+01
(PID.TID 0000.0001) %MON dynstat_salt_min             =   2.9010853086588E+01
(PID.TID 0000.0001) %MON dynstat_salt_mean            =   3.3593161130591E+01
(PID.TID 0000.0001) %MON dynstat_salt_sd              =   1.6848244707622E+00
(PID.TID 0000.0001) %MON dynstat_salt_del2            =   0.0000000000000E+00
(PID.TID 0000.0001) %MON dynstat_sst_max              =  -1.9227439708289E+00
(PID.TID 0000.0001) %MON dynstat_sst_min              =  -1.9227439708289E+00
(PID.TID 0000.0001) %MON dynstat_sst_mean             =  -1.9227439708289E+00
(PID.TID 0000.0001) %MON dynstat_sst_sd               =   0.0000000000000E+00
(PID.TID 0000.0001) %MON dynstat_sst_del2             =   0.0000000000000E+00
(PID.TID 0000.0001) %MON dynstat_sss_max              =   2.9010853086588E+01
(PID.TID 0000.0001) %MON dynstat_sss_min              =   2.9010853086588E+01
(PID.TID 0000.0001) %MON dynstat_sss_mean             =   2.9010853086588E+01
(PID.TID 0000.0001) %MON dynstat_sss_sd               =   0.0000000000000E+00
(PID.TID 0000.0001) %MON dynstat_sss_del2             =   0.0000000000000E+00
(PID.TID 0000.0001) %MON forcing_qnet_max             =   1.1073246655445E+02
(PID.TID 0000.0001) %MON forcing_qnet_min             =   1.1073246655445E+02
(PID.TID 0000.0001) %MON forcing_qnet_mean            =   1.1073246655445E+02
(PID.TID 0000.0001) %MON forcing_qnet_sd              =   0.0000000000000E+00
(PID.TID 0000.0001) %MON forcing_qnet_del2            =   0.0000000000000E+00
(PID.TID 0000.0001) %MON forcing_qsw_max              =  -1.9399501588726E+01
(PID.TID 0000.0001) %MON forcing_qsw_min              =  -1.9399501588726E+01
(PID.TID 0000.0001) %MON forcing_qsw_mean             =  -1.9399501588726E+01
(PID.TID 0000.0001) %MON forcing_qsw_sd               =   0.0000000000000E+00
(PID.TID 0000.0001) %MON forcing_qsw_del2             =   0.0000000000000E+00
(PID.TID 0000.0001) %MON forcing_empmr_max            =   3.9956259692145E-04
(PID.TID 0000.0001) %MON forcing_empmr_min            =   3.9956259692145E-04
(PID.TID 0000.0001) %MON forcing_empmr_mean           =   3.9956259692145E-04
(PID.TID 0000.0001) %MON forcing_empmr_sd             =   0.0000000000000E+00
(PID.TID 0000.0001) %MON forcing_empmr_del2           =   0.0000000000000E+00
(PID.TID 0000.0001) %MON forcing_fu_max               =   5.9329908651284E-03
(PID.TID 0000.0001) %MON forcing_fu_min               =   5.9329908651284E-03
(PID.TID 0000.0001) %MON forcing_fu_mean              =   5.9329908651284E-03
(PID.TID 0000.0001) %MON forcing_fu_sd                =   8.6736173798840E-19
(PID.TID 0000.0001) %MON forcing_fu_del2              =   0.0000000000000E+00
(PID.TID 0000.0001) %MON forcing_fv_max               =   5.9329908651284E-03
(PID.TID 0000.0001) %MON forcing_fv_min               =   5.9329908651284E-03
(PID.TID 0000.0001) %MON forcing_fv_mean              =   5.9329908651284E-03
(PID.TID 0000.0001) %MON forcing_fv_sd                =   8.6736173798840E-19
(PID.TID 0000.0001) %MON forcing_fv_del2              =   0.0000000000000E+00
(PID.TID 0000.0001) %MON trAdv_CFL_u_max              =   2.3379457997142E-03
(PID.TID 0000.0001) %MON trAdv_CFL_v_max              =   1.3929804449947E-03
(PID.TID 0000.0001) %MON trAdv_CFL_w_max              =   0.0000000000000E+00
(PID.TID 0000.0001) %MON advcfl_uvel_max              =   2.3379457997142E-03
(PID.TID 0000.0001) %MON advcfl_vvel_max              =   1.3929804449947E-03
(PID.TID 0000.0001) %MON advcfl_wvel_max              =   0.0000000000000E+00
(PID.TID 0000.0001) %MON advcfl_W_hf_max              =   0.0000000000000E+00
(PID.TID 0000.0001) %MON pe_b_mean                    =  -7.1715959221068E-08
(PID.TID 0000.0001) %MON ke_max                       =   7.1435041305349E-06
(PID.TID 0000.0001) %MON ke_mean                      =   1.7082132140809E-07
(PID.TID 0000.0001) %MON ke_vol                       =   1.2831500000000E+10
(PID.TID 0000.0001) %MON vort_r_min                   =   0.0000000000000E+00
(PID.TID 0000.0001) %MON vort_r_max                   =   0.0000000000000E+00
(PID.TID 0000.0001) %MON vort_a_mean                  =   1.0000000000000E-04
(PID.TID 0000.0001) %MON vort_a_sd                    =   0.0000000000000E+00
(PID.TID 0000.0001) %MON vort_p_mean                  =   1.0000000000000E-04
(PID.TID 0000.0001) %MON vort_p_sd                    =   0.0000000000000E+00
(PID.TID 0000.0001) %MON surfExpan_theta_mean         =   0.0000000000000E+00
(PID.TID 0000.0001) %MON surfExpan_salt_mean          =   0.0000000000000E+00
(PID.TID 0000.0001) // =======================================================
(PID.TID 0000.0001) // End MONITOR dynamic field statistics
(PID.TID 0000.0001) // =======================================================
(PID.TID 0000.0001) // =======================================================
(PID.TID 0000.0001) // Begin MONITOR SEAICE statistics
(PID.TID 0000.0001) // =======================================================
(PID.TID 0000.0001) %MON seaice_tsnumber              =                     2
(PID.TID 0000.0001) %MON seaice_time_sec              =   7.2000000000000E+03
(PID.TID 0000.0001) %MON seaice_uice_max              =   0.0000000000000E+00
(PID.TID 0000.0001) %MON seaice_uice_min              =   0.0000000000000E+00
(PID.TID 0000.0001) %MON seaice_uice_mean             =   0.0000000000000E+00
(PID.TID 0000.0001) %MON seaice_uice_sd               =   0.0000000000000E+00
(PID.TID 0000.0001) %MON seaice_uice_del2             =   0.0000000000000E+00
(PID.TID 0000.0001) %MON seaice_vice_max              =   0.0000000000000E+00
(PID.TID 0000.0001) %MON seaice_vice_min              =   0.0000000000000E+00
(PID.TID 0000.0001) %MON seaice_vice_mean             =   0.0000000000000E+00
(PID.TID 0000.0001) %MON seaice_vice_sd               =   0.0000000000000E+00
(PID.TID 0000.0001) %MON seaice_vice_del2             =   0.0000000000000E+00
(PID.TID 0000.0001) %MON seaice_area_max              =   8.8874464471166E-03
(PID.TID 0000.0001) %MON seaice_area_min              =   8.8874464471166E-03
(PID.TID 0000.0001) %MON seaice_area_mean             =   8.8874464471166E-03
(PID.TID 0000.0001) %MON seaice_area_sd               =   0.0000000000000E+00
(PID.TID 0000.0001) %MON seaice_area_del2             =   0.0000000000000E+00
(PID.TID 0000.0001) %MON seaice_heff_max              =   3.0950421993654E-03
(PID.TID 0000.0001) %MON seaice_heff_min              =   3.0950421993654E-03
(PID.TID 0000.0001) %MON seaice_heff_mean             =   3.0950421993654E-03
(PID.TID 0000.0001) %MON seaice_heff_sd               =   0.0000000000000E+00
(PID.TID 0000.0001) %MON seaice_heff_del2             =   0.0000000000000E+00
(PID.TID 0000.0001) %MON seaice_hsnow_max             =   0.0000000000000E+00
(PID.TID 0000.0001) %MON seaice_hsnow_min             =   0.0000000000000E+00
(PID.TID 0000.0001) %MON seaice_hsnow_mean            =   0.0000000000000E+00
(PID.TID 0000.0001) %MON seaice_hsnow_sd              =   0.0000000000000E+00
(PID.TID 0000.0001) %MON seaice_hsnow_del2            =   0.0000000000000E+00
(PID.TID 0000.0001) %MON seaice_hsalt_max             =   2.4510647316748E+01
(PID.TID 0000.0001) %MON seaice_hsalt_min             =   2.4510647316748E+01
(PID.TID 0000.0001) %MON seaice_hsalt_mean            =   2.4510647316748E+01
(PID.TID 0000.0001) %MON seaice_hsalt_sd              =   0.0000000000000E+00
(PID.TID 0000.0001) %MON seaice_hsalt_del2            =   0.0000000000000E+00
(PID.TID 0000.0001) // =======================================================
(PID.TID 0000.0001) // End MONITOR SEAICE statistics
(PID.TID 0000.0001) // =======================================================
(PID.TID 0000.0001) // =======================================================
(PID.TID 0000.0001) // Begin MONITOR EXF statistics
(PID.TID 0000.0001) // =======================================================
(PID.TID 0000.0001) %MON exf_tsnumber                 =                     2
(PID.TID 0000.0001) %MON exf_time_sec                 =   7.2000000000000E+03
(PID.TID 0000.0001) %MON exf_ustress_max              =   5.9520089593693E-03
(PID.TID 0000.0001) %MON exf_ustress_min              =   5.9520089593693E-03
(PID.TID 0000.0001) %MON exf_ustress_mean             =   5.9520089593693E-03
(PID.TID 0000.0001) %MON exf_ustress_sd               =   0.0000000000000E+00
(PID.TID 0000.0001) %MON exf_ustress_del2             =   0.0000000000000E+00
(PID.TID 0000.0001) %MON exf_vstress_max              =   5.9520089593693E-03
(PID.TID 0000.0001) %MON exf_vstress_min              =   5.9520089593693E-03
(PID.TID 0000.0001) %MON exf_vstress_mean             =   5.9520089593693E-03
(PID.TID 0000.0001) %MON exf_vstress_sd               =   0.0000000000000E+00
(PID.TID 0000.0001) %MON exf_vstress_del2             =   0.0000000000000E+00
(PID.TID 0000.0001) %MON exf_hflux_max                =   2.3763011783996E+02
(PID.TID 0000.0001) %MON exf_hflux_min                =   2.3763011783996E+02
(PID.TID 0000.0001) %MON exf_hflux_mean               =   2.3763011783996E+02
(PID.TID 0000.0001) %MON exf_hflux_sd                 =   0.0000000000000E+00
(PID.TID 0000.0001) %MON exf_hflux_del2               =   6.7211947095518E+02
(PID.TID 0000.0001) %MON exf_sflux_max                =   2.0667948928322E-08
(PID.TID 0000.0001) %MON exf_sflux_min                =   2.0667948928322E-08
(PID.TID 0000.0001) %MON exf_sflux_mean               =   2.0667948928322E-08
(PID.TID 0000.0001) %MON exf_sflux_sd                 =   0.0000000000000E+00
(PID.TID 0000.0001) %MON exf_sflux_del2               =   5.8457787361735E-08
(PID.TID 0000.0001) %MON exf_uwind_max                =   1.0000000000000E+00
(PID.TID 0000.0001) %MON exf_uwind_min                =   1.0000000000000E+00
(PID.TID 0000.0001) %MON exf_uwind_mean               =   1.0000000000000E+00
(PID.TID 0000.0001) %MON exf_uwind_sd                 =   0.0000000000000E+00
(PID.TID 0000.0001) %MON exf_uwind_del2               =   0.0000000000000E+00
(PID.TID 0000.0001) %MON exf_vwind_max                =   1.0000000000000E+00
(PID.TID 0000.0001) %MON exf_vwind_min                =   1.0000000000000E+00
(PID.TID 0000.0001) %MON exf_vwind_mean               =   1.0000000000000E+00
(PID.TID 0000.0001) %MON exf_vwind_sd                 =   0.0000000000000E+00
(PID.TID 0000.0001) %MON exf_vwind_del2               =   0.0000000000000E+00
(PID.TID 0000.0001) %MON exf_wspeed_max               =   1.4142135623731E+00
(PID.TID 0000.0001) %MON exf_wspeed_min               =   1.4142135623731E+00
(PID.TID 0000.0001) %MON exf_wspeed_mean              =   1.4142135623731E+00
(PID.TID 0000.0001) %MON exf_wspeed_sd                =   0.0000000000000E+00
(PID.TID 0000.0001) %MON exf_wspeed_del2              =   4.0000000000000E+00
(PID.TID 0000.0001) %MON exf_atemp_max                =   2.5300988769531E+02
(PID.TID 0000.0001) %MON exf_atemp_min                =   2.5300988769531E+02
(PID.TID 0000.0001) %MON exf_atemp_mean               =   2.5300988769531E+02
(PID.TID 0000.0001) %MON exf_atemp_sd                 =   0.0000000000000E+00
(PID.TID 0000.0001) %MON exf_atemp_del2               =   5.6993124209260E+01
(PID.TID 0000.0001) %MON exf_lwflux_max               =   1.0642684126870E+02
(PID.TID 0000.0001) %MON exf_lwflux_min               =   1.0642684126870E+02
(PID.TID 0000.0001) %MON exf_lwflux_mean              =   1.0642684126870E+02
(PID.TID 0000.0001) %MON exf_lwflux_sd                =   0.0000000000000E+00
(PID.TID 0000.0001) %MON exf_lwflux_del2              =   3.0102056464546E+02
(PID.TID 0000.0001) %MON exf_evap_max                 =   2.0667948928322E-08
(PID.TID 0000.0001) %MON exf_evap_min                 =   2.0667948928322E-08
(PID.TID 0000.0001) %MON exf_evap_mean                =   2.0667948928322E-08
(PID.TID 0000.0001) %MON exf_evap_sd                  =   0.0000000000000E+00
(PID.TID 0000.0001) %MON exf_evap_del2                =   5.8457787361735E-08
(PID.TID 0000.0001) %MON exf_swflux_max               =  -1.9490338897705E+01
(PID.TID 0000.0001) %MON exf_swflux_min               =  -1.9490338897705E+01
(PID.TID 0000.0001) %MON exf_swflux_mean              =  -1.9490338897705E+01
(PID.TID 0000.0001) %MON exf_swflux_sd                =   0.0000000000000E+00
(PID.TID 0000.0001) %MON exf_swflux_del2              =   5.5127003208765E+01
(PID.TID 0000.0001) %MON exf_swdown_max               =   2.1655932108561E+01
(PID.TID 0000.0001) %MON exf_swdown_min               =   2.1655932108561E+01
(PID.TID 0000.0001) %MON exf_swdown_mean              =   2.1655932108561E+01
(PID.TID 0000.0001) %MON exf_swdown_sd                =   0.0000000000000E+00
(PID.TID 0000.0001) %MON exf_swdown_del2              =   6.1252225787516E+01
(PID.TID 0000.0001) %MON exf_lwdown_max               =   1.9121638997396E+02
(PID.TID 0000.0001) %MON exf_lwdown_min               =   1.9121638997396E+02
(PID.TID 0000.0001) %MON exf_lwdown_mean              =   1.9121638997396E+02
(PID.TID 0000.0001) %MON exf_lwdown_sd                =   0.0000000000000E+00
(PID.TID 0000.0001) %MON exf_lwdown_del2              =   5.4084162409839E+02
(PID.TID 0000.0001) // =======================================================
(PID.TID 0000.0001) // End MONITOR EXF statistics
(PID.TID 0000.0001) // =======================================================
 ph-ice B            2  -1.9227439708288998       1.45024480625498536E-002  4.38366254889791234E-003
 ph-ice C            2   66451.952163612339     
 cg2d: Sum(rhs),rhsMax =   1.00000000000000E+00  1.54115956505727E-05
(PID.TID 0000.0001)      cg2d_init_res =   2.95956315231706E-01
(PID.TID 0000.0001)      cg2d_iters(min,last) =      -1       1
(PID.TID 0000.0001)      cg2d_last_res =   0.00000000000000E+00
(PID.TID 0000.0001) // =======================================================
(PID.TID 0000.0001) // Begin MONITOR dynamic field statistics
(PID.TID 0000.0001) // =======================================================
(PID.TID 0000.0001) %MON time_tsnumber                =                     3
(PID.TID 0000.0001) %MON time_secondsf                =   1.0800000000000E+04
(PID.TID 0000.0001) %MON dynstat_eta_max              =  -4.1006246545465E-03
(PID.TID 0000.0001) %MON dynstat_eta_min              =  -4.1006246545465E-03
(PID.TID 0000.0001) %MON dynstat_eta_mean             =  -4.1006246545465E-03
(PID.TID 0000.0001) %MON dynstat_eta_sd               =   0.0000000000000E+00
(PID.TID 0000.0001) %MON dynstat_eta_del2             =   0.0000000000000E+00
(PID.TID 0000.0001) %MON dynstat_uvel_max             =   4.7710511067002E-03
(PID.TID 0000.0001) %MON dynstat_uvel_min             =   6.8800787427458E-71
(PID.TID 0000.0001) %MON dynstat_uvel_mean            =   1.6909794395529E-04
(PID.TID 0000.0001) %MON dynstat_uvel_sd              =   7.5992821322597E-04
(PID.TID 0000.0001) %MON dynstat_uvel_del2            =   0.0000000000000E+00
(PID.TID 0000.0001) %MON dynstat_vvel_max             =   1.7154372445071E-03
(PID.TID 0000.0001) %MON dynstat_vvel_min             =  -3.2489938284322E-09
(PID.TID 0000.0001) %MON dynstat_vvel_mean            =   4.6411734163401E-05
(PID.TID 0000.0001) %MON dynstat_vvel_sd              =   2.4750831691680E-04
(PID.TID 0000.0001) %MON dynstat_vvel_del2            =   0.0000000000000E+00
(PID.TID 0000.0001) %MON dynstat_wvel_max             =  -0.0000000000000E+00
(PID.TID 0000.0001) %MON dynstat_wvel_min             =  -0.0000000000000E+00
(PID.TID 0000.0001) %MON dynstat_wvel_mean            =   0.0000000000000E+00
(PID.TID 0000.0001) %MON dynstat_wvel_sd              =   0.0000000000000E+00
(PID.TID 0000.0001) %MON dynstat_wvel_del2            =   0.0000000000000E+00
(PID.TID 0000.0001) %MON dynstat_theta_max            =   4.9999999999808E-01
(PID.TID 0000.0001) %MON dynstat_theta_min            =  -1.9169503554401E+00
(PID.TID 0000.0001) %MON dynstat_theta_mean           =  -4.2451080207857E-01
(PID.TID 0000.0001) %MON dynstat_theta_sd             =   8.7822919976583E-01
(PID.TID 0000.0001) %MON dynstat_theta_del2           =   0.0000000000000E+00
(PID.TID 0000.0001) %MON dynstat_salt_max             =   3.4799999999999E+01
(PID.TID 0000.0001) %MON dynstat_salt_min             =   2.9012586565138E+01
(PID.TID 0000.0001) %MON dynstat_salt_mean            =   3.3593210365338E+01
(PID.TID 0000.0001) %MON dynstat_salt_sd              =   1.6846884129335E+00
(PID.TID 0000.0001) %MON dynstat_salt_del2            =   0.0000000000000E+00
(PID.TID 0000.0001) %MON dynstat_sst_max              =  -1.9169503554401E+00
(PID.TID 0000.0001) %MON dynstat_sst_min              =  -1.9169503554401E+00
(PID.TID 0000.0001) %MON dynstat_sst_mean             =  -1.9169503554401E+00
(PID.TID 0000.0001) %MON dynstat_sst_sd               =   0.0000000000000E+00
(PID.TID 0000.0001) %MON dynstat_sst_del2             =   0.0000000000000E+00
(PID.TID 0000.0001) %MON dynstat_sss_max              =   2.9012586565138E+01
(PID.TID 0000.0001) %MON dynstat_sss_min              =   2.9012586565138E+01
(PID.TID 0000.0001) %MON dynstat_sss_mean             =   2.9012586565138E+01
(PID.TID 0000.0001) %MON dynstat_sss_sd               =   0.0000000000000E+00
(PID.TID 0000.0001) %MON dynstat_sss_del2             =   0.0000000000000E+00
(PID.TID 0000.0001) %MON forcing_qnet_max             =   1.2789232884417E+02
(PID.TID 0000.0001) %MON forcing_qnet_min             =   1.2789232884417E+02
(PID.TID 0000.0001) %MON forcing_qnet_mean            =   1.2789232884417E+02
(PID.TID 0000.0001) %MON forcing_qnet_sd              =   1.4210854715202E-14
(PID.TID 0000.0001) %MON forcing_qnet_del2            =   0.0000000000000E+00
(PID.TID 0000.0001) %MON forcing_qsw_max              =  -1.9329504766110E+01
(PID.TID 0000.0001) %MON forcing_qsw_min              =  -1.9329504766110E+01
(PID.TID 0000.0001) %MON forcing_qsw_mean             =  -1.9329504766110E+01
(PID.TID 0000.0001) %MON forcing_qsw_sd               =   0.0000000000000E+00
(PID.TID 0000.0001) %MON forcing_qsw_del2             =   0.0000000000000E+00
(PID.TID 0000.0001) %MON forcing_empmr_max            =   3.4621475514037E-04
(PID.TID 0000.0001) %MON forcing_empmr_min            =   3.4621475514037E-04
(PID.TID 0000.0001) %MON forcing_empmr_mean           =   3.4621475514037E-04
(PID.TID 0000.0001) %MON forcing_empmr_sd             =   0.0000000000000E+00
(PID.TID 0000.0001) %MON forcing_empmr_del2           =   0.0000000000000E+00
(PID.TID 0000.0001) %MON forcing_fu_max               =   5.8991107984901E-03
(PID.TID 0000.0001) %MON forcing_fu_min               =   5.8991107984901E-03
(PID.TID 0000.0001) %MON forcing_fu_mean              =   5.8991107984901E-03
(PID.TID 0000.0001) %MON forcing_fu_sd                =   0.0000000000000E+00
(PID.TID 0000.0001) %MON forcing_fu_del2              =   0.0000000000000E+00
(PID.TID 0000.0001) %MON forcing_fv_max               =   5.8991107984901E-03
(PID.TID 0000.0001) %MON forcing_fv_min               =   5.8991107984901E-03
(PID.TID 0000.0001) %MON forcing_fv_mean              =   5.8991107984901E-03
(PID.TID 0000.0001) %MON forcing_fv_sd                =   0.0000000000000E+00
(PID.TID 0000.0001) %MON forcing_fv_del2              =   0.0000000000000E+00
(PID.TID 0000.0001) %MON trAdv_CFL_u_max              =   3.4351567968242E-03
(PID.TID 0000.0001) %MON trAdv_CFL_v_max              =   1.2351148160451E-03
(PID.TID 0000.0001) %MON trAdv_CFL_w_max              =   0.0000000000000E+00
(PID.TID 0000.0001) %MON advcfl_uvel_max              =   3.4351567968242E-03
(PID.TID 0000.0001) %MON advcfl_vvel_max              =   1.2351148160451E-03
(PID.TID 0000.0001) %MON advcfl_wvel_max              =   0.0000000000000E+00
(PID.TID 0000.0001) %MON advcfl_W_hf_max              =   0.0000000000000E+00
(PID.TID 0000.0001) %MON pe_b_mean                    =  -1.4381888137097E-07
(PID.TID 0000.0001) %MON ke_max                       =   1.2852826801294E-05
(PID.TID 0000.0001) %MON ke_mean                      =   3.3474970995888E-07
(PID.TID 0000.0001) %MON ke_vol                       =   1.2831500000000E+10
(PID.TID 0000.0001) %MON vort_r_min                   =   0.0000000000000E+00
(PID.TID 0000.0001) %MON vort_r_max                   =   0.0000000000000E+00
(PID.TID 0000.0001) %MON vort_a_mean                  =   1.0000000000000E-04
(PID.TID 0000.0001) %MON vort_a_sd                    =   0.0000000000000E+00
(PID.TID 0000.0001) %MON vort_p_mean                  =   1.0000000000000E-04
(PID.TID 0000.0001) %MON vort_p_sd                    =   0.0000000000000E+00
(PID.TID 0000.0001) %MON surfExpan_theta_mean         =   0.0000000000000E+00
(PID.TID 0000.0001) %MON surfExpan_salt_mean          =   0.0000000000000E+00
(PID.TID 0000.0001) // =======================================================
(PID.TID 0000.0001) // End MONITOR dynamic field statistics
(PID.TID 0000.0001) // =======================================================
(PID.TID 0000.0001) // =======================================================
(PID.TID 0000.0001) // Begin MONITOR SEAICE statistics
(PID.TID 0000.0001) // =======================================================
(PID.TID 0000.0001) %MON seaice_tsnumber              =                     3
(PID.TID 0000.0001) %MON seaice_time_sec              =   1.0800000000000E+04
(PID.TID 0000.0001) %MON seaice_uice_max              =   0.0000000000000E+00
(PID.TID 0000.0001) %MON seaice_uice_min              =   0.0000000000000E+00
(PID.TID 0000.0001) %MON seaice_uice_mean             =   0.0000000000000E+00
(PID.TID 0000.0001) %MON seaice_uice_sd               =   0.0000000000000E+00
(PID.TID 0000.0001) %MON seaice_uice_del2             =   0.0000000000000E+00
(PID.TID 0000.0001) %MON seaice_vice_max              =   0.0000000000000E+00
(PID.TID 0000.0001) %MON seaice_vice_min              =   0.0000000000000E+00
(PID.TID 0000.0001) %MON seaice_vice_mean             =   0.0000000000000E+00
(PID.TID 0000.0001) %MON seaice_vice_sd               =   0.0000000000000E+00
(PID.TID 0000.0001) %MON seaice_vice_del2             =   0.0000000000000E+00
(PID.TID 0000.0001) %MON seaice_area_max              =   1.4502448062550E-02
(PID.TID 0000.0001) %MON seaice_area_min              =   1.4502448062550E-02
(PID.TID 0000.0001) %MON seaice_area_mean             =   1.4502448062550E-02
(PID.TID 0000.0001) %MON seaice_area_sd               =   0.0000000000000E+00
(PID.TID 0000.0001) %MON seaice_area_del2             =   0.0000000000000E+00
(PID.TID 0000.0001) %MON seaice_heff_max              =   4.3836625488979E-03
(PID.TID 0000.0001) %MON seaice_heff_min              =   4.3836625488979E-03
(PID.TID 0000.0001) %MON seaice_heff_mean             =   4.3836625488979E-03
(PID.TID 0000.0001) %MON seaice_heff_sd               =   0.0000000000000E+00
(PID.TID 0000.0001) %MON seaice_heff_del2             =   0.0000000000000E+00
(PID.TID 0000.0001) %MON seaice_hsnow_max             =   0.0000000000000E+00
(PID.TID 0000.0001) %MON seaice_hsnow_min             =   0.0000000000000E+00
(PID.TID 0000.0001) %MON seaice_hsnow_mean            =   0.0000000000000E+00
(PID.TID 0000.0001) %MON seaice_hsnow_sd              =   0.0000000000000E+00
(PID.TID 0000.0001) %MON seaice_hsnow_del2            =   0.0000000000000E+00
(PID.TID 0000.0001) %MON seaice_hsalt_max             =   3.4716472667745E+01
(PID.TID 0000.0001) %MON seaice_hsalt_min             =   3.4716472667745E+01
(PID.TID 0000.0001) %MON seaice_hsalt_mean            =   3.4716472667745E+01
(PID.TID 0000.0001) %MON seaice_hsalt_sd              =   0.0000000000000E+00
(PID.TID 0000.0001) %MON seaice_hsalt_del2            =   0.0000000000000E+00
(PID.TID 0000.0001) // =======================================================
(PID.TID 0000.0001) // End MONITOR SEAICE statistics
(PID.TID 0000.0001) // =======================================================
(PID.TID 0000.0001) // =======================================================
(PID.TID 0000.0001) // Begin MONITOR EXF statistics
(PID.TID 0000.0001) // =======================================================
(PID.TID 0000.0001) %MON exf_tsnumber                 =                     3
(PID.TID 0000.0001) %MON exf_time_sec                 =   1.0800000000000E+04
(PID.TID 0000.0001) %MON exf_ustress_max              =   5.9520674781446E-03
(PID.TID 0000.0001) %MON exf_ustress_min              =   5.9520674781446E-03
(PID.TID 0000.0001) %MON exf_ustress_mean             =   5.9520674781446E-03
(PID.TID 0000.0001) %MON exf_ustress_sd               =   0.0000000000000E+00
(PID.TID 0000.0001) %MON exf_ustress_del2             =   0.0000000000000E+00
(PID.TID 0000.0001) %MON exf_vstress_max              =   5.9520674781446E-03
(PID.TID 0000.0001) %MON exf_vstress_min              =   5.9520674781446E-03
(PID.TID 0000.0001) %MON exf_vstress_mean             =   5.9520674781446E-03
(PID.TID 0000.0001) %MON exf_vstress_sd               =   0.0000000000000E+00
(PID.TID 0000.0001) %MON exf_vstress_del2             =   0.0000000000000E+00
(PID.TID 0000.0001) %MON exf_hflux_max                =   2.3762166962855E+02
(PID.TID 0000.0001) %MON exf_hflux_min                =   2.3762166962855E+02
(PID.TID 0000.0001) %MON exf_hflux_mean               =   2.3762166962855E+02
(PID.TID 0000.0001) %MON exf_hflux_sd                 =   0.0000000000000E+00
(PID.TID 0000.0001) %MON exf_hflux_del2               =   6.7209557580488E+02
(PID.TID 0000.0001) %MON exf_sflux_max                =   2.0676563180146E-08
(PID.TID 0000.0001) %MON exf_sflux_min                =   2.0676563180146E-08
(PID.TID 0000.0001) %MON exf_sflux_mean               =   2.0676563180146E-08
(PID.TID 0000.0001) %MON exf_sflux_sd                 =   0.0000000000000E+00
(PID.TID 0000.0001) %MON exf_sflux_del2               =   5.8482152145252E-08
(PID.TID 0000.0001) %MON exf_uwind_max                =   1.0000000000000E+00
(PID.TID 0000.0001) %MON exf_uwind_min                =   1.0000000000000E+00
(PID.TID 0000.0001) %MON exf_uwind_mean               =   1.0000000000000E+00
(PID.TID 0000.0001) %MON exf_uwind_sd                 =   0.0000000000000E+00
(PID.TID 0000.0001) %MON exf_uwind_del2               =   0.0000000000000E+00
(PID.TID 0000.0001) %MON exf_vwind_max                =   1.0000000000000E+00
(PID.TID 0000.0001) %MON exf_vwind_min                =   1.0000000000000E+00
(PID.TID 0000.0001) %MON exf_vwind_mean               =   1.0000000000000E+00
(PID.TID 0000.0001) %MON exf_vwind_sd                 =   0.0000000000000E+00
(PID.TID 0000.0001) %MON exf_vwind_del2               =   0.0000000000000E+00
(PID.TID 0000.0001) %MON exf_wspeed_max               =   1.4142135623731E+00
(PID.TID 0000.0001) %MON exf_wspeed_min               =   1.4142135623731E+00
(PID.TID 0000.0001) %MON exf_wspeed_mean              =   1.4142135623731E+00
(PID.TID 0000.0001) %MON exf_wspeed_sd                =   0.0000000000000E+00
(PID.TID 0000.0001) %MON exf_wspeed_del2              =   4.0000000000000E+00
(PID.TID 0000.0001) %MON exf_atemp_max                =   2.5301428604126E+02
(PID.TID 0000.0001) %MON exf_atemp_min                =   2.5301428604126E+02
(PID.TID 0000.0001) %MON exf_atemp_mean               =   2.5301428604126E+02
(PID.TID 0000.0001) %MON exf_atemp_sd                 =   0.0000000000000E+00
(PID.TID 0000.0001) %MON exf_atemp_del2               =   5.6980683808279E+01
(PID.TID 0000.0001) %MON exf_lwflux_max               =   1.0642271478688E+02
(PID.TID 0000.0001) %MON exf_lwflux_min               =   1.0642271478688E+02
(PID.TID 0000.0001) %MON exf_lwflux_mean              =   1.0642271478688E+02
(PID.TID 0000.0001) %MON exf_lwflux_sd                =   0.0000000000000E+00
(PID.TID 0000.0001) %MON exf_lwflux_del2              =   3.0100889319235E+02
(PID.TID 0000.0001) %MON exf_evap_max                 =   2.0676563180146E-08
(PID.TID 0000.0001) %MON exf_evap_min                 =   2.0676563180146E-08
(PID.TID 0000.0001) %MON exf_evap_mean                =   2.0676563180146E-08
(PID.TID 0000.0001) %MON exf_evap_sd                  =   0.0000000000000E+00
(PID.TID 0000.0001) %MON exf_evap_del2                =   5.8482152145252E-08
(PID.TID 0000.0001) %MON exf_swflux_max               =  -1.9525133442879E+01
(PID.TID 0000.0001) %MON exf_swflux_min               =  -1.9525133442879E+01
(PID.TID 0000.0001) %MON exf_swflux_mean              =  -1.9525133442879E+01
(PID.TID 0000.0001) %MON exf_swflux_sd                =   0.0000000000000E+00
(PID.TID 0000.0001) %MON exf_swflux_del2              =   5.5225417044127E+01
(PID.TID 0000.0001) %MON exf_swdown_max               =   2.1694592714310E+01
(PID.TID 0000.0001) %MON exf_swdown_min               =   2.1694592714310E+01
(PID.TID 0000.0001) %MON exf_swdown_mean              =   2.1694592714310E+01
(PID.TID 0000.0001) %MON exf_swdown_sd                =   0.0000000000000E+00
(PID.TID 0000.0001) %MON exf_swdown_del2              =   6.1361574493475E+01
(PID.TID 0000.0001) %MON exf_lwdown_max               =   1.9124594879150E+02
(PID.TID 0000.0001) %MON exf_lwdown_min               =   1.9124594879150E+02
(PID.TID 0000.0001) %MON exf_lwdown_mean              =   1.9124594879150E+02
(PID.TID 0000.0001) %MON exf_lwdown_sd                =   0.0000000000000E+00
(PID.TID 0000.0001) %MON exf_lwdown_del2              =   5.4092522905971E+02
(PID.TID 0000.0001) // =======================================================
(PID.TID 0000.0001) // End MONITOR EXF statistics
(PID.TID 0000.0001) // =======================================================
 ph-ice B            3  -1.9169503554400720       2.00243196642483426E-002  5.43052875323189396E-003
 ph-ice C            3   116511.36078510483     
 cg2d: Sum(rhs),rhsMax =   1.00000000000000E+00  1.91662515894767E-05
(PID.TID 0000.0001)      cg2d_init_res =   1.95899334899877E-01
(PID.TID 0000.0001)      cg2d_iters(min,last) =      -1       1
(PID.TID 0000.0001)      cg2d_last_res =   2.77555756156289E-17
(PID.TID 0000.0001) // =======================================================
(PID.TID 0000.0001) // Begin MONITOR dynamic field statistics
(PID.TID 0000.0001) // =======================================================
(PID.TID 0000.0001) %MON time_tsnumber                =                     4
(PID.TID 0000.0001) %MON time_secondsf                =   1.4400000000000E+04
(PID.TID 0000.0001) %MON dynstat_eta_max              =  -5.0996409187601E-03
(PID.TID 0000.0001) %MON dynstat_eta_min              =  -5.0996409187601E-03
(PID.TID 0000.0001) %MON dynstat_eta_mean             =  -5.0996409187601E-03
(PID.TID 0000.0001) %MON dynstat_eta_sd               =   0.0000000000000E+00
(PID.TID 0000.0001) %MON dynstat_eta_del2             =   0.0000000000000E+00
(PID.TID 0000.0001) %MON dynstat_uvel_max             =   5.9644001663363E-03
(PID.TID 0000.0001) %MON dynstat_uvel_min             =   1.6662237072948E-70
(PID.TID 0000.0001) %MON dynstat_uvel_mean            =   2.2329673182425E-04
(PID.TID 0000.0001) %MON dynstat_uvel_sd              =   9.7653018833661E-04
(PID.TID 0000.0001) %MON dynstat_uvel_del2            =   0.0000000000000E+00
(PID.TID 0000.0001) %MON dynstat_vvel_max             =   1.0546197087547E-03
(PID.TID 0000.0001) %MON dynstat_vvel_min             =  -3.4879228525614E-04
(PID.TID 0000.0001) %MON dynstat_vvel_mean            =   1.1508680458084E-05
(PID.TID 0000.0001) %MON dynstat_vvel_sd              =   1.5508041218233E-04
(PID.TID 0000.0001) %MON dynstat_vvel_del2            =   0.0000000000000E+00
(PID.TID 0000.0001) %MON dynstat_wvel_max             =  -0.0000000000000E+00
(PID.TID 0000.0001) %MON dynstat_wvel_min             =  -0.0000000000000E+00
(PID.TID 0000.0001) %MON dynstat_wvel_mean            =   0.0000000000000E+00
(PID.TID 0000.0001) %MON dynstat_wvel_sd              =   0.0000000000000E+00
(PID.TID 0000.0001) %MON dynstat_wvel_del2            =   0.0000000000000E+00
(PID.TID 0000.0001) %MON dynstat_theta_max            =   4.9999999999761E-01
(PID.TID 0000.0001) %MON dynstat_theta_min            =  -1.9115570328477E+00
(PID.TID 0000.0001) %MON dynstat_theta_mean           =  -4.2476384963857E-01
(PID.TID 0000.0001) %MON dynstat_theta_sd             =   8.7832871600726E-01
(PID.TID 0000.0001) %MON dynstat_theta_del2           =   0.0000000000000E+00
(PID.TID 0000.0001) %MON dynstat_salt_max             =   3.4799999999999E+01
(PID.TID 0000.0001) %MON dynstat_salt_min             =   2.9014205985782E+01
(PID.TID 0000.0001) %MON dynstat_salt_mean            =   3.3593251105698E+01
(PID.TID 0000.0001) %MON dynstat_salt_sd              =   1.6845758238943E+00
(PID.TID 0000.0001) %MON dynstat_salt_del2            =   0.0000000000000E+00
(PID.TID 0000.0001) %MON dynstat_sst_max              =  -1.9115570328477E+00
(PID.TID 0000.0001) %MON dynstat_sst_min              =  -1.9115570328477E+00
(PID.TID 0000.0001) %MON dynstat_sst_mean             =  -1.9115570328477E+00
(PID.TID 0000.0001) %MON dynstat_sst_sd               =   0.0000000000000E+00
(PID.TID 0000.0001) %MON dynstat_sst_del2             =   0.0000000000000E+00
(PID.TID 0000.0001) %MON dynstat_sss_max              =   2.9014205985782E+01
(PID.TID 0000.0001) %MON dynstat_sss_min              =   2.9014205985782E+01
(PID.TID 0000.0001) %MON dynstat_sss_mean             =   2.9014205985782E+01
(PID.TID 0000.0001) %MON dynstat_sss_sd               =   3.5527136788005E-15
(PID.TID 0000.0001) %MON dynstat_sss_del2             =   0.0000000000000E+00
(PID.TID 0000.0001) %MON forcing_qnet_max             =   1.4768786449235E+02
(PID.TID 0000.0001) %MON forcing_qnet_min             =   1.4768786449235E+02
(PID.TID 0000.0001) %MON forcing_qnet_mean            =   1.4768786449235E+02
(PID.TID 0000.0001) %MON forcing_qnet_sd              =   0.0000000000000E+00
(PID.TID 0000.0001) %MON forcing_qnet_del2            =   0.0000000000000E+00
(PID.TID 0000.0001) %MON forcing_qsw_max              =  -1.9262155326459E+01
(PID.TID 0000.0001) %MON forcing_qsw_min              =  -1.9262155326459E+01
(PID.TID 0000.0001) %MON forcing_qsw_mean             =  -1.9262155326459E+01
(PID.TID 0000.0001) %MON forcing_qsw_sd               =   0.0000000000000E+00
(PID.TID 0000.0001) %MON forcing_qsw_del2             =   0.0000000000000E+00
(PID.TID 0000.0001) %MON forcing_empmr_max            =   2.8499713981824E-04
(PID.TID 0000.0001) %MON forcing_empmr_min            =   2.8499713981824E-04
(PID.TID 0000.0001) %MON forcing_empmr_mean           =   2.8499713981824E-04
(PID.TID 0000.0001) %MON forcing_empmr_sd             =   0.0000000000000E+00
(PID.TID 0000.0001) %MON forcing_empmr_del2           =   0.0000000000000E+00
(PID.TID 0000.0001) %MON forcing_fu_max               =   5.8657479286780E-03
(PID.TID 0000.0001) %MON forcing_fu_min               =   5.8657479286780E-03
(PID.TID 0000.0001) %MON forcing_fu_mean              =   5.8657479286780E-03
(PID.TID 0000.0001) %MON forcing_fu_sd                =   0.0000000000000E+00
(PID.TID 0000.0001) %MON forcing_fu_del2              =   0.0000000000000E+00
(PID.TID 0000.0001) %MON forcing_fv_max               =   5.8657479286780E-03
(PID.TID 0000.0001) %MON forcing_fv_min               =   5.8657479286780E-03
(PID.TID 0000.0001) %MON forcing_fv_mean              =   5.8657479286780E-03
(PID.TID 0000.0001) %MON forcing_fv_sd                =   0.0000000000000E+00
(PID.TID 0000.0001) %MON forcing_fv_del2              =   0.0000000000000E+00
(PID.TID 0000.0001) %MON trAdv_CFL_u_max              =   4.2943681197621E-03
(PID.TID 0000.0001) %MON trAdv_CFL_v_max              =   7.5932619030335E-04
(PID.TID 0000.0001) %MON trAdv_CFL_w_max              =   0.0000000000000E+00
(PID.TID 0000.0001) %MON advcfl_uvel_max              =   4.2943681197621E-03
(PID.TID 0000.0001) %MON advcfl_vvel_max              =   7.5932619030335E-04
(PID.TID 0000.0001) %MON advcfl_wvel_max              =   0.0000000000000E+00
(PID.TID 0000.0001) %MON advcfl_W_hf_max              =   0.0000000000000E+00
(PID.TID 0000.0001) %MON pe_b_mean                    =  -2.2060705569741E-07
(PID.TID 0000.0001) %MON ke_max                       =   1.8343146037143E-05
(PID.TID 0000.0001) %MON ke_mean                      =   5.1382751157233E-07
(PID.TID 0000.0001) %MON ke_vol                       =   1.2831500000000E+10
(PID.TID 0000.0001) %MON vort_r_min                   =   0.0000000000000E+00
(PID.TID 0000.0001) %MON vort_r_max                   =   0.0000000000000E+00
(PID.TID 0000.0001) %MON vort_a_mean                  =   1.0000000000000E-04
(PID.TID 0000.0001) %MON vort_a_sd                    =   0.0000000000000E+00
(PID.TID 0000.0001) %MON vort_p_mean                  =   1.0000000000000E-04
(PID.TID 0000.0001) %MON vort_p_sd                    =   0.0000000000000E+00
(PID.TID 0000.0001) %MON surfExpan_theta_mean         =   0.0000000000000E+00
(PID.TID 0000.0001) %MON surfExpan_salt_mean          =   0.0000000000000E+00
(PID.TID 0000.0001) // =======================================================
(PID.TID 0000.0001) // End MONITOR dynamic field statistics
(PID.TID 0000.0001) // =======================================================
(PID.TID 0000.0001) // =======================================================
(PID.TID 0000.0001) // Begin MONITOR SEAICE statistics
(PID.TID 0000.0001) // =======================================================
(PID.TID 0000.0001) %MON seaice_tsnumber              =                     4
(PID.TID 0000.0001) %MON seaice_time_sec              =   1.4400000000000E+04
(PID.TID 0000.0001) %MON seaice_uice_max              =   0.0000000000000E+00
(PID.TID 0000.0001) %MON seaice_uice_min              =   0.0000000000000E+00
(PID.TID 0000.0001) %MON seaice_uice_mean             =   0.0000000000000E+00
(PID.TID 0000.0001) %MON seaice_uice_sd               =   0.0000000000000E+00
(PID.TID 0000.0001) %MON seaice_uice_del2             =   0.0000000000000E+00
(PID.TID 0000.0001) %MON seaice_vice_max              =   0.0000000000000E+00
(PID.TID 0000.0001) %MON seaice_vice_min              =   0.0000000000000E+00
(PID.TID 0000.0001) %MON seaice_vice_mean             =   0.0000000000000E+00
(PID.TID 0000.0001) %MON seaice_vice_sd               =   0.0000000000000E+00
(PID.TID 0000.0001) %MON seaice_vice_del2             =   0.0000000000000E+00
(PID.TID 0000.0001) %MON seaice_area_max              =   2.0024319664248E-02
(PID.TID 0000.0001) %MON seaice_area_min              =   2.0024319664248E-02
(PID.TID 0000.0001) %MON seaice_area_mean             =   2.0024319664248E-02
(PID.TID 0000.0001) %MON seaice_area_sd               =   0.0000000000000E+00
(PID.TID 0000.0001) %MON seaice_area_del2             =   0.0000000000000E+00
(PID.TID 0000.0001) %MON seaice_heff_max              =   5.4305287532319E-03
(PID.TID 0000.0001) %MON seaice_heff_min              =   5.4305287532319E-03
(PID.TID 0000.0001) %MON seaice_heff_mean             =   5.4305287532319E-03
(PID.TID 0000.0001) %MON seaice_heff_sd               =   0.0000000000000E+00
(PID.TID 0000.0001) %MON seaice_heff_del2             =   0.0000000000000E+00
(PID.TID 0000.0001) %MON seaice_hsnow_max             =   0.0000000000000E+00
(PID.TID 0000.0001) %MON seaice_hsnow_min             =   0.0000000000000E+00
(PID.TID 0000.0001) %MON seaice_hsnow_mean            =   0.0000000000000E+00
(PID.TID 0000.0001) %MON seaice_hsnow_sd              =   0.0000000000000E+00
(PID.TID 0000.0001) %MON seaice_hsnow_del2            =   0.0000000000000E+00
(PID.TID 0000.0001) %MON seaice_hsalt_max             =   4.3008109578217E+01
(PID.TID 0000.0001) %MON seaice_hsalt_min             =   4.3008109578217E+01
(PID.TID 0000.0001) %MON seaice_hsalt_mean            =   4.3008109578217E+01
(PID.TID 0000.0001) %MON seaice_hsalt_sd              =   0.0000000000000E+00
(PID.TID 0000.0001) %MON seaice_hsalt_del2            =   0.0000000000000E+00
(PID.TID 0000.0001) // =======================================================
(PID.TID 0000.0001) // End MONITOR SEAICE statistics
(PID.TID 0000.0001) // =======================================================
(PID.TID 0000.0001) // =======================================================
(PID.TID 0000.0001) // Begin MONITOR EXF statistics
(PID.TID 0000.0001) // =======================================================
(PID.TID 0000.0001) %MON exf_tsnumber                 =                     4
(PID.TID 0000.0001) %MON exf_time_sec                 =   1.4400000000000E+04
(PID.TID 0000.0001) %MON exf_ustress_max              =   5.9521074286000E-03
(PID.TID 0000.0001) %MON exf_ustress_min              =   5.9521074286000E-03
(PID.TID 0000.0001) %MON exf_ustress_mean             =   5.9521074286000E-03
(PID.TID 0000.0001) %MON exf_ustress_sd               =   0.0000000000000E+00
(PID.TID 0000.0001) %MON exf_ustress_del2             =   0.0000000000000E+00
(PID.TID 0000.0001) %MON exf_vstress_max              =   5.9521074286000E-03
(PID.TID 0000.0001) %MON exf_vstress_min              =   5.9521074286000E-03
(PID.TID 0000.0001) %MON exf_vstress_mean             =   5.9521074286000E-03
(PID.TID 0000.0001) %MON exf_vstress_sd               =   0.0000000000000E+00
(PID.TID 0000.0001) %MON exf_vstress_del2             =   0.0000000000000E+00
(PID.TID 0000.0001) %MON exf_hflux_max                =   2.3760719377881E+02
(PID.TID 0000.0001) %MON exf_hflux_min                =   2.3760719377881E+02
(PID.TID 0000.0001) %MON exf_hflux_mean               =   2.3760719377881E+02
(PID.TID 0000.0001) %MON exf_hflux_sd                 =   0.0000000000000E+00
(PID.TID 0000.0001) %MON exf_hflux_del2               =   6.7205463191880E+02
(PID.TID 0000.0001) %MON exf_sflux_max                =   2.0684510886422E-08
(PID.TID 0000.0001) %MON exf_sflux_min                =   2.0684510886422E-08
(PID.TID 0000.0001) %MON exf_sflux_mean               =   2.0684510886422E-08
(PID.TID 0000.0001) %MON exf_sflux_sd                 =   0.0000000000000E+00
(PID.TID 0000.0001) %MON exf_sflux_del2               =   5.8504631653263E-08
(PID.TID 0000.0001) %MON exf_uwind_max                =   1.0000000000000E+00
(PID.TID 0000.0001) %MON exf_uwind_min                =   1.0000000000000E+00
(PID.TID 0000.0001) %MON exf_uwind_mean               =   1.0000000000000E+00
(PID.TID 0000.0001) %MON exf_uwind_sd                 =   0.0000000000000E+00
(PID.TID 0000.0001) %MON exf_uwind_del2               =   0.0000000000000E+00
(PID.TID 0000.0001) %MON exf_vwind_max                =   1.0000000000000E+00
(PID.TID 0000.0001) %MON exf_vwind_min                =   1.0000000000000E+00
(PID.TID 0000.0001) %MON exf_vwind_mean               =   1.0000000000000E+00
(PID.TID 0000.0001) %MON exf_vwind_sd                 =   0.0000000000000E+00
(PID.TID 0000.0001) %MON exf_vwind_del2               =   0.0000000000000E+00
(PID.TID 0000.0001) %MON exf_wspeed_max               =   1.4142135623731E+00
(PID.TID 0000.0001) %MON exf_wspeed_min               =   1.4142135623731E+00
(PID.TID 0000.0001) %MON exf_wspeed_mean              =   1.4142135623731E+00
(PID.TID 0000.0001) %MON exf_wspeed_sd                =   0.0000000000000E+00
(PID.TID 0000.0001) %MON exf_wspeed_del2              =   4.0000000000000E+00
(PID.TID 0000.0001) %MON exf_atemp_max                =   2.5301868438721E+02
(PID.TID 0000.0001) %MON exf_atemp_min                =   2.5301868438721E+02
(PID.TID 0000.0001) %MON exf_atemp_mean               =   2.5301868438721E+02
(PID.TID 0000.0001) %MON exf_atemp_sd                 =   0.0000000000000E+00
(PID.TID 0000.0001) %MON exf_atemp_del2               =   5.6968243407298E+01
(PID.TID 0000.0001) %MON exf_lwflux_max               =   1.0641683259747E+02
(PID.TID 0000.0001) %MON exf_lwflux_min               =   1.0641683259747E+02
(PID.TID 0000.0001) %MON exf_lwflux_mean              =   1.0641683259747E+02
(PID.TID 0000.0001) %MON exf_lwflux_sd                =   0.0000000000000E+00
(PID.TID 0000.0001) %MON exf_lwflux_del2              =   3.0099225584826E+02
(PID.TID 0000.0001) %MON exf_evap_max                 =   2.0684510886422E-08
(PID.TID 0000.0001) %MON exf_evap_min                 =   2.0684510886422E-08
(PID.TID 0000.0001) %MON exf_evap_mean                =   2.0684510886422E-08
(PID.TID 0000.0001) %MON exf_evap_sd                  =   0.0000000000000E+00
(PID.TID 0000.0001) %MON exf_evap_del2                =   5.8504631653263E-08
(PID.TID 0000.0001) %MON exf_swflux_max               =  -1.9559927988052E+01
(PID.TID 0000.0001) %MON exf_swflux_min               =  -1.9559927988052E+01
(PID.TID 0000.0001) %MON exf_swflux_mean              =  -1.9559927988052E+01
(PID.TID 0000.0001) %MON exf_swflux_sd                =   0.0000000000000E+00
(PID.TID 0000.0001) %MON exf_swflux_del2              =   5.5323830879490E+01
(PID.TID 0000.0001) %MON exf_swdown_max               =   2.1733253320058E+01
(PID.TID 0000.0001) %MON exf_swdown_min               =   2.1733253320058E+01
(PID.TID 0000.0001) %MON exf_swdown_mean              =   2.1733253320058E+01
(PID.TID 0000.0001) %MON exf_swdown_sd                =   0.0000000000000E+00
(PID.TID 0000.0001) %MON exf_swdown_del2              =   6.1470923199433E+01
(PID.TID 0000.0001) %MON exf_lwdown_max               =   1.9127550760905E+02
(PID.TID 0000.0001) %MON exf_lwdown_min               =   1.9127550760905E+02
(PID.TID 0000.0001) %MON exf_lwdown_mean              =   1.9127550760905E+02
(PID.TID 0000.0001) %MON exf_lwdown_sd                =   0.0000000000000E+00
(PID.TID 0000.0001) %MON exf_lwdown_del2              =   5.4100883402103E+02
(PID.TID 0000.0001) // =======================================================
(PID.TID 0000.0001) // End MONITOR EXF statistics
(PID.TID 0000.0001) // =======================================================
 ph-ice B            4  -1.9115570328477209       2.54432301173443433E-002  6.25461707085258299E-003
 ph-ice C            4   180117.66923656425     
 cg2d: Sum(rhs),rhsMax =   1.00000000000000E+00  2.21776143798627E-05
(PID.TID 0000.0001)      cg2d_init_res =   1.35783891757455E-01
(PID.TID 0000.0001)      cg2d_iters(min,last) =      -1       1
(PID.TID 0000.0001)      cg2d_last_res =   0.00000000000000E+00
(PID.TID 0000.0001) // =======================================================
(PID.TID 0000.0001) // Begin MONITOR dynamic field statistics
(PID.TID 0000.0001) // =======================================================
(PID.TID 0000.0001) %MON time_tsnumber                =                     5
(PID.TID 0000.0001) %MON time_secondsf                =   1.8000000000000E+04
(PID.TID 0000.0001) %MON dynstat_eta_max              =  -5.9008862136698E-03
(PID.TID 0000.0001) %MON dynstat_eta_min              =  -5.9008862136698E-03
(PID.TID 0000.0001) %MON dynstat_eta_mean             =  -5.9008862136698E-03
(PID.TID 0000.0001) %MON dynstat_eta_sd               =   0.0000000000000E+00
(PID.TID 0000.0001) %MON dynstat_eta_del2             =   0.0000000000000E+00
(PID.TID 0000.0001) %MON dynstat_uvel_max             =   6.7816246545823E-03
(PID.TID 0000.0001) %MON dynstat_uvel_min             =   4.3344562427530E-70
(PID.TID 0000.0001) %MON dynstat_uvel_mean            =   2.5960273473265E-04
(PID.TID 0000.0001) %MON dynstat_uvel_sd              =   1.1235206997651E-03
(PID.TID 0000.0001) %MON dynstat_uvel_del2            =   0.0000000000000E+00
(PID.TID 0000.0001) %MON dynstat_vvel_max             =   9.1719396931319E-05
(PID.TID 0000.0001) %MON dynstat_vvel_min             =  -1.0863308743558E-03
(PID.TID 0000.0001) %MON dynstat_vvel_mean            =  -4.0883143634501E-05
(PID.TID 0000.0001) %MON dynstat_vvel_sd              =   2.0188845177073E-04
(PID.TID 0000.0001) %MON dynstat_vvel_del2            =   0.0000000000000E+00
(PID.TID 0000.0001) %MON dynstat_wvel_max             =  -0.0000000000000E+00
(PID.TID 0000.0001) %MON dynstat_wvel_min             =  -0.0000000000000E+00
(PID.TID 0000.0001) %MON dynstat_wvel_mean            =   0.0000000000000E+00
(PID.TID 0000.0001) %MON dynstat_wvel_sd              =   0.0000000000000E+00
(PID.TID 0000.0001) %MON dynstat_wvel_del2            =   0.0000000000000E+00
(PID.TID 0000.0001) %MON dynstat_theta_max            =   4.9999999999714E-01
(PID.TID 0000.0001) %MON dynstat_theta_min            =  -1.9071999657392E+00
(PID.TID 0000.0001) %MON dynstat_theta_mean           =  -4.2504806134327E-01
(PID.TID 0000.0001) %MON dynstat_theta_sd             =   8.7853749975064E-01
(PID.TID 0000.0001) %MON dynstat_theta_del2           =   0.0000000000000E+00
(PID.TID 0000.0001) %MON dynstat_salt_max             =   3.4799999999999E+01
(PID.TID 0000.0001) %MON dynstat_salt_min             =   2.9015637875127E+01
(PID.TID 0000.0001) %MON dynstat_salt_mean            =   3.3593284016118E+01
(PID.TID 0000.0001) %MON dynstat_salt_sd              =   1.6844848731315E+00
(PID.TID 0000.0001) %MON dynstat_salt_del2            =   0.0000000000000E+00
(PID.TID 0000.0001) %MON dynstat_sst_max              =  -1.9071999657392E+00
(PID.TID 0000.0001) %MON dynstat_sst_min              =  -1.9071999657392E+00
(PID.TID 0000.0001) %MON dynstat_sst_mean             =  -1.9071999657392E+00
(PID.TID 0000.0001) %MON dynstat_sst_sd               =   0.0000000000000E+00
(PID.TID 0000.0001) %MON dynstat_sst_del2             =   0.0000000000000E+00
(PID.TID 0000.0001) %MON dynstat_sss_max              =   2.9015637875127E+01
(PID.TID 0000.0001) %MON dynstat_sss_min              =   2.9015637875127E+01
(PID.TID 0000.0001) %MON dynstat_sss_mean             =   2.9015637875127E+01
(PID.TID 0000.0001) %MON dynstat_sss_sd               =   0.0000000000000E+00
(PID.TID 0000.0001) %MON dynstat_sss_del2             =   0.0000000000000E+00
(PID.TID 0000.0001) %MON forcing_qnet_max             =   1.6587640572621E+02
(PID.TID 0000.0001) %MON forcing_qnet_min             =   1.6587640572621E+02
(PID.TID 0000.0001) %MON forcing_qnet_mean            =   1.6587640572621E+02
(PID.TID 0000.0001) %MON forcing_qnet_sd              =   0.0000000000000E+00
(PID.TID 0000.0001) %MON forcing_qnet_del2            =   0.0000000000000E+00
(PID.TID 0000.0001) %MON forcing_qsw_max              =  -1.9196084949912E+01
(PID.TID 0000.0001) %MON forcing_qsw_min              =  -1.9196084949912E+01
(PID.TID 0000.0001) %MON forcing_qsw_mean             =  -1.9196084949912E+01
(PID.TID 0000.0001) %MON forcing_qsw_sd               =   0.0000000000000E+00
(PID.TID 0000.0001) %MON forcing_qsw_del2             =   0.0000000000000E+00
(PID.TID 0000.0001) %MON forcing_empmr_max            =   2.2857747718559E-04
(PID.TID 0000.0001) %MON forcing_empmr_min            =   2.2857747718559E-04
(PID.TID 0000.0001) %MON forcing_empmr_mean           =   2.2857747718559E-04
(PID.TID 0000.0001) %MON forcing_empmr_sd             =   0.0000000000000E+00
(PID.TID 0000.0001) %MON forcing_empmr_del2           =   0.0000000000000E+00
(PID.TID 0000.0001) %MON forcing_fu_max               =   5.8329205267737E-03
(PID.TID 0000.0001) %MON forcing_fu_min               =   5.8329205267737E-03
(PID.TID 0000.0001) %MON forcing_fu_mean              =   5.8329205267737E-03
(PID.TID 0000.0001) %MON forcing_fu_sd                =   0.0000000000000E+00
(PID.TID 0000.0001) %MON forcing_fu_del2              =   0.0000000000000E+00
(PID.TID 0000.0001) %MON forcing_fv_max               =   5.8329205267737E-03
(PID.TID 0000.0001) %MON forcing_fv_min               =   5.8329205267737E-03
(PID.TID 0000.0001) %MON forcing_fv_mean              =   5.8329205267737E-03
(PID.TID 0000.0001) %MON forcing_fv_sd                =   0.0000000000000E+00
(PID.TID 0000.0001) %MON forcing_fv_del2              =   0.0000000000000E+00
(PID.TID 0000.0001) %MON trAdv_CFL_u_max              =   4.8827697512992E-03
(PID.TID 0000.0001) %MON trAdv_CFL_v_max              =   7.8215822953620E-04
(PID.TID 0000.0001) %MON trAdv_CFL_w_max              =   0.0000000000000E+00
(PID.TID 0000.0001) %MON advcfl_uvel_max              =   4.8827697512992E-03
(PID.TID 0000.0001) %MON advcfl_vvel_max              =   7.8215822953620E-04
(PID.TID 0000.0001) %MON advcfl_wvel_max              =   0.0000000000000E+00
(PID.TID 0000.0001) %MON advcfl_W_hf_max              =   0.0000000000000E+00
(PID.TID 0000.0001) %MON pe_b_mean                    =  -2.9246132270791E-07
(PID.TID 0000.0001) %MON ke_max                       =   2.2999422701706E-05
(PID.TID 0000.0001) %MON ke_mean                      =   6.8606136053652E-07
(PID.TID 0000.0001) %MON ke_vol                       =   1.2831500000000E+10
(PID.TID 0000.0001) %MON vort_r_min                   =   0.0000000000000E+00
(PID.TID 0000.0001) %MON vort_r_max                   =   0.0000000000000E+00
(PID.TID 0000.0001) %MON vort_a_mean                  =   1.0000000000000E-04
(PID.TID 0000.0001) %MON vort_a_sd                    =   0.0000000000000E+00
(PID.TID 0000.0001) %MON vort_p_mean                  =   1.0000000000000E-04
(PID.TID 0000.0001) %MON vort_p_sd                    =   0.0000000000000E+00
(PID.TID 0000.0001) %MON surfExpan_theta_mean         =   0.0000000000000E+00
(PID.TID 0000.0001) %MON surfExpan_salt_mean          =   0.0000000000000E+00
(PID.TID 0000.0001) // =======================================================
(PID.TID 0000.0001) // End MONITOR dynamic field statistics
(PID.TID 0000.0001) // =======================================================
(PID.TID 0000.0001) // =======================================================
(PID.TID 0000.0001) // Begin MONITOR SEAICE statistics
(PID.TID 0000.0001) // =======================================================
(PID.TID 0000.0001) %MON seaice_tsnumber              =                     5
(PID.TID 0000.0001) %MON seaice_time_sec              =   1.8000000000000E+04
(PID.TID 0000.0001) %MON seaice_uice_max              =   0.0000000000000E+00
(PID.TID 0000.0001) %MON seaice_uice_min              =   0.0000000000000E+00
(PID.TID 0000.0001) %MON seaice_uice_mean             =   0.0000000000000E+00
(PID.TID 0000.0001) %MON seaice_uice_sd               =   0.0000000000000E+00
(PID.TID 0000.0001) %MON seaice_uice_del2             =   0.0000000000000E+00
(PID.TID 0000.0001) %MON seaice_vice_max              =   0.0000000000000E+00
(PID.TID 0000.0001) %MON seaice_vice_min              =   0.0000000000000E+00
(PID.TID 0000.0001) %MON seaice_vice_mean             =   0.0000000000000E+00
(PID.TID 0000.0001) %MON seaice_vice_sd               =   0.0000000000000E+00
(PID.TID 0000.0001) %MON seaice_vice_del2             =   0.0000000000000E+00
(PID.TID 0000.0001) %MON seaice_area_max              =   2.5443230117344E-02
(PID.TID 0000.0001) %MON seaice_area_min              =   2.5443230117344E-02
(PID.TID 0000.0001) %MON seaice_area_mean             =   2.5443230117344E-02
(PID.TID 0000.0001) %MON seaice_area_sd               =   0.0000000000000E+00
(PID.TID 0000.0001) %MON seaice_area_del2             =   0.0000000000000E+00
(PID.TID 0000.0001) %MON seaice_heff_max              =   6.2546170708526E-03
(PID.TID 0000.0001) %MON seaice_heff_min              =   6.2546170708526E-03
(PID.TID 0000.0001) %MON seaice_heff_mean             =   6.2546170708526E-03
(PID.TID 0000.0001) %MON seaice_heff_sd               =   0.0000000000000E+00
(PID.TID 0000.0001) %MON seaice_heff_del2             =   0.0000000000000E+00
(PID.TID 0000.0001) %MON seaice_hsnow_max             =   0.0000000000000E+00
(PID.TID 0000.0001) %MON seaice_hsnow_min             =   0.0000000000000E+00
(PID.TID 0000.0001) %MON seaice_hsnow_mean            =   0.0000000000000E+00
(PID.TID 0000.0001) %MON seaice_hsnow_sd              =   0.0000000000000E+00
(PID.TID 0000.0001) %MON seaice_hsnow_del2            =   0.0000000000000E+00
(PID.TID 0000.0001) %MON seaice_hsalt_max             =   4.9535612796250E+01
(PID.TID 0000.0001) %MON seaice_hsalt_min             =   4.9535612796250E+01
(PID.TID 0000.0001) %MON seaice_hsalt_mean            =   4.9535612796250E+01
(PID.TID 0000.0001) %MON seaice_hsalt_sd              =   0.0000000000000E+00
(PID.TID 0000.0001) %MON seaice_hsalt_del2            =   0.0000000000000E+00
(PID.TID 0000.0001) // =======================================================
(PID.TID 0000.0001) // End MONITOR SEAICE statistics
(PID.TID 0000.0001) // =======================================================
(PID.TID 0000.0001) // =======================================================
(PID.TID 0000.0001) // Begin MONITOR EXF statistics
(PID.TID 0000.0001) // =======================================================
(PID.TID 0000.0001) %MON exf_tsnumber                 =                     5
(PID.TID 0000.0001) %MON exf_time_sec                 =   1.8000000000000E+04
(PID.TID 0000.0001) %MON exf_ustress_max              =   5.9520993135007E-03
(PID.TID 0000.0001) %MON exf_ustress_min              =   5.9520993135007E-03
(PID.TID 0000.0001) %MON exf_ustress_mean             =   5.9520993135007E-03
(PID.TID 0000.0001) %MON exf_ustress_sd               =   0.0000000000000E+00
(PID.TID 0000.0001) %MON exf_ustress_del2             =   0.0000000000000E+00
(PID.TID 0000.0001) %MON exf_vstress_max              =   5.9520993135007E-03
(PID.TID 0000.0001) %MON exf_vstress_min              =   5.9520993135007E-03
(PID.TID 0000.0001) %MON exf_vstress_mean             =   5.9520993135007E-03
(PID.TID 0000.0001) %MON exf_vstress_sd               =   0.0000000000000E+00
(PID.TID 0000.0001) %MON exf_vstress_del2             =   0.0000000000000E+00
(PID.TID 0000.0001) %MON exf_hflux_max                =   2.3757709517384E+02
(PID.TID 0000.0001) %MON exf_hflux_min                =   2.3757709517384E+02
(PID.TID 0000.0001) %MON exf_hflux_mean               =   2.3757709517384E+02
(PID.TID 0000.0001) %MON exf_hflux_sd                 =   0.0000000000000E+00
(PID.TID 0000.0001) %MON exf_hflux_del2               =   6.7196950020810E+02
(PID.TID 0000.0001) %MON exf_sflux_max                =   2.0690726956375E-08
(PID.TID 0000.0001) %MON exf_sflux_min                =   2.0690726956375E-08
(PID.TID 0000.0001) %MON exf_sflux_mean               =   2.0690726956375E-08
(PID.TID 0000.0001) %MON exf_sflux_sd                 =   0.0000000000000E+00
(PID.TID 0000.0001) %MON exf_sflux_del2               =   5.8522213354129E-08
(PID.TID 0000.0001) %MON exf_uwind_max                =   1.0000000000000E+00
(PID.TID 0000.0001) %MON exf_uwind_min                =   1.0000000000000E+00
(PID.TID 0000.0001) %MON exf_uwind_mean               =   1.0000000000000E+00
(PID.TID 0000.0001) %MON exf_uwind_sd                 =   0.0000000000000E+00
(PID.TID 0000.0001) %MON exf_uwind_del2               =   0.0000000000000E+00
(PID.TID 0000.0001) %MON exf_vwind_max                =   1.0000000000000E+00
(PID.TID 0000.0001) %MON exf_vwind_min                =   1.0000000000000E+00
(PID.TID 0000.0001) %MON exf_vwind_mean               =   1.0000000000000E+00
(PID.TID 0000.0001) %MON exf_vwind_sd                 =   0.0000000000000E+00
(PID.TID 0000.0001) %MON exf_vwind_del2               =   0.0000000000000E+00
(PID.TID 0000.0001) %MON exf_wspeed_max               =   1.4142135623731E+00
(PID.TID 0000.0001) %MON exf_wspeed_min               =   1.4142135623731E+00
(PID.TID 0000.0001) %MON exf_wspeed_mean              =   1.4142135623731E+00
(PID.TID 0000.0001) %MON exf_wspeed_sd                =   0.0000000000000E+00
(PID.TID 0000.0001) %MON exf_wspeed_del2              =   4.0000000000000E+00
(PID.TID 0000.0001) %MON exf_atemp_max                =   2.5302308273315E+02
(PID.TID 0000.0001) %MON exf_atemp_min                =   2.5302308273315E+02
(PID.TID 0000.0001) %MON exf_atemp_mean               =   2.5302308273315E+02
(PID.TID 0000.0001) %MON exf_atemp_sd                 =   0.0000000000000E+00
(PID.TID 0000.0001) %MON exf_atemp_del2               =   5.6955803006316E+01
(PID.TID 0000.0001) %MON exf_lwflux_max               =   1.0640640228905E+02
(PID.TID 0000.0001) %MON exf_lwflux_min               =   1.0640640228905E+02
(PID.TID 0000.0001) %MON exf_lwflux_mean              =   1.0640640228905E+02
(PID.TID 0000.0001) %MON exf_lwflux_sd                =   1.4210854715202E-14
(PID.TID 0000.0001) %MON exf_lwflux_del2              =   3.0096275448099E+02
(PID.TID 0000.0001) %MON exf_evap_max                 =   2.0690726956375E-08
(PID.TID 0000.0001) %MON exf_evap_min                 =   2.0690726956375E-08
(PID.TID 0000.0001) %MON exf_evap_mean                =   2.0690726956375E-08
(PID.TID 0000.0001) %MON exf_evap_sd                  =   0.0000000000000E+00
(PID.TID 0000.0001) %MON exf_evap_del2                =   5.8522213354129E-08
(PID.TID 0000.0001) %MON exf_swflux_max               =  -1.9594722533226E+01
(PID.TID 0000.0001) %MON exf_swflux_min               =  -1.9594722533226E+01
(PID.TID 0000.0001) %MON exf_swflux_mean              =  -1.9594722533226E+01
(PID.TID 0000.0001) %MON exf_swflux_sd                =   0.0000000000000E+00
(PID.TID 0000.0001) %MON exf_swflux_del2              =   5.5422244714852E+01
(PID.TID 0000.0001) %MON exf_swdown_max               =   2.1771913925807E+01
(PID.TID 0000.0001) %MON exf_swdown_min               =   2.1771913925807E+01
(PID.TID 0000.0001) %MON exf_swdown_mean              =   2.1771913925807E+01
(PID.TID 0000.0001) %MON exf_swdown_sd                =   0.0000000000000E+00
(PID.TID 0000.0001) %MON exf_swdown_del2              =   6.1580271905391E+01
(PID.TID 0000.0001) %MON exf_lwdown_max               =   1.9130506642660E+02
(PID.TID 0000.0001) %MON exf_lwdown_min               =   1.9130506642660E+02
(PID.TID 0000.0001) %MON exf_lwdown_mean              =   1.9130506642660E+02
(PID.TID 0000.0001) %MON exf_lwdown_sd                =   0.0000000000000E+00
(PID.TID 0000.0001) %MON exf_lwdown_del2              =   5.4109243898235E+02
(PID.TID 0000.0001) // =======================================================
(PID.TID 0000.0001) // End MONITOR EXF statistics
(PID.TID 0000.0001) // =======================================================
 ph-ice B            5  -1.9071999657391594       3.07544745731006819E-002  6.90084944997937204E-003
 ph-ice C            5   257001.72000123915     
 cg2d: Sum(rhs),rhsMax =   1.00000000000000E+00  2.45952871586637E-05
(PID.TID 0000.0001)      cg2d_init_res =   9.82982131172321E-02
(PID.TID 0000.0001)      cg2d_iters(min,last) =      -1       1
(PID.TID 0000.0001)      cg2d_last_res =   1.38777878078145E-17
(PID.TID 0000.0001) // =======================================================
(PID.TID 0000.0001) // Begin MONITOR dynamic field statistics
(PID.TID 0000.0001) // =======================================================
(PID.TID 0000.0001) %MON time_tsnumber                =                     6
(PID.TID 0000.0001) %MON time_secondsf                =   2.1600000000000E+04
(PID.TID 0000.0001) %MON dynstat_eta_max              =  -6.5441660419340E-03
(PID.TID 0000.0001) %MON dynstat_eta_min              =  -6.5441660419340E-03
(PID.TID 0000.0001) %MON dynstat_eta_mean             =  -6.5441660419340E-03
(PID.TID 0000.0001) %MON dynstat_eta_sd               =   0.0000000000000E+00
(PID.TID 0000.0001) %MON dynstat_eta_del2             =   0.0000000000000E+00
(PID.TID 0000.0001) %MON dynstat_uvel_max             =   7.1696933961354E-03
(PID.TID 0000.0001) %MON dynstat_uvel_min             =  -1.3234163051777E-36
(PID.TID 0000.0001) %MON dynstat_uvel_mean            =   2.7305208889201E-04
(PID.TID 0000.0001) %MON dynstat_uvel_sd              =   1.1850372671669E-03
(PID.TID 0000.0001) %MON dynstat_uvel_del2            =   0.0000000000000E+00
(PID.TID 0000.0001) %MON dynstat_vvel_max             =  -6.3520318525209E-69
(PID.TID 0000.0001) %MON dynstat_vvel_min             =  -2.0505850322133E-03
(PID.TID 0000.0001) %MON dynstat_vvel_mean            =  -1.0269830489470E-04
(PID.TID 0000.0001) %MON dynstat_vvel_sd              =   4.1056528851461E-04
(PID.TID 0000.0001) %MON dynstat_vvel_del2            =   0.0000000000000E+00
(PID.TID 0000.0001) %MON dynstat_wvel_max             =  -0.0000000000000E+00
(PID.TID 0000.0001) %MON dynstat_wvel_min             =  -0.0000000000000E+00
(PID.TID 0000.0001) %MON dynstat_wvel_mean            =   0.0000000000000E+00
(PID.TID 0000.0001) %MON dynstat_wvel_sd              =   0.0000000000000E+00
(PID.TID 0000.0001) %MON dynstat_wvel_del2            =   0.0000000000000E+00
(PID.TID 0000.0001) %MON dynstat_theta_max            =   4.9999999999667E-01
(PID.TID 0000.0001) %MON dynstat_theta_min            =  -1.9040029491701E+00
(PID.TID 0000.0001) %MON dynstat_theta_mean           =  -4.2535692091924E-01
(PID.TID 0000.0001) %MON dynstat_theta_sd             =   8.7883216223407E-01
(PID.TID 0000.0001) %MON dynstat_theta_del2           =   0.0000000000000E+00
(PID.TID 0000.0001) %MON dynstat_salt_max             =   3.4799999999999E+01
(PID.TID 0000.0001) %MON dynstat_salt_min             =   2.9016880498439E+01
(PID.TID 0000.0001) %MON dynstat_salt_mean            =   3.3593310670782E+01
(PID.TID 0000.0001) %MON dynstat_salt_sd              =   1.6844111920631E+00
(PID.TID 0000.0001) %MON dynstat_salt_del2            =   0.0000000000000E+00
(PID.TID 0000.0001) %MON dynstat_sst_max              =  -1.9040029491701E+00
(PID.TID 0000.0001) %MON dynstat_sst_min              =  -1.9040029491701E+00
(PID.TID 0000.0001) %MON dynstat_sst_mean             =  -1.9040029491701E+00
(PID.TID 0000.0001) %MON dynstat_sst_sd               =   0.0000000000000E+00
(PID.TID 0000.0001) %MON dynstat_sst_del2             =   0.0000000000000E+00
(PID.TID 0000.0001) %MON dynstat_sss_max              =   2.9016880498439E+01
(PID.TID 0000.0001) %MON dynstat_sss_min              =   2.9016880498439E+01
(PID.TID 0000.0001) %MON dynstat_sss_mean             =   2.9016880498439E+01
(PID.TID 0000.0001) %MON dynstat_sss_sd               =   0.0000000000000E+00
(PID.TID 0000.0001) %MON dynstat_sss_del2             =   0.0000000000000E+00
(PID.TID 0000.0001) %MON forcing_qnet_max             =   1.8026181008078E+02
(PID.TID 0000.0001) %MON forcing_qnet_min             =   1.8026181008078E+02
(PID.TID 0000.0001) %MON forcing_qnet_mean            =   1.8026181008078E+02
(PID.TID 0000.0001) %MON forcing_qnet_sd              =   0.0000000000000E+00
(PID.TID 0000.0001) %MON forcing_qnet_del2            =   0.0000000000000E+00
(PID.TID 0000.0001) %MON forcing_qsw_max              =  -1.9131495614272E+01
(PID.TID 0000.0001) %MON forcing_qsw_min              =  -1.9131495614272E+01
(PID.TID 0000.0001) %MON forcing_qsw_mean             =  -1.9131495614272E+01
(PID.TID 0000.0001) %MON forcing_qsw_sd               =   0.0000000000000E+00
(PID.TID 0000.0001) %MON forcing_qsw_del2             =   0.0000000000000E+00
(PID.TID 0000.0001) %MON forcing_empmr_max            =   1.8351343989524E-04
(PID.TID 0000.0001) %MON forcing_empmr_min            =   1.8351343989524E-04
(PID.TID 0000.0001) %MON forcing_empmr_mean           =   1.8351343989524E-04
(PID.TID 0000.0001) %MON forcing_empmr_sd             =   0.0000000000000E+00
(PID.TID 0000.0001) %MON forcing_empmr_del2           =   0.0000000000000E+00
(PID.TID 0000.0001) %MON forcing_fu_max               =   5.8006586809860E-03
(PID.TID 0000.0001) %MON forcing_fu_min               =   5.8006586809860E-03
(PID.TID 0000.0001) %MON forcing_fu_mean              =   5.8006586809860E-03
(PID.TID 0000.0001) %MON forcing_fu_sd                =   0.0000000000000E+00
(PID.TID 0000.0001) %MON forcing_fu_del2              =   0.0000000000000E+00
(PID.TID 0000.0001) %MON forcing_fv_max               =   5.8006586809860E-03
(PID.TID 0000.0001) %MON forcing_fv_min               =   5.8006586809860E-03
(PID.TID 0000.0001) %MON forcing_fv_mean              =   5.8006586809860E-03
(PID.TID 0000.0001) %MON forcing_fv_sd                =   0.0000000000000E+00
(PID.TID 0000.0001) %MON forcing_fv_del2              =   0.0000000000000E+00
(PID.TID 0000.0001) %MON trAdv_CFL_u_max              =   5.1621792452175E-03
(PID.TID 0000.0001) %MON trAdv_CFL_v_max              =   1.4764212231936E-03
(PID.TID 0000.0001) %MON trAdv_CFL_w_max              =   0.0000000000000E+00
(PID.TID 0000.0001) %MON advcfl_uvel_max              =   5.1621792452175E-03
(PID.TID 0000.0001) %MON advcfl_vvel_max              =   1.4764212231936E-03
(PID.TID 0000.0001) %MON advcfl_wvel_max              =   0.0000000000000E+00
(PID.TID 0000.0001) %MON advcfl_W_hf_max              =   0.0000000000000E+00
(PID.TID 0000.0001) %MON pe_b_mean                    =  -3.5575296838720E-07
(PID.TID 0000.0001) %MON ke_max                       =   2.6233170949775E-05
(PID.TID 0000.0001) %MON ke_mean                      =   8.2899078289203E-07
(PID.TID 0000.0001) %MON ke_vol                       =   1.2831500000000E+10
(PID.TID 0000.0001) %MON vort_r_min                   =   0.0000000000000E+00
(PID.TID 0000.0001) %MON vort_r_max                   =   0.0000000000000E+00
(PID.TID 0000.0001) %MON vort_a_mean                  =   1.0000000000000E-04
(PID.TID 0000.0001) %MON vort_a_sd                    =   0.0000000000000E+00
(PID.TID 0000.0001) %MON vort_p_mean                  =   1.0000000000000E-04
(PID.TID 0000.0001) %MON vort_p_sd                    =   0.0000000000000E+00
(PID.TID 0000.0001) %MON surfExpan_theta_mean         =   0.0000000000000E+00
(PID.TID 0000.0001) %MON surfExpan_salt_mean          =   0.0000000000000E+00
(PID.TID 0000.0001) // =======================================================
(PID.TID 0000.0001) // End MONITOR dynamic field statistics
(PID.TID 0000.0001) // =======================================================
(PID.TID 0000.0001) // =======================================================
(PID.TID 0000.0001) // Begin MONITOR SEAICE statistics
(PID.TID 0000.0001) // =======================================================
(PID.TID 0000.0001) %MON seaice_tsnumber              =                     6
(PID.TID 0000.0001) %MON seaice_time_sec              =   2.1600000000000E+04
(PID.TID 0000.0001) %MON seaice_uice_max              =   0.0000000000000E+00
(PID.TID 0000.0001) %MON seaice_uice_min              =   0.0000000000000E+00
(PID.TID 0000.0001) %MON seaice_uice_mean             =   0.0000000000000E+00
(PID.TID 0000.0001) %MON seaice_uice_sd               =   0.0000000000000E+00
(PID.TID 0000.0001) %MON seaice_uice_del2             =   0.0000000000000E+00
(PID.TID 0000.0001) %MON seaice_vice_max              =   0.0000000000000E+00
(PID.TID 0000.0001) %MON seaice_vice_min              =   0.0000000000000E+00
(PID.TID 0000.0001) %MON seaice_vice_mean             =   0.0000000000000E+00
(PID.TID 0000.0001) %MON seaice_vice_sd               =   0.0000000000000E+00
(PID.TID 0000.0001) %MON seaice_vice_del2             =   0.0000000000000E+00
(PID.TID 0000.0001) %MON seaice_area_max              =   3.0754474573101E-02
(PID.TID 0000.0001) %MON seaice_area_min              =   3.0754474573101E-02
(PID.TID 0000.0001) %MON seaice_area_mean             =   3.0754474573101E-02
(PID.TID 0000.0001) %MON seaice_area_sd               =   0.0000000000000E+00
(PID.TID 0000.0001) %MON seaice_area_del2             =   0.0000000000000E+00
(PID.TID 0000.0001) %MON seaice_heff_max              =   6.9008494499794E-03
(PID.TID 0000.0001) %MON seaice_heff_min              =   6.9008494499794E-03
(PID.TID 0000.0001) %MON seaice_heff_mean             =   6.9008494499794E-03
(PID.TID 0000.0001) %MON seaice_heff_sd               =   0.0000000000000E+00
(PID.TID 0000.0001) %MON seaice_heff_del2             =   0.0000000000000E+00
(PID.TID 0000.0001) %MON seaice_hsnow_max             =   0.0000000000000E+00
(PID.TID 0000.0001) %MON seaice_hsnow_min             =   0.0000000000000E+00
(PID.TID 0000.0001) %MON seaice_hsnow_mean            =   0.0000000000000E+00
(PID.TID 0000.0001) %MON seaice_hsnow_sd              =   0.0000000000000E+00
(PID.TID 0000.0001) %MON seaice_hsnow_del2            =   0.0000000000000E+00
(PID.TID 0000.0001) %MON seaice_hsalt_max             =   5.4654593398238E+01
(PID.TID 0000.0001) %MON seaice_hsalt_min             =   5.4654593398238E+01
(PID.TID 0000.0001) %MON seaice_hsalt_mean            =   5.4654593398238E+01
(PID.TID 0000.0001) %MON seaice_hsalt_sd              =   0.0000000000000E+00
(PID.TID 0000.0001) %MON seaice_hsalt_del2            =   0.0000000000000E+00
(PID.TID 0000.0001) // =======================================================
(PID.TID 0000.0001) // End MONITOR SEAICE statistics
(PID.TID 0000.0001) // =======================================================
(PID.TID 0000.0001) // =======================================================
(PID.TID 0000.0001) // Begin MONITOR EXF statistics
(PID.TID 0000.0001) // =======================================================
(PID.TID 0000.0001) %MON exf_tsnumber                 =                     6
(PID.TID 0000.0001) %MON exf_time_sec                 =   2.1600000000000E+04
(PID.TID 0000.0001) %MON exf_ustress_max              =   5.9520373902864E-03
(PID.TID 0000.0001) %MON exf_ustress_min              =   5.9520373902864E-03
(PID.TID 0000.0001) %MON exf_ustress_mean             =   5.9520373902864E-03
(PID.TID 0000.0001) %MON exf_ustress_sd               =   0.0000000000000E+00
(PID.TID 0000.0001) %MON exf_ustress_del2             =   0.0000000000000E+00
(PID.TID 0000.0001) %MON exf_vstress_max              =   5.9520373902864E-03
(PID.TID 0000.0001) %MON exf_vstress_min              =   5.9520373902864E-03
(PID.TID 0000.0001) %MON exf_vstress_mean             =   5.9520373902864E-03
(PID.TID 0000.0001) %MON exf_vstress_sd               =   0.0000000000000E+00
(PID.TID 0000.0001) %MON exf_vstress_del2             =   0.0000000000000E+00
(PID.TID 0000.0001) %MON exf_hflux_max                =   2.3752950220527E+02
(PID.TID 0000.0001) %MON exf_hflux_min                =   2.3752950220527E+02
(PID.TID 0000.0001) %MON exf_hflux_mean               =   2.3752950220527E+02
(PID.TID 0000.0001) %MON exf_hflux_sd                 =   0.0000000000000E+00
(PID.TID 0000.0001) %MON exf_hflux_del2               =   6.7183488696484E+02
(PID.TID 0000.0001) %MON exf_sflux_max                =   2.0695002739612E-08
(PID.TID 0000.0001) %MON exf_sflux_min                =   2.0695002739612E-08
(PID.TID 0000.0001) %MON exf_sflux_mean               =   2.0695002739612E-08
(PID.TID 0000.0001) %MON exf_sflux_sd                 =   0.0000000000000E+00
(PID.TID 0000.0001) %MON exf_sflux_del2               =   5.8534307095415E-08
(PID.TID 0000.0001) %MON exf_uwind_max                =   1.0000000000000E+00
(PID.TID 0000.0001) %MON exf_uwind_min                =   1.0000000000000E+00
(PID.TID 0000.0001) %MON exf_uwind_mean               =   1.0000000000000E+00
(PID.TID 0000.0001) %MON exf_uwind_sd                 =   0.0000000000000E+00
(PID.TID 0000.0001) %MON exf_uwind_del2               =   0.0000000000000E+00
(PID.TID 0000.0001) %MON exf_vwind_max                =   1.0000000000000E+00
(PID.TID 0000.0001) %MON exf_vwind_min                =   1.0000000000000E+00
(PID.TID 0000.0001) %MON exf_vwind_mean               =   1.0000000000000E+00
(PID.TID 0000.0001) %MON exf_vwind_sd                 =   0.0000000000000E+00
(PID.TID 0000.0001) %MON exf_vwind_del2               =   0.0000000000000E+00
(PID.TID 0000.0001) %MON exf_wspeed_max               =   1.4142135623731E+00
(PID.TID 0000.0001) %MON exf_wspeed_min               =   1.4142135623731E+00
(PID.TID 0000.0001) %MON exf_wspeed_mean              =   1.4142135623731E+00
(PID.TID 0000.0001) %MON exf_wspeed_sd                =   0.0000000000000E+00
(PID.TID 0000.0001) %MON exf_wspeed_del2              =   4.0000000000000E+00
(PID.TID 0000.0001) %MON exf_atemp_max                =   2.5302748107910E+02
(PID.TID 0000.0001) %MON exf_atemp_min                =   2.5302748107910E+02
(PID.TID 0000.0001) %MON exf_atemp_mean               =   2.5302748107910E+02
(PID.TID 0000.0001) %MON exf_atemp_sd                 =   0.0000000000000E+00
(PID.TID 0000.0001) %MON exf_atemp_del2               =   5.6943362605335E+01
(PID.TID 0000.0001) %MON exf_lwflux_max               =   1.0639087968298E+02
(PID.TID 0000.0001) %MON exf_lwflux_min               =   1.0639087968298E+02
(PID.TID 0000.0001) %MON exf_lwflux_mean              =   1.0639087968298E+02
(PID.TID 0000.0001) %MON exf_lwflux_sd                =   0.0000000000000E+00
(PID.TID 0000.0001) %MON exf_lwflux_del2              =   3.0091884992095E+02
(PID.TID 0000.0001) %MON exf_evap_max                 =   2.0695002739612E-08
(PID.TID 0000.0001) %MON exf_evap_min                 =   2.0695002739612E-08
(PID.TID 0000.0001) %MON exf_evap_mean                =   2.0695002739612E-08
(PID.TID 0000.0001) %MON exf_evap_sd                  =   0.0000000000000E+00
(PID.TID 0000.0001) %MON exf_evap_del2                =   5.8534307095415E-08
(PID.TID 0000.0001) %MON exf_swflux_max               =  -1.9629517078400E+01
(PID.TID 0000.0001) %MON exf_swflux_min               =  -1.9629517078400E+01
(PID.TID 0000.0001) %MON exf_swflux_mean              =  -1.9629517078400E+01
(PID.TID 0000.0001) %MON exf_swflux_sd                =   0.0000000000000E+00
(PID.TID 0000.0001) %MON exf_swflux_del2              =   5.5520658550214E+01
(PID.TID 0000.0001) %MON exf_swdown_max               =   2.1810574531555E+01
(PID.TID 0000.0001) %MON exf_swdown_min               =   2.1810574531555E+01
(PID.TID 0000.0001) %MON exf_swdown_mean              =   2.1810574531555E+01
(PID.TID 0000.0001) %MON exf_swdown_sd                =   0.0000000000000E+00
(PID.TID 0000.0001) %MON exf_swdown_del2              =   6.1689620611349E+01
(PID.TID 0000.0001) %MON exf_lwdown_max               =   1.9133462524414E+02
(PID.TID 0000.0001) %MON exf_lwdown_min               =   1.9133462524414E+02
(PID.TID 0000.0001) %MON exf_lwdown_mean              =   1.9133462524414E+02
(PID.TID 0000.0001) %MON exf_lwdown_sd                =   0.0000000000000E+00
(PID.TID 0000.0001) %MON exf_lwdown_del2              =   5.4117604394367E+02
(PID.TID 0000.0001) // =======================================================
(PID.TID 0000.0001) // End MONITOR EXF statistics
(PID.TID 0000.0001) // =======================================================
 ph-ice B            6  -1.9040029491701176       3.59579707918807195E-002  7.41854898759684248E-003
 ph-ice C            6   346894.14996899740     
 cg2d: Sum(rhs),rhsMax =   1.00000000000000E+00  2.65835287231568E-05
(PID.TID 0000.0001)      cg2d_init_res =   7.47922363952965E-02
(PID.TID 0000.0001)      cg2d_iters(min,last) =      -1       1
(PID.TID 0000.0001)      cg2d_last_res =   0.00000000000000E+00
(PID.TID 0000.0001) // =======================================================
(PID.TID 0000.0001) // Begin MONITOR dynamic field statistics
(PID.TID 0000.0001) // =======================================================
(PID.TID 0000.0001) %MON time_tsnumber                =                     7
(PID.TID 0000.0001) %MON time_secondsf                =   2.5200000000000E+04
(PID.TID 0000.0001) %MON dynstat_eta_max              =  -7.0731853961511E-03
(PID.TID 0000.0001) %MON dynstat_eta_min              =  -7.0731853961511E-03
(PID.TID 0000.0001) %MON dynstat_eta_mean             =  -7.0731853961511E-03
(PID.TID 0000.0001) %MON dynstat_eta_sd               =   0.0000000000000E+00
(PID.TID 0000.0001) %MON dynstat_eta_del2             =   0.0000000000000E+00
(PID.TID 0000.0001) %MON dynstat_uvel_max             =   7.1072077457795E-03
(PID.TID 0000.0001) %MON dynstat_uvel_min             =  -9.0874977334129E-11
(PID.TID 0000.0001) %MON dynstat_uvel_mean            =   2.6199864270739E-04
(PID.TID 0000.0001) %MON dynstat_uvel_sd              =   1.1566323833640E-03
(PID.TID 0000.0001) %MON dynstat_uvel_del2            =   0.0000000000000E+00
(PID.TID 0000.0001) %MON dynstat_vvel_max             =  -2.6944318966566E-68
(PID.TID 0000.0001) %MON dynstat_vvel_min             =  -3.1066862335879E-03
(PID.TID 0000.0001) %MON dynstat_vvel_mean            =  -1.6463209898456E-04
(PID.TID 0000.0001) %MON dynstat_vvel_sd              =   6.4172998501990E-04
(PID.TID 0000.0001) %MON dynstat_vvel_del2            =   0.0000000000000E+00
(PID.TID 0000.0001) %MON dynstat_wvel_max             =  -0.0000000000000E+00
(PID.TID 0000.0001) %MON dynstat_wvel_min             =  -0.0000000000000E+00
(PID.TID 0000.0001) %MON dynstat_wvel_mean            =   0.0000000000000E+00
(PID.TID 0000.0001) %MON dynstat_wvel_sd              =   0.0000000000000E+00
(PID.TID 0000.0001) %MON dynstat_wvel_del2            =   0.0000000000000E+00
(PID.TID 0000.0001) %MON dynstat_theta_max            =   4.9999999999620E-01
(PID.TID 0000.0001) %MON dynstat_theta_min            =  -1.9016149223177E+00
(PID.TID 0000.0001) %MON dynstat_theta_mean           =  -4.2568327798435E-01
(PID.TID 0000.0001) %MON dynstat_theta_sd             =   8.7917349971354E-01
(PID.TID 0000.0001) %MON dynstat_theta_del2           =   0.0000000000000E+00
(PID.TID 0000.0001) %MON dynstat_salt_max             =   3.4799999999999E+01
(PID.TID 0000.0001) %MON dynstat_salt_min             =   2.9017984412281E+01
(PID.TID 0000.0001) %MON dynstat_salt_mean            =   3.3593332798543E+01
(PID.TID 0000.0001) %MON dynstat_salt_sd              =   1.6843499395438E+00
(PID.TID 0000.0001) %MON dynstat_salt_del2            =   0.0000000000000E+00
(PID.TID 0000.0001) %MON dynstat_sst_max              =  -1.9016149223177E+00
(PID.TID 0000.0001) %MON dynstat_sst_min              =  -1.9016149223177E+00
(PID.TID 0000.0001) %MON dynstat_sst_mean             =  -1.9016149223177E+00
(PID.TID 0000.0001) %MON dynstat_sst_sd               =   0.0000000000000E+00
(PID.TID 0000.0001) %MON dynstat_sst_del2             =   0.0000000000000E+00
(PID.TID 0000.0001) %MON dynstat_sss_max              =   2.9017984412281E+01
(PID.TID 0000.0001) %MON dynstat_sss_min              =   2.9017984412281E+01
(PID.TID 0000.0001) %MON dynstat_sss_mean             =   2.9017984412281E+01
(PID.TID 0000.0001) %MON dynstat_sss_sd               =   0.0000000000000E+00
(PID.TID 0000.0001) %MON dynstat_sss_del2             =   0.0000000000000E+00
(PID.TID 0000.0001) %MON forcing_qnet_max             =   1.9047398839928E+02
(PID.TID 0000.0001) %MON forcing_qnet_min             =   1.9047398839928E+02
(PID.TID 0000.0001) %MON forcing_qnet_mean            =   1.9047398839928E+02
(PID.TID 0000.0001) %MON forcing_qnet_sd              =   0.0000000000000E+00
(PID.TID 0000.0001) %MON forcing_qnet_del2            =   0.0000000000000E+00
(PID.TID 0000.0001) %MON forcing_qsw_max              =  -1.9068497455407E+01
(PID.TID 0000.0001) %MON forcing_qsw_min              =  -1.9068497455407E+01
(PID.TID 0000.0001) %MON forcing_qsw_mean             =  -1.9068497455407E+01
(PID.TID 0000.0001) %MON forcing_qsw_sd               =   0.0000000000000E+00
(PID.TID 0000.0001) %MON forcing_qsw_del2             =   0.0000000000000E+00
(PID.TID 0000.0001) %MON forcing_empmr_max            =   1.5091746577183E-04
(PID.TID 0000.0001) %MON forcing_empmr_min            =   1.5091746577183E-04
(PID.TID 0000.0001) %MON forcing_empmr_mean           =   1.5091746577183E-04
(PID.TID 0000.0001) %MON forcing_empmr_sd             =   0.0000000000000E+00
(PID.TID 0000.0001) %MON forcing_empmr_del2           =   0.0000000000000E+00
(PID.TID 0000.0001) %MON forcing_fu_max               =   5.7689856077087E-03
(PID.TID 0000.0001) %MON forcing_fu_min               =   5.7689856077087E-03
(PID.TID 0000.0001) %MON forcing_fu_mean              =   5.7689856077087E-03
(PID.TID 0000.0001) %MON forcing_fu_sd                =   0.0000000000000E+00
(PID.TID 0000.0001) %MON forcing_fu_del2              =   0.0000000000000E+00
(PID.TID 0000.0001) %MON forcing_fv_max               =   5.7689856077087E-03
(PID.TID 0000.0001) %MON forcing_fv_min               =   5.7689856077087E-03
(PID.TID 0000.0001) %MON forcing_fv_mean              =   5.7689856077087E-03
(PID.TID 0000.0001) %MON forcing_fv_sd                =   0.0000000000000E+00
(PID.TID 0000.0001) %MON forcing_fv_del2              =   0.0000000000000E+00
(PID.TID 0000.0001) %MON trAdv_CFL_u_max              =   5.1171895769612E-03
(PID.TID 0000.0001) %MON trAdv_CFL_v_max              =   2.2368140881833E-03
(PID.TID 0000.0001) %MON trAdv_CFL_w_max              =   0.0000000000000E+00
(PID.TID 0000.0001) %MON advcfl_uvel_max              =   5.1171895769612E-03
(PID.TID 0000.0001) %MON advcfl_vvel_max              =   2.2368140881833E-03
(PID.TID 0000.0001) %MON advcfl_wvel_max              =   0.0000000000000E+00
(PID.TID 0000.0001) %MON advcfl_W_hf_max              =   0.0000000000000E+00
(PID.TID 0000.0001) %MON pe_b_mean                    =  -4.1078199483618E-07
(PID.TID 0000.0001) %MON ke_max                       =   2.7575600653376E-05
(PID.TID 0000.0001) %MON ke_mean                      =   9.2268143035828E-07
(PID.TID 0000.0001) %MON ke_vol                       =   1.2831500000000E+10
(PID.TID 0000.0001) %MON vort_r_min                   =   0.0000000000000E+00
(PID.TID 0000.0001) %MON vort_r_max                   =   0.0000000000000E+00
(PID.TID 0000.0001) %MON vort_a_mean                  =   1.0000000000000E-04
(PID.TID 0000.0001) %MON vort_a_sd                    =   0.0000000000000E+00
(PID.TID 0000.0001) %MON vort_p_mean                  =   1.0000000000000E-04
(PID.TID 0000.0001) %MON vort_p_sd                    =   0.0000000000000E+00
(PID.TID 0000.0001) %MON surfExpan_theta_mean         =   0.0000000000000E+00
(PID.TID 0000.0001) %MON surfExpan_salt_mean          =   0.0000000000000E+00
(PID.TID 0000.0001) // =======================================================
(PID.TID 0000.0001) // End MONITOR dynamic field statistics
(PID.TID 0000.0001) // =======================================================
(PID.TID 0000.0001) // =======================================================
(PID.TID 0000.0001) // Begin MONITOR SEAICE statistics
(PID.TID 0000.0001) // =======================================================
(PID.TID 0000.0001) %MON seaice_tsnumber              =                     7
(PID.TID 0000.0001) %MON seaice_time_sec              =   2.5200000000000E+04
(PID.TID 0000.0001) %MON seaice_uice_max              =   0.0000000000000E+00
(PID.TID 0000.0001) %MON seaice_uice_min              =   0.0000000000000E+00
(PID.TID 0000.0001) %MON seaice_uice_mean             =   0.0000000000000E+00
(PID.TID 0000.0001) %MON seaice_uice_sd               =   0.0000000000000E+00
(PID.TID 0000.0001) %MON seaice_uice_del2             =   0.0000000000000E+00
(PID.TID 0000.0001) %MON seaice_vice_max              =   0.0000000000000E+00
(PID.TID 0000.0001) %MON seaice_vice_min              =   0.0000000000000E+00
(PID.TID 0000.0001) %MON seaice_vice_mean             =   0.0000000000000E+00
(PID.TID 0000.0001) %MON seaice_vice_sd               =   0.0000000000000E+00
(PID.TID 0000.0001) %MON seaice_vice_del2             =   0.0000000000000E+00
(PID.TID 0000.0001) %MON seaice_area_max              =   3.5957970791881E-02
(PID.TID 0000.0001) %MON seaice_area_min              =   3.5957970791881E-02
(PID.TID 0000.0001) %MON seaice_area_mean             =   3.5957970791881E-02
(PID.TID 0000.0001) %MON seaice_area_sd               =   0.0000000000000E+00
(PID.TID 0000.0001) %MON seaice_area_del2             =   0.0000000000000E+00
(PID.TID 0000.0001) %MON seaice_heff_max              =   7.4185489875968E-03
(PID.TID 0000.0001) %MON seaice_heff_min              =   7.4185489875968E-03
(PID.TID 0000.0001) %MON seaice_heff_mean             =   7.4185489875968E-03
(PID.TID 0000.0001) %MON seaice_heff_sd               =   0.0000000000000E+00
(PID.TID 0000.0001) %MON seaice_heff_del2             =   0.0000000000000E+00
(PID.TID 0000.0001) %MON seaice_hsnow_max             =   0.0000000000000E+00
(PID.TID 0000.0001) %MON seaice_hsnow_min             =   0.0000000000000E+00
(PID.TID 0000.0001) %MON seaice_hsnow_mean            =   0.0000000000000E+00
(PID.TID 0000.0001) %MON seaice_hsnow_sd              =   0.0000000000000E+00
(PID.TID 0000.0001) %MON seaice_hsnow_del2            =   0.0000000000000E+00
(PID.TID 0000.0001) %MON seaice_hsalt_max             =   5.8755606391718E+01
(PID.TID 0000.0001) %MON seaice_hsalt_min             =   5.8755606391718E+01
(PID.TID 0000.0001) %MON seaice_hsalt_mean            =   5.8755606391718E+01
(PID.TID 0000.0001) %MON seaice_hsalt_sd              =   0.0000000000000E+00
(PID.TID 0000.0001) %MON seaice_hsalt_del2            =   0.0000000000000E+00
(PID.TID 0000.0001) // =======================================================
(PID.TID 0000.0001) // End MONITOR SEAICE statistics
(PID.TID 0000.0001) // =======================================================
(PID.TID 0000.0001) // =======================================================
(PID.TID 0000.0001) // Begin MONITOR EXF statistics
(PID.TID 0000.0001) // =======================================================
(PID.TID 0000.0001) %MON exf_tsnumber                 =                     7
(PID.TID 0000.0001) %MON exf_time_sec                 =   2.5200000000000E+04
(PID.TID 0000.0001) %MON exf_ustress_max              =   5.9519379385317E-03
(PID.TID 0000.0001) %MON exf_ustress_min              =   5.9519379385317E-03
(PID.TID 0000.0001) %MON exf_ustress_mean             =   5.9519379385317E-03
(PID.TID 0000.0001) %MON exf_ustress_sd               =   0.0000000000000E+00
(PID.TID 0000.0001) %MON exf_ustress_del2             =   0.0000000000000E+00
(PID.TID 0000.0001) %MON exf_vstress_max              =   5.9519379385317E-03
(PID.TID 0000.0001) %MON exf_vstress_min              =   5.9519379385317E-03
(PID.TID 0000.0001) %MON exf_vstress_mean             =   5.9519379385317E-03
(PID.TID 0000.0001) %MON exf_vstress_sd               =   0.0000000000000E+00
(PID.TID 0000.0001) %MON exf_vstress_del2             =   0.0000000000000E+00
(PID.TID 0000.0001) %MON exf_hflux_max                =   2.3746970778195E+02
(PID.TID 0000.0001) %MON exf_hflux_min                =   2.3746970778195E+02
(PID.TID 0000.0001) %MON exf_hflux_mean               =   2.3746970778195E+02
(PID.TID 0000.0001) %MON exf_hflux_sd                 =   0.0000000000000E+00
(PID.TID 0000.0001) %MON exf_hflux_del2               =   6.7166576279602E+02
(PID.TID 0000.0001) %MON exf_sflux_max                =   2.0697924849131E-08
(PID.TID 0000.0001) %MON exf_sflux_min                =   2.0697924849131E-08
(PID.TID 0000.0001) %MON exf_sflux_mean               =   2.0697924849131E-08
(PID.TID 0000.0001) %MON exf_sflux_sd                 =   0.0000000000000E+00
(PID.TID 0000.0001) %MON exf_sflux_del2               =   5.8542572069239E-08
(PID.TID 0000.0001) %MON exf_uwind_max                =   1.0000000000000E+00
(PID.TID 0000.0001) %MON exf_uwind_min                =   1.0000000000000E+00
(PID.TID 0000.0001) %MON exf_uwind_mean               =   1.0000000000000E+00
(PID.TID 0000.0001) %MON exf_uwind_sd                 =   0.0000000000000E+00
(PID.TID 0000.0001) %MON exf_uwind_del2               =   0.0000000000000E+00
(PID.TID 0000.0001) %MON exf_vwind_max                =   1.0000000000000E+00
(PID.TID 0000.0001) %MON exf_vwind_min                =   1.0000000000000E+00
(PID.TID 0000.0001) %MON exf_vwind_mean               =   1.0000000000000E+00
(PID.TID 0000.0001) %MON exf_vwind_sd                 =   0.0000000000000E+00
(PID.TID 0000.0001) %MON exf_vwind_del2               =   0.0000000000000E+00
(PID.TID 0000.0001) %MON exf_wspeed_max               =   1.4142135623731E+00
(PID.TID 0000.0001) %MON exf_wspeed_min               =   1.4142135623731E+00
(PID.TID 0000.0001) %MON exf_wspeed_mean              =   1.4142135623731E+00
(PID.TID 0000.0001) %MON exf_wspeed_sd                =   0.0000000000000E+00
(PID.TID 0000.0001) %MON exf_wspeed_del2              =   4.0000000000000E+00
(PID.TID 0000.0001) %MON exf_atemp_max                =   2.5303187942505E+02
(PID.TID 0000.0001) %MON exf_atemp_min                =   2.5303187942505E+02
(PID.TID 0000.0001) %MON exf_atemp_mean               =   2.5303187942505E+02
(PID.TID 0000.0001) %MON exf_atemp_sd                 =   0.0000000000000E+00
(PID.TID 0000.0001) %MON exf_atemp_del2               =   5.6930922204354E+01
(PID.TID 0000.0001) %MON exf_lwflux_max               =   1.0637180560471E+02
(PID.TID 0000.0001) %MON exf_lwflux_min               =   1.0637180560471E+02
(PID.TID 0000.0001) %MON exf_lwflux_mean              =   1.0637180560471E+02
(PID.TID 0000.0001) %MON exf_lwflux_sd                =   0.0000000000000E+00
(PID.TID 0000.0001) %MON exf_lwflux_del2              =   3.0086490028059E+02
(PID.TID 0000.0001) %MON exf_evap_max                 =   2.0697924849131E-08
(PID.TID 0000.0001) %MON exf_evap_min                 =   2.0697924849131E-08
(PID.TID 0000.0001) %MON exf_evap_mean                =   2.0697924849131E-08
(PID.TID 0000.0001) %MON exf_evap_sd                  =   0.0000000000000E+00
(PID.TID 0000.0001) %MON exf_evap_del2                =   5.8542572069239E-08
(PID.TID 0000.0001) %MON exf_swflux_max               =  -1.9664311623573E+01
(PID.TID 0000.0001) %MON exf_swflux_min               =  -1.9664311623573E+01
(PID.TID 0000.0001) %MON exf_swflux_mean              =  -1.9664311623573E+01
(PID.TID 0000.0001) %MON exf_swflux_sd                =   0.0000000000000E+00
(PID.TID 0000.0001) %MON exf_swflux_del2              =   5.5619072385577E+01
(PID.TID 0000.0001) %MON exf_swdown_max               =   2.1849235137304E+01
(PID.TID 0000.0001) %MON exf_swdown_min               =   2.1849235137304E+01
(PID.TID 0000.0001) %MON exf_swdown_mean              =   2.1849235137304E+01
(PID.TID 0000.0001) %MON exf_swdown_sd                =   0.0000000000000E+00
(PID.TID 0000.0001) %MON exf_swdown_del2              =   6.1798969317307E+01
(PID.TID 0000.0001) %MON exf_lwdown_max               =   1.9136418406169E+02
(PID.TID 0000.0001) %MON exf_lwdown_min               =   1.9136418406169E+02
(PID.TID 0000.0001) %MON exf_lwdown_mean              =   1.9136418406169E+02
(PID.TID 0000.0001) %MON exf_lwdown_sd                =   0.0000000000000E+00
(PID.TID 0000.0001) %MON exf_lwdown_del2              =   5.4125964890500E+02
(PID.TID 0000.0001) // =======================================================
(PID.TID 0000.0001) // End MONITOR EXF statistics
(PID.TID 0000.0001) // =======================================================
 ph-ice B            7  -1.9016149223176728       4.10551563736783268E-002  7.84195903565973636E-003
 ph-ice C            7   449529.18992986099     
 cg2d: Sum(rhs),rhsMax =   1.00000000000000E+00  2.82563874062723E-05
(PID.TID 0000.0001)      cg2d_init_res =   5.92028506362112E-02
(PID.TID 0000.0001)      cg2d_iters(min,last) =      -1       1
(PID.TID 0000.0001)      cg2d_last_res =   6.93889390390723E-18
(PID.TID 0000.0001) // =======================================================
(PID.TID 0000.0001) // Begin MONITOR dynamic field statistics
(PID.TID 0000.0001) // =======================================================
(PID.TID 0000.0001) %MON time_tsnumber                =                     8
(PID.TID 0000.0001) %MON time_secondsf                =   2.8800000000000E+04
(PID.TID 0000.0001) %MON dynstat_eta_max              =  -7.5182895706415E-03
(PID.TID 0000.0001) %MON dynstat_eta_min              =  -7.5182895706415E-03
(PID.TID 0000.0001) %MON dynstat_eta_mean             =  -7.5182895706415E-03
(PID.TID 0000.0001) %MON dynstat_eta_sd               =   0.0000000000000E+00
(PID.TID 0000.0001) %MON dynstat_eta_del2             =   0.0000000000000E+00
(PID.TID 0000.0001) %MON dynstat_uvel_max             =   6.6283562064051E-03
(PID.TID 0000.0001) %MON dynstat_uvel_min             =  -3.7648542319079E-06
(PID.TID 0000.0001) %MON dynstat_uvel_mean            =   2.2841371156678E-04
(PID.TID 0000.0001) %MON dynstat_uvel_sd              =   1.0485993157516E-03
(PID.TID 0000.0001) %MON dynstat_uvel_del2            =   0.0000000000000E+00
(PID.TID 0000.0001) %MON dynstat_vvel_max             =  -7.2505058644885E-68
(PID.TID 0000.0001) %MON dynstat_vvel_min             =  -3.9997299409808E-03
(PID.TID 0000.0001) %MON dynstat_vvel_mean            =  -2.1750374196610E-04
(PID.TID 0000.0001) %MON dynstat_vvel_sd              =   8.4137577315046E-04
(PID.TID 0000.0001) %MON dynstat_vvel_del2            =   0.0000000000000E+00
(PID.TID 0000.0001) %MON dynstat_wvel_max             =  -0.0000000000000E+00
(PID.TID 0000.0001) %MON dynstat_wvel_min             =  -0.0000000000000E+00
(PID.TID 0000.0001) %MON dynstat_wvel_mean            =   0.0000000000000E+00
(PID.TID 0000.0001) %MON dynstat_wvel_sd              =   0.0000000000000E+00
(PID.TID 0000.0001) %MON dynstat_wvel_del2            =   0.0000000000000E+00
(PID.TID 0000.0001) %MON dynstat_theta_max            =   4.9999999999573E-01
(PID.TID 0000.0001) %MON dynstat_theta_min            =  -1.8993859264641E+00
(PID.TID 0000.0001) %MON dynstat_theta_mean           =  -4.2602217562856E-01
(PID.TID 0000.0001) %MON dynstat_theta_sd             =   8.7952355207901E-01
(PID.TID 0000.0001) %MON dynstat_theta_del2           =   0.0000000000000E+00
(PID.TID 0000.0001) %MON dynstat_salt_max             =   3.4799999999999E+01
(PID.TID 0000.0001) %MON dynstat_salt_min             =   2.9019021701146E+01
(PID.TID 0000.0001) %MON dynstat_salt_mean            =   3.3593351599916E+01
(PID.TID 0000.0001) %MON dynstat_salt_sd              =   1.6842977180842E+00
(PID.TID 0000.0001) %MON dynstat_salt_del2            =   0.0000000000000E+00
(PID.TID 0000.0001) %MON dynstat_sst_max              =  -1.8993859264641E+00
(PID.TID 0000.0001) %MON dynstat_sst_min              =  -1.8993859264641E+00
(PID.TID 0000.0001) %MON dynstat_sst_mean             =  -1.8993859264641E+00
(PID.TID 0000.0001) %MON dynstat_sst_sd               =   0.0000000000000E+00
(PID.TID 0000.0001) %MON dynstat_sst_del2             =   0.0000000000000E+00
(PID.TID 0000.0001) %MON dynstat_sss_max              =   2.9019021701146E+01
(PID.TID 0000.0001) %MON dynstat_sss_min              =   2.9019021701146E+01
(PID.TID 0000.0001) %MON dynstat_sss_mean             =   2.9019021701146E+01
(PID.TID 0000.0001) %MON dynstat_sss_sd               =   0.0000000000000E+00
(PID.TID 0000.0001) %MON dynstat_sss_del2             =   0.0000000000000E+00
(PID.TID 0000.0001) %MON forcing_qnet_max             =   1.9779313167433E+02
(PID.TID 0000.0001) %MON forcing_qnet_min             =   1.9779313167433E+02
(PID.TID 0000.0001) %MON forcing_qnet_mean            =   1.9779313167433E+02
(PID.TID 0000.0001) %MON forcing_qnet_sd              =   0.0000000000000E+00
(PID.TID 0000.0001) %MON forcing_qnet_del2            =   0.0000000000000E+00
(PID.TID 0000.0001) %MON forcing_qsw_max              =  -1.9007112008607E+01
(PID.TID 0000.0001) %MON forcing_qsw_min              =  -1.9007112008607E+01
(PID.TID 0000.0001) %MON forcing_qsw_mean             =  -1.9007112008607E+01
(PID.TID 0000.0001) %MON forcing_qsw_sd               =   0.0000000000000E+00
(PID.TID 0000.0001) %MON forcing_qsw_del2             =   0.0000000000000E+00
(PID.TID 0000.0001) %MON forcing_empmr_max            =   1.2697832977618E-04
(PID.TID 0000.0001) %MON forcing_empmr_min            =   1.2697832977618E-04
(PID.TID 0000.0001) %MON forcing_empmr_mean           =   1.2697832977618E-04
(PID.TID 0000.0001) %MON forcing_empmr_sd             =   0.0000000000000E+00
(PID.TID 0000.0001) %MON forcing_empmr_del2           =   0.0000000000000E+00
(PID.TID 0000.0001) %MON forcing_fu_max               =   5.7379183279829E-03
(PID.TID 0000.0001) %MON forcing_fu_min               =   5.7379183279829E-03
(PID.TID 0000.0001) %MON forcing_fu_mean              =   5.7379183279829E-03
(PID.TID 0000.0001) %MON forcing_fu_sd                =   0.0000000000000E+00
(PID.TID 0000.0001) %MON forcing_fu_del2              =   0.0000000000000E+00
(PID.TID 0000.0001) %MON forcing_fv_max               =   5.7379183279829E-03
(PID.TID 0000.0001) %MON forcing_fv_min               =   5.7379183279829E-03
(PID.TID 0000.0001) %MON forcing_fv_mean              =   5.7379183279829E-03
(PID.TID 0000.0001) %MON forcing_fv_sd                =   0.0000000000000E+00
(PID.TID 0000.0001) %MON forcing_fv_del2              =   0.0000000000000E+00
(PID.TID 0000.0001) %MON trAdv_CFL_u_max              =   4.7724164686117E-03
(PID.TID 0000.0001) %MON trAdv_CFL_v_max              =   2.8798055575062E-03
(PID.TID 0000.0001) %MON trAdv_CFL_w_max              =   0.0000000000000E+00
(PID.TID 0000.0001) %MON advcfl_uvel_max              =   4.7724164686117E-03
(PID.TID 0000.0001) %MON advcfl_vvel_max              =   2.8798055575062E-03
(PID.TID 0000.0001) %MON advcfl_wvel_max              =   0.0000000000000E+00
(PID.TID 0000.0001) %MON advcfl_W_hf_max              =   0.0000000000000E+00
(PID.TID 0000.0001) %MON pe_b_mean                    =  -4.5857574583343E-07
(PID.TID 0000.0001) %MON ke_max                       =   2.6832380560939E-05
(PID.TID 0000.0001) %MON ke_mean                      =   9.5347720902010E-07
(PID.TID 0000.0001) %MON ke_vol                       =   1.2831500000000E+10
(PID.TID 0000.0001) %MON vort_r_min                   =   0.0000000000000E+00
(PID.TID 0000.0001) %MON vort_r_max                   =   0.0000000000000E+00
(PID.TID 0000.0001) %MON vort_a_mean                  =   1.0000000000000E-04
(PID.TID 0000.0001) %MON vort_a_sd                    =   0.0000000000000E+00
(PID.TID 0000.0001) %MON vort_p_mean                  =   1.0000000000000E-04
(PID.TID 0000.0001) %MON vort_p_sd                    =   0.0000000000000E+00
(PID.TID 0000.0001) %MON surfExpan_theta_mean         =   0.0000000000000E+00
(PID.TID 0000.0001) %MON surfExpan_salt_mean          =   0.0000000000000E+00
(PID.TID 0000.0001) // =======================================================
(PID.TID 0000.0001) // End MONITOR dynamic field statistics
(PID.TID 0000.0001) // =======================================================
(PID.TID 0000.0001) // =======================================================
(PID.TID 0000.0001) // Begin MONITOR SEAICE statistics
(PID.TID 0000.0001) // =======================================================
(PID.TID 0000.0001) %MON seaice_tsnumber              =                     8
(PID.TID 0000.0001) %MON seaice_time_sec              =   2.8800000000000E+04
(PID.TID 0000.0001) %MON seaice_uice_max              =   0.0000000000000E+00
(PID.TID 0000.0001) %MON seaice_uice_min              =   0.0000000000000E+00
(PID.TID 0000.0001) %MON seaice_uice_mean             =   0.0000000000000E+00
(PID.TID 0000.0001) %MON seaice_uice_sd               =   0.0000000000000E+00
(PID.TID 0000.0001) %MON seaice_uice_del2             =   0.0000000000000E+00
(PID.TID 0000.0001) %MON seaice_vice_max              =   0.0000000000000E+00
(PID.TID 0000.0001) %MON seaice_vice_min              =   0.0000000000000E+00
(PID.TID 0000.0001) %MON seaice_vice_mean             =   0.0000000000000E+00
(PID.TID 0000.0001) %MON seaice_vice_sd               =   0.0000000000000E+00
(PID.TID 0000.0001) %MON seaice_vice_del2             =   0.0000000000000E+00
(PID.TID 0000.0001) %MON seaice_area_max              =   4.1055156373678E-02
(PID.TID 0000.0001) %MON seaice_area_min              =   4.1055156373678E-02
(PID.TID 0000.0001) %MON seaice_area_mean             =   4.1055156373678E-02
(PID.TID 0000.0001) %MON seaice_area_sd               =   0.0000000000000E+00
(PID.TID 0000.0001) %MON seaice_area_del2             =   0.0000000000000E+00
(PID.TID 0000.0001) %MON seaice_heff_max              =   7.8419590356597E-03
(PID.TID 0000.0001) %MON seaice_heff_min              =   7.8419590356597E-03
(PID.TID 0000.0001) %MON seaice_heff_mean             =   7.8419590356597E-03
(PID.TID 0000.0001) %MON seaice_heff_sd               =   0.0000000000000E+00
(PID.TID 0000.0001) %MON seaice_heff_del2             =   0.0000000000000E+00
(PID.TID 0000.0001) %MON seaice_hsnow_max             =   0.0000000000000E+00
(PID.TID 0000.0001) %MON seaice_hsnow_min             =   0.0000000000000E+00
(PID.TID 0000.0001) %MON seaice_hsnow_mean            =   0.0000000000000E+00
(PID.TID 0000.0001) %MON seaice_hsnow_sd              =   0.0000000000000E+00
(PID.TID 0000.0001) %MON seaice_hsnow_del2            =   0.0000000000000E+00
(PID.TID 0000.0001) %MON seaice_hsalt_max             =   6.2109822577409E+01
(PID.TID 0000.0001) %MON seaice_hsalt_min             =   6.2109822577409E+01
(PID.TID 0000.0001) %MON seaice_hsalt_mean            =   6.2109822577409E+01
(PID.TID 0000.0001) %MON seaice_hsalt_sd              =   0.0000000000000E+00
(PID.TID 0000.0001) %MON seaice_hsalt_del2            =   0.0000000000000E+00
(PID.TID 0000.0001) // =======================================================
(PID.TID 0000.0001) // End MONITOR SEAICE statistics
(PID.TID 0000.0001) // =======================================================
(PID.TID 0000.0001) // =======================================================
(PID.TID 0000.0001) // Begin MONITOR EXF statistics
(PID.TID 0000.0001) // =======================================================
(PID.TID 0000.0001) %MON exf_tsnumber                 =                     8
(PID.TID 0000.0001) %MON exf_time_sec                 =   2.8800000000000E+04
(PID.TID 0000.0001) %MON exf_ustress_max              =   5.9518311051368E-03
(PID.TID 0000.0001) %MON exf_ustress_min              =   5.9518311051368E-03
(PID.TID 0000.0001) %MON exf_ustress_mean             =   5.9518311051368E-03
(PID.TID 0000.0001) %MON exf_ustress_sd               =   0.0000000000000E+00
(PID.TID 0000.0001) %MON exf_ustress_del2             =   0.0000000000000E+00
(PID.TID 0000.0001) %MON exf_vstress_max              =   5.9518311051368E-03
(PID.TID 0000.0001) %MON exf_vstress_min              =   5.9518311051368E-03
(PID.TID 0000.0001) %MON exf_vstress_mean             =   5.9518311051368E-03
(PID.TID 0000.0001) %MON exf_vstress_sd               =   0.0000000000000E+00
(PID.TID 0000.0001) %MON exf_vstress_del2             =   0.0000000000000E+00
(PID.TID 0000.0001) %MON exf_hflux_max                =   2.3740751576592E+02
(PID.TID 0000.0001) %MON exf_hflux_min                =   2.3740751576592E+02
(PID.TID 0000.0001) %MON exf_hflux_mean               =   2.3740751576592E+02
(PID.TID 0000.0001) %MON exf_hflux_sd                 =   0.0000000000000E+00
(PID.TID 0000.0001) %MON exf_hflux_del2               =   6.7148985721094E+02
(PID.TID 0000.0001) %MON exf_sflux_max                =   2.0700581000206E-08
(PID.TID 0000.0001) %MON exf_sflux_min                =   2.0700581000206E-08
(PID.TID 0000.0001) %MON exf_sflux_mean               =   2.0700581000206E-08
(PID.TID 0000.0001) %MON exf_sflux_sd                 =   0.0000000000000E+00
(PID.TID 0000.0001) %MON exf_sflux_del2               =   5.8550084798988E-08
(PID.TID 0000.0001) %MON exf_uwind_max                =   1.0000000000000E+00
(PID.TID 0000.0001) %MON exf_uwind_min                =   1.0000000000000E+00
(PID.TID 0000.0001) %MON exf_uwind_mean               =   1.0000000000000E+00
(PID.TID 0000.0001) %MON exf_uwind_sd                 =   0.0000000000000E+00
(PID.TID 0000.0001) %MON exf_uwind_del2               =   0.0000000000000E+00
(PID.TID 0000.0001) %MON exf_vwind_max                =   1.0000000000000E+00
(PID.TID 0000.0001) %MON exf_vwind_min                =   1.0000000000000E+00
(PID.TID 0000.0001) %MON exf_vwind_mean               =   1.0000000000000E+00
(PID.TID 0000.0001) %MON exf_vwind_sd                 =   0.0000000000000E+00
(PID.TID 0000.0001) %MON exf_vwind_del2               =   0.0000000000000E+00
(PID.TID 0000.0001) %MON exf_wspeed_max               =   1.4142135623731E+00
(PID.TID 0000.0001) %MON exf_wspeed_min               =   1.4142135623731E+00
(PID.TID 0000.0001) %MON exf_wspeed_mean              =   1.4142135623731E+00
(PID.TID 0000.0001) %MON exf_wspeed_sd                =   0.0000000000000E+00
(PID.TID 0000.0001) %MON exf_wspeed_del2              =   4.0000000000000E+00
(PID.TID 0000.0001) %MON exf_atemp_max                =   2.5303627777100E+02
(PID.TID 0000.0001) %MON exf_atemp_min                =   2.5303627777100E+02
(PID.TID 0000.0001) %MON exf_atemp_mean               =   2.5303627777100E+02
(PID.TID 0000.0001) %MON exf_atemp_sd                 =   0.0000000000000E+00
(PID.TID 0000.0001) %MON exf_atemp_del2               =   5.6918481803373E+01
(PID.TID 0000.0001) %MON exf_lwflux_max               =   1.0635203354356E+02
(PID.TID 0000.0001) %MON exf_lwflux_min               =   1.0635203354356E+02
(PID.TID 0000.0001) %MON exf_lwflux_mean              =   1.0635203354356E+02
(PID.TID 0000.0001) %MON exf_lwflux_sd                =   0.0000000000000E+00
(PID.TID 0000.0001) %MON exf_lwflux_del2              =   3.0080897644652E+02
(PID.TID 0000.0001) %MON exf_evap_max                 =   2.0700581000206E-08
(PID.TID 0000.0001) %MON exf_evap_min                 =   2.0700581000206E-08
(PID.TID 0000.0001) %MON exf_evap_mean                =   2.0700581000206E-08
(PID.TID 0000.0001) %MON exf_evap_sd                  =   0.0000000000000E+00
(PID.TID 0000.0001) %MON exf_evap_del2                =   5.8550084798988E-08
(PID.TID 0000.0001) %MON exf_swflux_max               =  -1.9699106168747E+01
(PID.TID 0000.0001) %MON exf_swflux_min               =  -1.9699106168747E+01
(PID.TID 0000.0001) %MON exf_swflux_mean              =  -1.9699106168747E+01
(PID.TID 0000.0001) %MON exf_swflux_sd                =   0.0000000000000E+00
(PID.TID 0000.0001) %MON exf_swflux_del2              =   5.5717486220939E+01
(PID.TID 0000.0001) %MON exf_swdown_max               =   2.1887895743052E+01
(PID.TID 0000.0001) %MON exf_swdown_min               =   2.1887895743052E+01
(PID.TID 0000.0001) %MON exf_swdown_mean              =   2.1887895743052E+01
(PID.TID 0000.0001) %MON exf_swdown_sd                =   0.0000000000000E+00
(PID.TID 0000.0001) %MON exf_swdown_del2              =   6.1908318023265E+01
(PID.TID 0000.0001) %MON exf_lwdown_max               =   1.9139374287923E+02
(PID.TID 0000.0001) %MON exf_lwdown_min               =   1.9139374287923E+02
(PID.TID 0000.0001) %MON exf_lwdown_mean              =   1.9139374287923E+02
(PID.TID 0000.0001) %MON exf_lwdown_sd                =   0.0000000000000E+00
(PID.TID 0000.0001) %MON exf_lwdown_del2              =   5.4134325386632E+02
(PID.TID 0000.0001) // =======================================================
(PID.TID 0000.0001) // End MONITOR EXF statistics
(PID.TID 0000.0001) // =======================================================
 ph-ice B            8  -1.8993859264641122       4.60449292441518637E-002  8.17839483878709389E-003
 ph-ice C            8   564638.31556452857     
 cg2d: Sum(rhs),rhsMax =   1.00000000000000E+00  2.96382495632281E-05
(PID.TID 0000.0001)      cg2d_init_res =   4.66242837319442E-02
(PID.TID 0000.0001)      cg2d_iters(min,last) =      -1       1
(PID.TID 0000.0001)      cg2d_last_res =   0.00000000000000E+00
(PID.TID 0000.0001) // =======================================================
(PID.TID 0000.0001) // Begin MONITOR dynamic field statistics
(PID.TID 0000.0001) // =======================================================
(PID.TID 0000.0001) %MON time_tsnumber                =                     9
(PID.TID 0000.0001) %MON time_secondsf                =   3.2400000000000E+04
(PID.TID 0000.0001) %MON dynstat_eta_max              =  -7.8859671400813E-03
(PID.TID 0000.0001) %MON dynstat_eta_min              =  -7.8859671400813E-03
(PID.TID 0000.0001) %MON dynstat_eta_mean             =  -7.8859671400813E-03
(PID.TID 0000.0001) %MON dynstat_eta_sd               =   0.0000000000000E+00
(PID.TID 0000.0001) %MON dynstat_eta_del2             =   0.0000000000000E+00
(PID.TID 0000.0001) %MON dynstat_uvel_max             =   5.8347762806133E-03
(PID.TID 0000.0001) %MON dynstat_uvel_min             =  -1.5872849043711E-04
(PID.TID 0000.0001) %MON dynstat_uvel_mean            =   1.7754708497501E-04
(PID.TID 0000.0001) %MON dynstat_uvel_sd              =   8.8766892139930E-04
(PID.TID 0000.0001) %MON dynstat_uvel_del2            =   0.0000000000000E+00
(PID.TID 0000.0001) %MON dynstat_vvel_max             =  -3.8075400237982E-68
(PID.TID 0000.0001) %MON dynstat_vvel_min             =  -4.6002018832925E-03
(PID.TID 0000.0001) %MON dynstat_vvel_mean            =  -2.5362333760374E-04
(PID.TID 0000.0001) %MON dynstat_vvel_sd              =   9.7540757594753E-04
(PID.TID 0000.0001) %MON dynstat_vvel_del2            =   0.0000000000000E+00
(PID.TID 0000.0001) %MON dynstat_wvel_max             =  -0.0000000000000E+00
(PID.TID 0000.0001) %MON dynstat_wvel_min             =  -0.0000000000000E+00
(PID.TID 0000.0001) %MON dynstat_wvel_mean            =   0.0000000000000E+00
(PID.TID 0000.0001) %MON dynstat_wvel_sd              =   0.0000000000000E+00
(PID.TID 0000.0001) %MON dynstat_wvel_del2            =   0.0000000000000E+00
(PID.TID 0000.0001) %MON dynstat_theta_max            =   4.9999999999525E-01
(PID.TID 0000.0001) %MON dynstat_theta_min            =  -1.8965938811681E+00
(PID.TID 0000.0001) %MON dynstat_theta_mean           =  -4.2637257039900E-01
(PID.TID 0000.0001) %MON dynstat_theta_sd             =   8.7986163138473E-01
(PID.TID 0000.0001) %MON dynstat_theta_del2           =   0.0000000000000E+00
(PID.TID 0000.0001) %MON dynstat_salt_max             =   3.4799999999998E+01
(PID.TID 0000.0001) %MON dynstat_salt_min             =   2.9020055624314E+01
(PID.TID 0000.0001) %MON dynstat_salt_mean            =   3.3593367331524E+01
(PID.TID 0000.0001) %MON dynstat_salt_sd              =   1.6842537541609E+00
(PID.TID 0000.0001) %MON dynstat_salt_del2            =   0.0000000000000E+00
(PID.TID 0000.0001) %MON dynstat_sst_max              =  -1.8965938811681E+00
(PID.TID 0000.0001) %MON dynstat_sst_min              =  -1.8965938811681E+00
(PID.TID 0000.0001) %MON dynstat_sst_mean             =  -1.8965938811681E+00
(PID.TID 0000.0001) %MON dynstat_sst_sd               =   0.0000000000000E+00
(PID.TID 0000.0001) %MON dynstat_sst_del2             =   0.0000000000000E+00
(PID.TID 0000.0001) %MON dynstat_sss_max              =   2.9020055624314E+01
(PID.TID 0000.0001) %MON dynstat_sss_min              =   2.9020055624314E+01
(PID.TID 0000.0001) %MON dynstat_sss_mean             =   2.9020055624314E+01
(PID.TID 0000.0001) %MON dynstat_sss_sd               =   0.0000000000000E+00
(PID.TID 0000.0001) %MON dynstat_sss_del2             =   0.0000000000000E+00
(PID.TID 0000.0001) %MON forcing_qnet_max             =   2.0450327746841E+02
(PID.TID 0000.0001) %MON forcing_qnet_min             =   2.0450327746841E+02
(PID.TID 0000.0001) %MON forcing_qnet_mean            =   2.0450327746841E+02
(PID.TID 0000.0001) %MON forcing_qnet_sd              =   0.0000000000000E+00
(PID.TID 0000.0001) %MON forcing_qnet_del2            =   0.0000000000000E+00
(PID.TID 0000.0001) %MON forcing_qsw_max              =  -1.8947330101940E+01
(PID.TID 0000.0001) %MON forcing_qsw_min              =  -1.8947330101940E+01
(PID.TID 0000.0001) %MON forcing_qsw_mean             =  -1.8947330101940E+01
(PID.TID 0000.0001) %MON forcing_qsw_sd               =   0.0000000000000E+00
(PID.TID 0000.0001) %MON forcing_qsw_del2             =   0.0000000000000E+00
(PID.TID 0000.0001) %MON forcing_empmr_max            =   1.0489023994655E-04
(PID.TID 0000.0001) %MON forcing_empmr_min            =   1.0489023994655E-04
(PID.TID 0000.0001) %MON forcing_empmr_mean           =   1.0489023994655E-04
(PID.TID 0000.0001) %MON forcing_empmr_sd             =   0.0000000000000E+00
(PID.TID 0000.0001) %MON forcing_empmr_del2           =   0.0000000000000E+00
(PID.TID 0000.0001) %MON forcing_fu_max               =   5.7074777484057E-03
(PID.TID 0000.0001) %MON forcing_fu_min               =   5.7074777484057E-03
(PID.TID 0000.0001) %MON forcing_fu_mean              =   5.7074777484057E-03
(PID.TID 0000.0001) %MON forcing_fu_sd                =   0.0000000000000E+00
(PID.TID 0000.0001) %MON forcing_fu_del2              =   0.0000000000000E+00
(PID.TID 0000.0001) %MON forcing_fv_max               =   5.7074777484057E-03
(PID.TID 0000.0001) %MON forcing_fv_min               =   5.7074777484057E-03
(PID.TID 0000.0001) %MON forcing_fv_mean              =   5.7074777484057E-03
(PID.TID 0000.0001) %MON forcing_fv_sd                =   0.0000000000000E+00
(PID.TID 0000.0001) %MON forcing_fv_del2              =   0.0000000000000E+00
(PID.TID 0000.0001) %MON trAdv_CFL_u_max              =   4.2010389220416E-03
(PID.TID 0000.0001) %MON trAdv_CFL_v_max              =   3.3121453559706E-03
(PID.TID 0000.0001) %MON trAdv_CFL_w_max              =   0.0000000000000E+00
(PID.TID 0000.0001) %MON advcfl_uvel_max              =   4.2010389220416E-03
(PID.TID 0000.0001) %MON advcfl_vvel_max              =   3.3121453559706E-03
(PID.TID 0000.0001) %MON advcfl_wvel_max              =   0.0000000000000E+00
(PID.TID 0000.0001) %MON advcfl_W_hf_max              =   0.0000000000000E+00
(PID.TID 0000.0001) %MON pe_b_mean                    =  -4.9823518540323E-07
(PID.TID 0000.0001) %MON ke_max                       =   2.4201567596652E-05
(PID.TID 0000.0001) %MON ke_mean                      =   9.1761190899721E-07
(PID.TID 0000.0001) %MON ke_vol                       =   1.2831500000000E+10
(PID.TID 0000.0001) %MON vort_r_min                   =   0.0000000000000E+00
(PID.TID 0000.0001) %MON vort_r_max                   =   0.0000000000000E+00
(PID.TID 0000.0001) %MON vort_a_mean                  =   1.0000000000000E-04
(PID.TID 0000.0001) %MON vort_a_sd                    =   0.0000000000000E+00
(PID.TID 0000.0001) %MON vort_p_mean                  =   1.0000000000000E-04
(PID.TID 0000.0001) %MON vort_p_sd                    =   0.0000000000000E+00
(PID.TID 0000.0001) %MON surfExpan_theta_mean         =   0.0000000000000E+00
(PID.TID 0000.0001) %MON surfExpan_salt_mean          =   0.0000000000000E+00
(PID.TID 0000.0001) // =======================================================
(PID.TID 0000.0001) // End MONITOR dynamic field statistics
(PID.TID 0000.0001) // =======================================================
(PID.TID 0000.0001) // =======================================================
(PID.TID 0000.0001) // Begin MONITOR SEAICE statistics
(PID.TID 0000.0001) // =======================================================
(PID.TID 0000.0001) %MON seaice_tsnumber              =                     9
(PID.TID 0000.0001) %MON seaice_time_sec              =   3.2400000000000E+04
(PID.TID 0000.0001) %MON seaice_uice_max              =   0.0000000000000E+00
(PID.TID 0000.0001) %MON seaice_uice_min              =   0.0000000000000E+00
(PID.TID 0000.0001) %MON seaice_uice_mean             =   0.0000000000000E+00
(PID.TID 0000.0001) %MON seaice_uice_sd               =   0.0000000000000E+00
(PID.TID 0000.0001) %MON seaice_uice_del2             =   0.0000000000000E+00
(PID.TID 0000.0001) %MON seaice_vice_max              =   0.0000000000000E+00
(PID.TID 0000.0001) %MON seaice_vice_min              =   0.0000000000000E+00
(PID.TID 0000.0001) %MON seaice_vice_mean             =   0.0000000000000E+00
(PID.TID 0000.0001) %MON seaice_vice_sd               =   0.0000000000000E+00
(PID.TID 0000.0001) %MON seaice_vice_del2             =   0.0000000000000E+00
(PID.TID 0000.0001) %MON seaice_area_max              =   4.6044929244152E-02
(PID.TID 0000.0001) %MON seaice_area_min              =   4.6044929244152E-02
(PID.TID 0000.0001) %MON seaice_area_mean             =   4.6044929244152E-02
(PID.TID 0000.0001) %MON seaice_area_sd               =   0.0000000000000E+00
(PID.TID 0000.0001) %MON seaice_area_del2             =   0.0000000000000E+00
(PID.TID 0000.0001) %MON seaice_heff_max              =   8.1783948387871E-03
(PID.TID 0000.0001) %MON seaice_heff_min              =   8.1783948387871E-03
(PID.TID 0000.0001) %MON seaice_heff_mean             =   8.1783948387871E-03
(PID.TID 0000.0001) %MON seaice_heff_sd               =   0.0000000000000E+00
(PID.TID 0000.0001) %MON seaice_heff_del2             =   0.0000000000000E+00
(PID.TID 0000.0001) %MON seaice_hsnow_max             =   0.0000000000000E+00
(PID.TID 0000.0001) %MON seaice_hsnow_min             =   0.0000000000000E+00
(PID.TID 0000.0001) %MON seaice_hsnow_mean            =   0.0000000000000E+00
(PID.TID 0000.0001) %MON seaice_hsnow_sd              =   0.0000000000000E+00
(PID.TID 0000.0001) %MON seaice_hsnow_del2            =   0.0000000000000E+00
(PID.TID 0000.0001) %MON seaice_hsalt_max             =   6.4775131916463E+01
(PID.TID 0000.0001) %MON seaice_hsalt_min             =   6.4775131916463E+01
(PID.TID 0000.0001) %MON seaice_hsalt_mean            =   6.4775131916463E+01
(PID.TID 0000.0001) %MON seaice_hsalt_sd              =   0.0000000000000E+00
(PID.TID 0000.0001) %MON seaice_hsalt_del2            =   0.0000000000000E+00
(PID.TID 0000.0001) // =======================================================
(PID.TID 0000.0001) // End MONITOR SEAICE statistics
(PID.TID 0000.0001) // =======================================================
(PID.TID 0000.0001) // =======================================================
(PID.TID 0000.0001) // Begin MONITOR EXF statistics
(PID.TID 0000.0001) // =======================================================
(PID.TID 0000.0001) %MON exf_tsnumber                 =                     9
(PID.TID 0000.0001) %MON exf_time_sec                 =   3.2400000000000E+04
(PID.TID 0000.0001) %MON exf_ustress_max              =   5.9517503908917E-03
(PID.TID 0000.0001) %MON exf_ustress_min              =   5.9517503908917E-03
(PID.TID 0000.0001) %MON exf_ustress_mean             =   5.9517503908917E-03
(PID.TID 0000.0001) %MON exf_ustress_sd               =   0.0000000000000E+00
(PID.TID 0000.0001) %MON exf_ustress_del2             =   0.0000000000000E+00
(PID.TID 0000.0001) %MON exf_vstress_max              =   5.9517503908917E-03
(PID.TID 0000.0001) %MON exf_vstress_min              =   5.9517503908917E-03
(PID.TID 0000.0001) %MON exf_vstress_mean             =   5.9517503908917E-03
(PID.TID 0000.0001) %MON exf_vstress_sd               =   0.0000000000000E+00
(PID.TID 0000.0001) %MON exf_vstress_del2             =   0.0000000000000E+00
(PID.TID 0000.0001) %MON exf_hflux_max                =   2.3735381954161E+02
(PID.TID 0000.0001) %MON exf_hflux_min                =   2.3735381954161E+02
(PID.TID 0000.0001) %MON exf_hflux_mean               =   2.3735381954161E+02
(PID.TID 0000.0001) %MON exf_hflux_sd                 =   0.0000000000000E+00
(PID.TID 0000.0001) %MON exf_hflux_del2               =   6.7133798135361E+02
(PID.TID 0000.0001) %MON exf_sflux_max                =   2.0704180322273E-08
(PID.TID 0000.0001) %MON exf_sflux_min                =   2.0704180322273E-08
(PID.TID 0000.0001) %MON exf_sflux_mean               =   2.0704180322273E-08
(PID.TID 0000.0001) %MON exf_sflux_sd                 =   0.0000000000000E+00
(PID.TID 0000.0001) %MON exf_sflux_del2               =   5.8560265219152E-08
(PID.TID 0000.0001) %MON exf_uwind_max                =   1.0000000000000E+00
(PID.TID 0000.0001) %MON exf_uwind_min                =   1.0000000000000E+00
(PID.TID 0000.0001) %MON exf_uwind_mean               =   1.0000000000000E+00
(PID.TID 0000.0001) %MON exf_uwind_sd                 =   0.0000000000000E+00
(PID.TID 0000.0001) %MON exf_uwind_del2               =   0.0000000000000E+00
(PID.TID 0000.0001) %MON exf_vwind_max                =   1.0000000000000E+00
(PID.TID 0000.0001) %MON exf_vwind_min                =   1.0000000000000E+00
(PID.TID 0000.0001) %MON exf_vwind_mean               =   1.0000000000000E+00
(PID.TID 0000.0001) %MON exf_vwind_sd                 =   0.0000000000000E+00
(PID.TID 0000.0001) %MON exf_vwind_del2               =   0.0000000000000E+00
(PID.TID 0000.0001) %MON exf_wspeed_max               =   1.4142135623731E+00
(PID.TID 0000.0001) %MON exf_wspeed_min               =   1.4142135623731E+00
(PID.TID 0000.0001) %MON exf_wspeed_mean              =   1.4142135623731E+00
(PID.TID 0000.0001) %MON exf_wspeed_sd                =   0.0000000000000E+00
(PID.TID 0000.0001) %MON exf_wspeed_del2              =   4.0000000000000E+00
(PID.TID 0000.0001) %MON exf_atemp_max                =   2.5304067611694E+02
(PID.TID 0000.0001) %MON exf_atemp_min                =   2.5304067611694E+02
(PID.TID 0000.0001) %MON exf_atemp_mean               =   2.5304067611694E+02
(PID.TID 0000.0001) %MON exf_atemp_sd                 =   0.0000000000000E+00
(PID.TID 0000.0001) %MON exf_atemp_del2               =   5.6906041402391E+01
(PID.TID 0000.0001) %MON exf_lwflux_max               =   1.0633473397981E+02
(PID.TID 0000.0001) %MON exf_lwflux_min               =   1.0633473397981E+02
(PID.TID 0000.0001) %MON exf_lwflux_mean              =   1.0633473397981E+02
(PID.TID 0000.0001) %MON exf_lwflux_sd                =   0.0000000000000E+00
(PID.TID 0000.0001) %MON exf_lwflux_del2              =   3.0076004589116E+02
(PID.TID 0000.0001) %MON exf_evap_max                 =   2.0704180322273E-08
(PID.TID 0000.0001) %MON exf_evap_min                 =   2.0704180322273E-08
(PID.TID 0000.0001) %MON exf_evap_mean                =   2.0704180322273E-08
(PID.TID 0000.0001) %MON exf_evap_sd                  =   0.0000000000000E+00
(PID.TID 0000.0001) %MON exf_evap_del2                =   5.8560265219152E-08
(PID.TID 0000.0001) %MON exf_swflux_max               =  -1.9733900713921E+01
(PID.TID 0000.0001) %MON exf_swflux_min               =  -1.9733900713921E+01
(PID.TID 0000.0001) %MON exf_swflux_mean              =  -1.9733900713921E+01
(PID.TID 0000.0001) %MON exf_swflux_sd                =   0.0000000000000E+00
(PID.TID 0000.0001) %MON exf_swflux_del2              =   5.5815900056301E+01
(PID.TID 0000.0001) %MON exf_swdown_max               =   2.1926556348801E+01
(PID.TID 0000.0001) %MON exf_swdown_min               =   2.1926556348801E+01
(PID.TID 0000.0001) %MON exf_swdown_mean              =   2.1926556348801E+01
(PID.TID 0000.0001) %MON exf_swdown_sd                =   0.0000000000000E+00
(PID.TID 0000.0001) %MON exf_swdown_del2              =   6.2017666729224E+01
(PID.TID 0000.0001) %MON exf_lwdown_max               =   1.9142330169678E+02
(PID.TID 0000.0001) %MON exf_lwdown_min               =   1.9142330169678E+02
(PID.TID 0000.0001) %MON exf_lwdown_mean              =   1.9142330169678E+02
(PID.TID 0000.0001) %MON exf_lwdown_sd                =   0.0000000000000E+00
(PID.TID 0000.0001) %MON exf_lwdown_del2              =   5.4142685882764E+02
(PID.TID 0000.0001) // =======================================================
(PID.TID 0000.0001) // End MONITOR EXF statistics
(PID.TID 0000.0001) // =======================================================
 ph-ice B            9  -1.8965938811681053       5.09203566306227207E-002  8.40585238580750585E-003
 ph-ice C            9   691935.67110343149     
 cg2d: Sum(rhs),rhsMax =   1.00000000000000E+00  3.06558785220525E-05
(PID.TID 0000.0001)      cg2d_init_res =   3.31952306660241E-02
(PID.TID 0000.0001)      cg2d_iters(min,last) =      -1       1
(PID.TID 0000.0001)      cg2d_last_res =   0.00000000000000E+00
(PID.TID 0000.0001) // =======================================================
(PID.TID 0000.0001) // Begin MONITOR dynamic field statistics
(PID.TID 0000.0001) // =======================================================
(PID.TID 0000.0001) %MON time_tsnumber                =                    10
(PID.TID 0000.0001) %MON time_secondsf                =   3.6000000000000E+04
(PID.TID 0000.0001) %MON dynstat_eta_max              =  -8.1567317313854E-03
(PID.TID 0000.0001) %MON dynstat_eta_min              =  -8.1567317313854E-03
(PID.TID 0000.0001) %MON dynstat_eta_mean             =  -8.1567317313854E-03
(PID.TID 0000.0001) %MON dynstat_eta_sd               =   0.0000000000000E+00
(PID.TID 0000.0001) %MON dynstat_eta_del2             =   0.0000000000000E+00
(PID.TID 0000.0001) %MON dynstat_uvel_max             =   5.3315197911302E-03
(PID.TID 0000.0001) %MON dynstat_uvel_min             =  -7.2850080960817E-04
(PID.TID 0000.0001) %MON dynstat_uvel_mean            =   1.1709521942278E-04
(PID.TID 0000.0001) %MON dynstat_uvel_sd              =   7.8573490339108E-04
(PID.TID 0000.0001) %MON dynstat_uvel_del2            =   0.0000000000000E+00
(PID.TID 0000.0001) %MON dynstat_vvel_max             =   2.8789104462765E-24
(PID.TID 0000.0001) %MON dynstat_vvel_min             =  -5.0678430017472E-03
(PID.TID 0000.0001) %MON dynstat_vvel_mean            =  -2.6789872820807E-04
(PID.TID 0000.0001) %MON dynstat_vvel_sd              =   1.0415593104665E-03
(PID.TID 0000.0001) %MON dynstat_vvel_del2            =   0.0000000000000E+00
(PID.TID 0000.0001) %MON dynstat_wvel_max             =  -0.0000000000000E+00
(PID.TID 0000.0001) %MON dynstat_wvel_min             =  -0.0000000000000E+00
(PID.TID 0000.0001) %MON dynstat_wvel_mean            =   0.0000000000000E+00
(PID.TID 0000.0001) %MON dynstat_wvel_sd              =   0.0000000000000E+00
(PID.TID 0000.0001) %MON dynstat_wvel_del2            =   0.0000000000000E+00
(PID.TID 0000.0001) %MON dynstat_theta_max            =   4.9999999999478E-01
(PID.TID 0000.0001) %MON dynstat_theta_min            =  -1.9024888176352E+00
(PID.TID 0000.0001) %MON dynstat_theta_mean           =  -4.2673768080620E-01
(PID.TID 0000.0001) %MON dynstat_theta_sd             =   8.8047167979714E-01
(PID.TID 0000.0001) %MON dynstat_theta_del2           =   0.0000000000000E+00
(PID.TID 0000.0001) %MON dynstat_salt_max             =   3.4799999999998E+01
(PID.TID 0000.0001) %MON dynstat_salt_min             =   2.9020525685764E+01
(PID.TID 0000.0001) %MON dynstat_salt_mean            =   3.3593379222091E+01
(PID.TID 0000.0001) %MON dynstat_salt_sd              =   1.6842212230076E+00
(PID.TID 0000.0001) %MON dynstat_salt_del2            =   0.0000000000000E+00
(PID.TID 0000.0001) %MON dynstat_sst_max              =  -1.8999040342219E+00
(PID.TID 0000.0001) %MON dynstat_sst_min              =  -1.8999040342219E+00
(PID.TID 0000.0001) %MON dynstat_sst_mean             =  -1.8999040342219E+00
(PID.TID 0000.0001) %MON dynstat_sst_sd               =   0.0000000000000E+00
(PID.TID 0000.0001) %MON dynstat_sst_del2             =   0.0000000000000E+00
(PID.TID 0000.0001) %MON dynstat_sss_max              =   2.9020525685764E+01
(PID.TID 0000.0001) %MON dynstat_sss_min              =   2.9020525685764E+01
(PID.TID 0000.0001) %MON dynstat_sss_mean             =   2.9020525685764E+01
(PID.TID 0000.0001) %MON dynstat_sss_sd               =   0.0000000000000E+00
(PID.TID 0000.0001) %MON dynstat_sss_del2             =   0.0000000000000E+00
(PID.TID 0000.0001) %MON forcing_qnet_max             =   2.1309186440038E+02
(PID.TID 0000.0001) %MON forcing_qnet_min             =   2.1309186440038E+02
(PID.TID 0000.0001) %MON forcing_qnet_mean            =   2.1309186440038E+02
(PID.TID 0000.0001) %MON forcing_qnet_sd              =   0.0000000000000E+00
(PID.TID 0000.0001) %MON forcing_qnet_del2            =   0.0000000000000E+00
(PID.TID 0000.0001) %MON forcing_qsw_max              =  -1.8889191529523E+01
(PID.TID 0000.0001) %MON forcing_qsw_min              =  -1.8889191529523E+01
(PID.TID 0000.0001) %MON forcing_qsw_mean             =  -1.8889191529523E+01
(PID.TID 0000.0001) %MON forcing_qsw_sd               =   0.0000000000000E+00
(PID.TID 0000.0001) %MON forcing_qsw_del2             =   0.0000000000000E+00
(PID.TID 0000.0001) %MON forcing_empmr_max            =   7.7243120907319E-05
(PID.TID 0000.0001) %MON forcing_empmr_min            =   7.7243120907319E-05
(PID.TID 0000.0001) %MON forcing_empmr_mean           =   7.7243120907319E-05
(PID.TID 0000.0001) %MON forcing_empmr_sd             =   0.0000000000000E+00
(PID.TID 0000.0001) %MON forcing_empmr_del2           =   0.0000000000000E+00
(PID.TID 0000.0001) %MON forcing_fu_max               =   5.6777024652642E-03
(PID.TID 0000.0001) %MON forcing_fu_min               =   5.6777024652642E-03
(PID.TID 0000.0001) %MON forcing_fu_mean              =   5.6777024652642E-03
(PID.TID 0000.0001) %MON forcing_fu_sd                =   0.0000000000000E+00
(PID.TID 0000.0001) %MON forcing_fu_del2              =   0.0000000000000E+00
(PID.TID 0000.0001) %MON forcing_fv_max               =   5.6777024652642E-03
(PID.TID 0000.0001) %MON forcing_fv_min               =   5.6777024652642E-03
(PID.TID 0000.0001) %MON forcing_fv_mean              =   5.6777024652642E-03
(PID.TID 0000.0001) %MON forcing_fv_sd                =   0.0000000000000E+00
(PID.TID 0000.0001) %MON forcing_fv_del2              =   0.0000000000000E+00
(PID.TID 0000.0001) %MON trAdv_CFL_u_max              =   3.8386942496137E-03
(PID.TID 0000.0001) %MON trAdv_CFL_v_max              =   3.6488469612580E-03
(PID.TID 0000.0001) %MON trAdv_CFL_w_max              =   0.0000000000000E+00
(PID.TID 0000.0001) %MON advcfl_uvel_max              =   3.8386942496137E-03
(PID.TID 0000.0001) %MON advcfl_vvel_max              =   3.6488469612580E-03
(PID.TID 0000.0001) %MON advcfl_wvel_max              =   0.0000000000000E+00
(PID.TID 0000.0001) %MON advcfl_W_hf_max              =   0.0000000000000E+00
(PID.TID 0000.0001) %MON pe_b_mean                    =  -5.2566272504002E-07
(PID.TID 0000.0001) %MON ke_max                       =   2.2310012145075E-05
(PID.TID 0000.0001) %MON ke_mean                      =   8.9385307730685E-07
(PID.TID 0000.0001) %MON ke_vol                       =   1.2831500000000E+10
(PID.TID 0000.0001) %MON vort_r_min                   =   0.0000000000000E+00
(PID.TID 0000.0001) %MON vort_r_max                   =   0.0000000000000E+00
(PID.TID 0000.0001) %MON vort_a_mean                  =   1.0000000000000E-04
(PID.TID 0000.0001) %MON vort_a_sd                    =   0.0000000000000E+00
(PID.TID 0000.0001) %MON vort_p_mean                  =   1.0000000000000E-04
(PID.TID 0000.0001) %MON vort_p_sd                    =   0.0000000000000E+00
(PID.TID 0000.0001) %MON surfExpan_theta_mean         =   0.0000000000000E+00
(PID.TID 0000.0001) %MON surfExpan_salt_mean          =   0.0000000000000E+00
(PID.TID 0000.0001) // =======================================================
(PID.TID 0000.0001) // End MONITOR dynamic field statistics
(PID.TID 0000.0001) // =======================================================
(PID.TID 0000.0001) // =======================================================
(PID.TID 0000.0001) // Begin MONITOR SEAICE statistics
(PID.TID 0000.0001) // =======================================================
(PID.TID 0000.0001) %MON seaice_tsnumber              =                    10
(PID.TID 0000.0001) %MON seaice_time_sec              =   3.6000000000000E+04
(PID.TID 0000.0001) %MON seaice_uice_max              =   0.0000000000000E+00
(PID.TID 0000.0001) %MON seaice_uice_min              =   0.0000000000000E+00
(PID.TID 0000.0001) %MON seaice_uice_mean             =   0.0000000000000E+00
(PID.TID 0000.0001) %MON seaice_uice_sd               =   0.0000000000000E+00
(PID.TID 0000.0001) %MON seaice_uice_del2             =   0.0000000000000E+00
(PID.TID 0000.0001) %MON seaice_vice_max              =   0.0000000000000E+00
(PID.TID 0000.0001) %MON seaice_vice_min              =   0.0000000000000E+00
(PID.TID 0000.0001) %MON seaice_vice_mean             =   0.0000000000000E+00
(PID.TID 0000.0001) %MON seaice_vice_sd               =   0.0000000000000E+00
(PID.TID 0000.0001) %MON seaice_vice_del2             =   0.0000000000000E+00
(PID.TID 0000.0001) %MON seaice_area_max              =   5.0920356630623E-02
(PID.TID 0000.0001) %MON seaice_area_min              =   5.0920356630623E-02
(PID.TID 0000.0001) %MON seaice_area_mean             =   5.0920356630623E-02
(PID.TID 0000.0001) %MON seaice_area_sd               =   0.0000000000000E+00
(PID.TID 0000.0001) %MON seaice_area_del2             =   0.0000000000000E+00
(PID.TID 0000.0001) %MON seaice_heff_max              =   8.4058523858075E-03
(PID.TID 0000.0001) %MON seaice_heff_min              =   8.4058523858075E-03
(PID.TID 0000.0001) %MON seaice_heff_mean             =   8.4058523858075E-03
(PID.TID 0000.0001) %MON seaice_heff_sd               =   1.7347234759768E-18
(PID.TID 0000.0001) %MON seaice_heff_del2             =   0.0000000000000E+00
(PID.TID 0000.0001) %MON seaice_hsnow_max             =   0.0000000000000E+00
(PID.TID 0000.0001) %MON seaice_hsnow_min             =   0.0000000000000E+00
(PID.TID 0000.0001) %MON seaice_hsnow_mean            =   0.0000000000000E+00
(PID.TID 0000.0001) %MON seaice_hsnow_sd              =   0.0000000000000E+00
(PID.TID 0000.0001) %MON seaice_hsnow_del2            =   0.0000000000000E+00
(PID.TID 0000.0001) %MON seaice_hsalt_max             =   6.6577158688473E+01
(PID.TID 0000.0001) %MON seaice_hsalt_min             =   6.6577158688473E+01
(PID.TID 0000.0001) %MON seaice_hsalt_mean            =   6.6577158688473E+01
(PID.TID 0000.0001) %MON seaice_hsalt_sd              =   0.0000000000000E+00
(PID.TID 0000.0001) %MON seaice_hsalt_del2            =   0.0000000000000E+00
(PID.TID 0000.0001) // =======================================================
(PID.TID 0000.0001) // End MONITOR SEAICE statistics
(PID.TID 0000.0001) // =======================================================
(PID.TID 0000.0001) %CHECKPOINT        10 ckptA
(PID.TID 0000.0001) ph-cost call cost_theta0
(PID.TID 0000.0001) ph-cost call cost_salt0
(PID.TID 0000.0001) ph-cost call cost_theta
(PID.TID 0000.0001) ph-cost call cost_salt
(PID.TID 0000.0001) ph-cost call cost_smrarea
  SICD cost smrarea/sst/sss    0.0000000000000000        0.0000000000000000        0.0000000000000000     
  SICD num points smrarea/sst/sss    0.0000000000000000        0.0000000000000000        0.0000000000000000     
 --> f_ice     = 0.691935671103431D+06
 --> f_smrarea = 0.000000000000000D+00
 --> f_smrarea = 0.000000000000000D+00
 --> f_smrarea = 0.000000000000000D+00
 --> f_temp    = 0.000000000000000D+00
 --> f_salt    = 0.000000000000000D+00
 --> f_temp0   = 0.000000000000000D+00
 --> f_salt0   = 0.000000000000000D+00
 --> f_temp0smoo = 0.000000000000000D+00
 --> f_salt0smoo = 0.000000000000000D+00
 --> f_etan0   = 0.000000000000000D+00
 --> f_uvel0   = 0.000000000000000D+00
 --> f_vvel0   = 0.000000000000000D+00
 --> f_sst     = 0.000000000000000D+00
 --> f_tmi     = 0.000000000000000D+00
 --> f_sss     = 0.000000000000000D+00
 --> f_bp      = 0.000000000000000D+00
 --> f_ies      = 0.000000000000000D+00
 --> f_ssh       = 0.000000000000000D+00
 --> f_tp        = 0.000000000000000D+00
 --> f_ers       = 0.000000000000000D+00
 --> f_gfo       = 0.000000000000000D+00
 --> f_tauu    = 0.000000000000000D+00
 --> f_tauum   = 0.000000000000000D+00
 --> f_tauusmoo = 0.000000000000000D+00
 --> f_tauv    = 0.000000000000000D+00
 --> f_tauvm   = 0.000000000000000D+00
 --> f_tauvsmoo = 0.000000000000000D+00
 --> f_hflux   = 0.000000000000000D+00
 --> f_hfluxmm = 0.000000000000000D+00
 --> f_hfluxsmoo = 0.000000000000000D+00
 --> f_sflux   = 0.000000000000000D+00
 --> f_sfluxmm = 0.000000000000000D+00
 --> f_sfluxsmoo = 0.000000000000000D+00
 --> f_uwind     = 0.000000000000000D+00
 --> f_vwind     = 0.000000000000000D+00
 --> f_atemp     = 0.000000000000000D+00
 --> f_aqh     = 0.000000000000000D+00
 --> f_precip  = 0.000000000000000D+00
 --> f_swflux  = 0.000000000000000D+00
 --> f_swdown  = 0.000000000000000D+00
 --> f_lwflux  = 0.000000000000000D+00
 --> f_lwdown  = 0.000000000000000D+00
 --> f_uwindm     = 0.000000000000000D+00
 --> f_vwindm     = 0.000000000000000D+00
 --> f_atempm     = 0.000000000000000D+00
 --> f_aqhm     = 0.000000000000000D+00
 --> f_precipm  = 0.000000000000000D+00
 --> f_swfluxm  = 0.000000000000000D+00
 --> f_lwfluxm  = 0.000000000000000D+00
 --> f_swdownm  = 0.000000000000000D+00
 --> f_lwdownm  = 0.000000000000000D+00
 --> f_uwindsmoo     = 0.000000000000000D+00
 --> f_vwindsmoo     = 0.000000000000000D+00
 --> f_atempsmoo     = 0.000000000000000D+00
 --> f_aqhsmoo     = 0.000000000000000D+00
 --> f_precipsmoo  = 0.000000000000000D+00
 --> f_swfluxsmoo  = 0.000000000000000D+00
 --> f_lwfluxsmoo  = 0.000000000000000D+00
 --> f_swdownsmoo  = 0.000000000000000D+00
 --> f_lwdownsmoo  = 0.000000000000000D+00
 --> f_atl     = 0.000000000000000D+00
 --> f_ctdt    = 0.000000000000000D+00
 --> f_ctds    = 0.000000000000000D+00
 --> f_ctdtclim= 0.000000000000000D+00
 --> f_ctdsclim= 0.000000000000000D+00
 --> f_xbt     = 0.000000000000000D+00
 --> f_argot   = 0.000000000000000D+00
 --> f_argos   = 0.000000000000000D+00
 --> f_drifter   = 0.000000000000000D+00
 --> f_tdrift  = 0.000000000000000D+00
 --> f_sdrift  = 0.000000000000000D+00
 --> f_wdrift  = 0.000000000000000D+00
 --> f_scatx   = 0.000000000000000D+00
 --> f_scaty   = 0.000000000000000D+00
 --> f_scatxm  = 0.000000000000000D+00
 --> f_scatym  = 0.000000000000000D+00
 --> f_curmtr  = 0.000000000000000D+00
 --> f_kapgm   = 0.000000000000000D+00
 --> f_kapredi   = 0.000000000000000D+00
 --> f_diffkr  = 0.000000000000000D+00
 --> f_eddytau = 0.000000000000000D+00
 --> f_bottomdrag = 0.000000000000000D+00
 --> f_hfluxmm2           = 0.000000000000000D+00
 --> f_sfluxmm2           = 0.000000000000000D+00
 --> f_transp             = 0.000000000000000D+00
 --> objf_hmean           = 0.000000000000000D+00
(PID.TID 0000.0001)  --> fc               = 0.691935671103431D+06
(PID.TID 0000.0001)   early fc =  0.000000000000000D+00
(PID.TID 0000.0001)   local fc =  0.691935671103431D+06
(PID.TID 0000.0001)  global fc =  0.691935671103431D+06
 ph-ice B            0  -1.9299999999999999       3.19162471080251071E-003  1.59581235540125536E-003
 ph-ice C            0   7978.8401425578732     
(PID.TID 0000.0001) SOLVE_FOR_PRESSURE: putPmEinXvector =    F
 cg2d: Sum(rhs),rhsMax =   1.00000000000000E+00  5.58645366562891E-06
 ph-ice B            1  -1.9277414181066890       8.88744644711660960E-003  3.09504219936541621E-003
 ph-ice C            1   30196.839093711867     
 cg2d: Sum(rhs),rhsMax =   1.00000000000000E+00  1.08504365899875E-05
 ph-ice B            2  -1.9227439708288998       1.45024480625498536E-002  4.38366254889791234E-003
 ph-ice C            2   66451.952163612339     
 cg2d: Sum(rhs),rhsMax =   1.00000000000000E+00  1.54115956505727E-05
 ph-ice B            3  -1.9169503554400720       2.00243196642483426E-002  5.43052875323189396E-003
 ph-ice C            3   116511.36078510483     
 cg2d: Sum(rhs),rhsMax =   1.00000000000000E+00  1.91662515894767E-05
 ph-ice B            4  -1.9115570328477209       2.54432301173443433E-002  6.25461707085258299E-003
 ph-ice C            4   180117.66923656425     
 cg2d: Sum(rhs),rhsMax =   1.00000000000000E+00  2.21776143798627E-05
 ph-ice B            5  -1.9071999657391594       3.07544745731006819E-002  6.90084944997937204E-003
 ph-ice C            5   257001.72000123915     
 cg2d: Sum(rhs),rhsMax =   1.00000000000000E+00  2.45952871586637E-05
 ph-ice B            6  -1.9040029491701176       3.59579707918807195E-002  7.41854898759684248E-003
 ph-ice C            6   346894.14996899740     
 cg2d: Sum(rhs),rhsMax =   1.00000000000000E+00  2.65835287231568E-05
 ph-ice B            7  -1.9016149223176728       4.10551563736783268E-002  7.84195903565973636E-003
 ph-ice C            7   449529.18992986099     
 cg2d: Sum(rhs),rhsMax =   1.00000000000000E+00  2.82563874062723E-05
 ph-ice B            8  -1.8993859264641122       4.60449292441518637E-002  8.17839483878709389E-003
 ph-ice C            8   564638.31556452857     
 cg2d: Sum(rhs),rhsMax =   1.00000000000000E+00  2.96382495632281E-05
 ph-ice B            9  -1.8965938811681053       5.09203566306227207E-002  8.40585238580750585E-003
 ph-ice C            9   691935.67110343149     
 cg2d: Sum(rhs),rhsMax =   1.00000000000000E+00  3.06558785220525E-05
(PID.TID 0000.0001) Did not write pickup because writePickupAtEnd = FALSE
 ph-ice B            0  -1.9299999999999999       3.19162471080251071E-003  1.59581235540125536E-003
 ph-ice C            0   7978.8401425578732     
(PID.TID 0000.0001) SOLVE_FOR_PRESSURE: putPmEinXvector =    F
 cg2d: Sum(rhs),rhsMax =   1.00000000000000E+00  5.58645366562891E-06
 ph-ice B            1  -1.9277414181066890       8.88744644711660960E-003  3.09504219936541621E-003
 ph-ice C            1   30196.839093711867     
 cg2d: Sum(rhs),rhsMax =   1.00000000000000E+00  1.08504365899875E-05
 ph-ice B            2  -1.9227439708288998       1.45024480625498536E-002  4.38366254889791234E-003
 ph-ice C            2   66451.952163612339     
 cg2d: Sum(rhs),rhsMax =   1.00000000000000E+00  1.54115956505727E-05
 ph-ice B            3  -1.9169503554400720       2.00243196642483426E-002  5.43052875323189396E-003
 ph-ice C            3   116511.36078510483     
 cg2d: Sum(rhs),rhsMax =   1.00000000000000E+00  1.91662515894767E-05
 ph-ice B            4  -1.9115570328477209       2.54432301173443433E-002  6.25461707085258299E-003
 ph-ice C            4   180117.66923656425     
 cg2d: Sum(rhs),rhsMax =   1.00000000000000E+00  2.21776143798627E-05
 ph-ice B            5  -1.9071999657391594       3.07544745731006819E-002  6.90084944997937204E-003
 ph-ice C            5   257001.72000123915     
 cg2d: Sum(rhs),rhsMax =   1.00000000000000E+00  2.45952871586637E-05
 ph-ice B            6  -1.9040029491701176       3.59579707918807195E-002  7.41854898759684248E-003
 ph-ice C            6   346894.14996899740     
 cg2d: Sum(rhs),rhsMax =   1.00000000000000E+00  2.65835287231568E-05
 ph-ice B            7  -1.9016149223176728       4.10551563736783268E-002  7.84195903565973636E-003
 ph-ice C            7   449529.18992986099     
 cg2d: Sum(rhs),rhsMax =   1.00000000000000E+00  2.82563874062723E-05
 ph-ice B            8  -1.8993859264641122       4.60449292441518637E-002  8.17839483878709389E-003
 ph-ice C            8   564638.31556452857     
 cg2d: Sum(rhs),rhsMax =   1.00000000000000E+00  2.96382495632281E-05
 ph-ice B            9  -1.8965938811681053       5.09203566306227207E-002  8.40585238580750585E-003
 ph-ice C            9   691935.67110343149     
 cg2d: Sum(rhs),rhsMax =   1.00000000000000E+00  3.06558785220525E-05
(PID.TID 0000.0001) Did not write pickup because writePickupAtEnd = FALSE
(PID.TID 0000.0001) Did not write pickup because writePickupAtEnd = FALSE
(PID.TID 0000.0001) // =======================================================
(PID.TID 0000.0001) // Begin AD_MONITOR dynamic field statistics
(PID.TID 0000.0001) // =======================================================
(PID.TID 0000.0001) %MON ad_time_tsnumber             =                    10
(PID.TID 0000.0001) %MON ad_time_secondsf             =   3.6000000000000E+04
(PID.TID 0000.0001) %MON ad_dynstat_adeta_max         =   0.0000000000000E+00
(PID.TID 0000.0001) %MON ad_dynstat_adeta_min         =   0.0000000000000E+00
(PID.TID 0000.0001) %MON ad_dynstat_adeta_mean        =   0.0000000000000E+00
(PID.TID 0000.0001) %MON ad_dynstat_adeta_sd          =   0.0000000000000E+00
(PID.TID 0000.0001) %MON ad_dynstat_adeta_del2        =   0.0000000000000E+00
(PID.TID 0000.0001) %MON ad_dynstat_aduvel_max        =   0.0000000000000E+00
(PID.TID 0000.0001) %MON ad_dynstat_aduvel_min        =   0.0000000000000E+00
(PID.TID 0000.0001) %MON ad_dynstat_aduvel_mean       =   0.0000000000000E+00
(PID.TID 0000.0001) %MON ad_dynstat_aduvel_sd         =   0.0000000000000E+00
(PID.TID 0000.0001) %MON ad_dynstat_aduvel_del2       =   0.0000000000000E+00
(PID.TID 0000.0001) %MON ad_dynstat_advvel_max        =   0.0000000000000E+00
(PID.TID 0000.0001) %MON ad_dynstat_advvel_min        =   0.0000000000000E+00
(PID.TID 0000.0001) %MON ad_dynstat_advvel_mean       =   0.0000000000000E+00
(PID.TID 0000.0001) %MON ad_dynstat_advvel_sd         =   0.0000000000000E+00
(PID.TID 0000.0001) %MON ad_dynstat_advvel_del2       =   0.0000000000000E+00
(PID.TID 0000.0001) %MON ad_dynstat_adwvel_max        =   0.0000000000000E+00
(PID.TID 0000.0001) %MON ad_dynstat_adwvel_min        =   0.0000000000000E+00
(PID.TID 0000.0001) %MON ad_dynstat_adwvel_mean       =   0.0000000000000E+00
(PID.TID 0000.0001) %MON ad_dynstat_adwvel_sd         =   0.0000000000000E+00
(PID.TID 0000.0001) %MON ad_dynstat_adwvel_del2       =   0.0000000000000E+00
(PID.TID 0000.0001) %MON ad_dynstat_adtheta_max       =   0.0000000000000E+00
(PID.TID 0000.0001) %MON ad_dynstat_adtheta_min       =   0.0000000000000E+00
(PID.TID 0000.0001) %MON ad_dynstat_adtheta_mean      =   0.0000000000000E+00
(PID.TID 0000.0001) %MON ad_dynstat_adtheta_sd        =   0.0000000000000E+00
(PID.TID 0000.0001) %MON ad_dynstat_adtheta_del2      =   0.0000000000000E+00
(PID.TID 0000.0001) %MON ad_dynstat_adsalt_max        =   0.0000000000000E+00
(PID.TID 0000.0001) %MON ad_dynstat_adsalt_min        =   0.0000000000000E+00
(PID.TID 0000.0001) %MON ad_dynstat_adsalt_mean       =   0.0000000000000E+00
(PID.TID 0000.0001) %MON ad_dynstat_adsalt_sd         =   0.0000000000000E+00
(PID.TID 0000.0001) %MON ad_dynstat_adsalt_del2       =   0.0000000000000E+00
(PID.TID 0000.0001) %MON ad_dynstat_adsst_max         =   0.0000000000000E+00
(PID.TID 0000.0001) %MON ad_dynstat_adsst_min         =   0.0000000000000E+00
(PID.TID 0000.0001) %MON ad_dynstat_adsst_mean        =   0.0000000000000E+00
(PID.TID 0000.0001) %MON ad_dynstat_adsst_sd          =   0.0000000000000E+00
(PID.TID 0000.0001) %MON ad_dynstat_adsst_del2        =   0.0000000000000E+00
(PID.TID 0000.0001) %MON ad_dynstat_adsss_max         =   0.0000000000000E+00
(PID.TID 0000.0001) %MON ad_dynstat_adsss_min         =   0.0000000000000E+00
(PID.TID 0000.0001) %MON ad_dynstat_adsss_mean        =   0.0000000000000E+00
(PID.TID 0000.0001) %MON ad_dynstat_adsss_sd          =   0.0000000000000E+00
(PID.TID 0000.0001) %MON ad_dynstat_adsss_del2        =   0.0000000000000E+00
(PID.TID 0000.0001) %MON ad_forcing_adqnet_max        =   0.0000000000000E+00
(PID.TID 0000.0001) %MON ad_forcing_adqnet_min        =   0.0000000000000E+00
(PID.TID 0000.0001) %MON ad_forcing_adqnet_mean       =   0.0000000000000E+00
(PID.TID 0000.0001) %MON ad_forcing_adqnet_sd         =   0.0000000000000E+00
(PID.TID 0000.0001) %MON ad_forcing_adqnet_del2       =   0.0000000000000E+00
(PID.TID 0000.0001) %MON ad_forcing_adqsw_max         =   0.0000000000000E+00
(PID.TID 0000.0001) %MON ad_forcing_adqsw_min         =   0.0000000000000E+00
(PID.TID 0000.0001) %MON ad_forcing_adqsw_mean        =   0.0000000000000E+00
(PID.TID 0000.0001) %MON ad_forcing_adqsw_sd          =   0.0000000000000E+00
(PID.TID 0000.0001) %MON ad_forcing_adqsw_del2        =   0.0000000000000E+00
(PID.TID 0000.0001) %MON ad_forcing_adempmr_max       =   0.0000000000000E+00
(PID.TID 0000.0001) %MON ad_forcing_adempmr_min       =   0.0000000000000E+00
(PID.TID 0000.0001) %MON ad_forcing_adempmr_mean      =   0.0000000000000E+00
(PID.TID 0000.0001) %MON ad_forcing_adempmr_sd        =   0.0000000000000E+00
(PID.TID 0000.0001) %MON ad_forcing_adempmr_del2      =   0.0000000000000E+00
(PID.TID 0000.0001) %MON ad_forcing_adfu_max          =   0.0000000000000E+00
(PID.TID 0000.0001) %MON ad_forcing_adfu_min          =   0.0000000000000E+00
(PID.TID 0000.0001) %MON ad_forcing_adfu_mean         =   0.0000000000000E+00
(PID.TID 0000.0001) %MON ad_forcing_adfu_sd           =   0.0000000000000E+00
(PID.TID 0000.0001) %MON ad_forcing_adfu_del2         =   0.0000000000000E+00
(PID.TID 0000.0001) %MON ad_forcing_adfv_max          =   0.0000000000000E+00
(PID.TID 0000.0001) %MON ad_forcing_adfv_min          =   0.0000000000000E+00
(PID.TID 0000.0001) %MON ad_forcing_adfv_mean         =   0.0000000000000E+00
(PID.TID 0000.0001) %MON ad_forcing_adfv_sd           =   0.0000000000000E+00
(PID.TID 0000.0001) %MON ad_forcing_adfv_del2         =   0.0000000000000E+00
(PID.TID 0000.0001) // =======================================================
(PID.TID 0000.0001) // End AD_MONITOR dynamic field statistics
(PID.TID 0000.0001) // =======================================================
(PID.TID 0000.0001) // =======================================================
(PID.TID 0000.0001) // Begin AD_MONITOR SEAICE statistics
(PID.TID 0000.0001) // =======================================================
(PID.TID 0000.0001) %MON ad_seaice_tsnumber           =                    10
(PID.TID 0000.0001) %MON ad_seaice_time_sec           =   3.6000000000000E+04
(PID.TID 0000.0001) %MON ad_seaice_aduice_max         =   0.0000000000000E+00
(PID.TID 0000.0001) %MON ad_seaice_aduice_min         =   0.0000000000000E+00
(PID.TID 0000.0001) %MON ad_seaice_aduice_mean        =   0.0000000000000E+00
(PID.TID 0000.0001) %MON ad_seaice_aduice_sd          =   0.0000000000000E+00
(PID.TID 0000.0001) %MON ad_seaice_aduice_del2        =   0.0000000000000E+00
(PID.TID 0000.0001) %MON ad_seaice_advice_max         =   0.0000000000000E+00
(PID.TID 0000.0001) %MON ad_seaice_advice_min         =   0.0000000000000E+00
(PID.TID 0000.0001) %MON ad_seaice_advice_mean        =   0.0000000000000E+00
(PID.TID 0000.0001) %MON ad_seaice_advice_sd          =   0.0000000000000E+00
(PID.TID 0000.0001) %MON ad_seaice_advice_del2        =   0.0000000000000E+00
(PID.TID 0000.0001) %MON ad_seaice_adarea_max         =   0.0000000000000E+00
(PID.TID 0000.0001) %MON ad_seaice_adarea_min         =   0.0000000000000E+00
(PID.TID 0000.0001) %MON ad_seaice_adarea_mean        =   0.0000000000000E+00
(PID.TID 0000.0001) %MON ad_seaice_adarea_sd          =   0.0000000000000E+00
(PID.TID 0000.0001) %MON ad_seaice_adarea_del2        =   0.0000000000000E+00
(PID.TID 0000.0001) %MON ad_seaice_adheff_max         =   0.0000000000000E+00
(PID.TID 0000.0001) %MON ad_seaice_adheff_min         =   0.0000000000000E+00
(PID.TID 0000.0001) %MON ad_seaice_adheff_mean        =   0.0000000000000E+00
(PID.TID 0000.0001) %MON ad_seaice_adheff_sd          =   0.0000000000000E+00
(PID.TID 0000.0001) %MON ad_seaice_adheff_del2        =   0.0000000000000E+00
(PID.TID 0000.0001) %MON ad_seaice_adhsnow_max        =   0.0000000000000E+00
(PID.TID 0000.0001) %MON ad_seaice_adhsnow_min        =   0.0000000000000E+00
(PID.TID 0000.0001) %MON ad_seaice_adhsnow_mean       =   0.0000000000000E+00
(PID.TID 0000.0001) %MON ad_seaice_adhsnow_sd         =   0.0000000000000E+00
(PID.TID 0000.0001) %MON ad_seaice_adhsnow_del2       =   0.0000000000000E+00
(PID.TID 0000.0001) %MON ad_seaice_adhsalt_max        =   0.0000000000000E+00
(PID.TID 0000.0001) %MON ad_seaice_adhsalt_min        =   0.0000000000000E+00
(PID.TID 0000.0001) %MON ad_seaice_adhsalt_mean       =   0.0000000000000E+00
(PID.TID 0000.0001) %MON ad_seaice_adhsalt_sd         =   0.0000000000000E+00
(PID.TID 0000.0001) %MON ad_seaice_adhsalt_del2       =   0.0000000000000E+00
(PID.TID 0000.0001) // =======================================================
(PID.TID 0000.0001) // End AD_MONITOR SEAICE statistics
(PID.TID 0000.0001) // =======================================================
 cg2d: Sum(rhs),rhsMax =   0.00000000000000E+00  0.00000000000000E+00
(PID.TID 0000.0001) // =======================================================
(PID.TID 0000.0001) // Begin AD_MONITOR EXF statistics for iwhen =  3
(PID.TID 0000.0001) // =======================================================
(PID.TID 0000.0001) %MON ad_exf_tsnumber              =                     9
(PID.TID 0000.0001) %MON ad_exf_time_sec              =   3.2400000000000E+04
(PID.TID 0000.0001) %MON ad_exf_adfu_max              =   0.0000000000000E+00
(PID.TID 0000.0001) %MON ad_exf_adfu_min              =   0.0000000000000E+00
(PID.TID 0000.0001) %MON ad_exf_adfu_mean             =   0.0000000000000E+00
(PID.TID 0000.0001) %MON ad_exf_adfu_sd               =   0.0000000000000E+00
(PID.TID 0000.0001) %MON ad_exf_adfu_del2             =   0.0000000000000E+00
(PID.TID 0000.0001) %MON ad_exf_adfv_max              =   0.0000000000000E+00
(PID.TID 0000.0001) %MON ad_exf_adfv_min              =   0.0000000000000E+00
(PID.TID 0000.0001) %MON ad_exf_adfv_mean             =   0.0000000000000E+00
(PID.TID 0000.0001) %MON ad_exf_adfv_sd               =   0.0000000000000E+00
(PID.TID 0000.0001) %MON ad_exf_adfv_del2             =   0.0000000000000E+00
(PID.TID 0000.0001) %MON ad_exf_adqnet_max            =   0.0000000000000E+00
(PID.TID 0000.0001) %MON ad_exf_adqnet_min            =   0.0000000000000E+00
(PID.TID 0000.0001) %MON ad_exf_adqnet_mean           =   0.0000000000000E+00
(PID.TID 0000.0001) %MON ad_exf_adqnet_sd             =   0.0000000000000E+00
(PID.TID 0000.0001) %MON ad_exf_adqnet_del2           =   0.0000000000000E+00
(PID.TID 0000.0001) %MON ad_exf_adempmr_max           =   0.0000000000000E+00
(PID.TID 0000.0001) %MON ad_exf_adempmr_min           =   0.0000000000000E+00
(PID.TID 0000.0001) %MON ad_exf_adempmr_mean          =   0.0000000000000E+00
(PID.TID 0000.0001) %MON ad_exf_adempmr_sd            =   0.0000000000000E+00
(PID.TID 0000.0001) %MON ad_exf_adempmr_del2          =   0.0000000000000E+00
(PID.TID 0000.0001) // =======================================================
(PID.TID 0000.0001) // End AD_MONITOR EXF statistics for iwhen =  3
(PID.TID 0000.0001) // =======================================================
(PID.TID 0000.0001) // =======================================================
(PID.TID 0000.0001) // Begin AD_MONITOR EXF statistics for iwhen =  1
(PID.TID 0000.0001) // =======================================================
(PID.TID 0000.0001) %MON ad_exf_tsnumber              =                     9
(PID.TID 0000.0001) %MON ad_exf_time_sec              =   3.2400000000000E+04
(PID.TID 0000.0001) %MON ad_exf_adustress_max         =   0.0000000000000E+00
(PID.TID 0000.0001) %MON ad_exf_adustress_min         =   0.0000000000000E+00
(PID.TID 0000.0001) %MON ad_exf_adustress_mean        =   0.0000000000000E+00
(PID.TID 0000.0001) %MON ad_exf_adustress_sd          =   0.0000000000000E+00
(PID.TID 0000.0001) %MON ad_exf_adustress_del2        =   0.0000000000000E+00
(PID.TID 0000.0001) %MON ad_exf_advstress_max         =   0.0000000000000E+00
(PID.TID 0000.0001) %MON ad_exf_advstress_min         =   0.0000000000000E+00
(PID.TID 0000.0001) %MON ad_exf_advstress_mean        =   0.0000000000000E+00
(PID.TID 0000.0001) %MON ad_exf_advstress_sd          =   0.0000000000000E+00
(PID.TID 0000.0001) %MON ad_exf_advstress_del2        =   0.0000000000000E+00
(PID.TID 0000.0001) %MON ad_exf_adhflux_max           =   0.0000000000000E+00
(PID.TID 0000.0001) %MON ad_exf_adhflux_min           =   0.0000000000000E+00
(PID.TID 0000.0001) %MON ad_exf_adhflux_mean          =   0.0000000000000E+00
(PID.TID 0000.0001) %MON ad_exf_adhflux_sd            =   0.0000000000000E+00
(PID.TID 0000.0001) %MON ad_exf_adhflux_del2          =   0.0000000000000E+00
(PID.TID 0000.0001) %MON ad_exf_adsflux_max           =   0.0000000000000E+00
(PID.TID 0000.0001) %MON ad_exf_adsflux_min           =   0.0000000000000E+00
(PID.TID 0000.0001) %MON ad_exf_adsflux_mean          =   0.0000000000000E+00
(PID.TID 0000.0001) %MON ad_exf_adsflux_sd            =   0.0000000000000E+00
(PID.TID 0000.0001) %MON ad_exf_adsflux_del2          =   0.0000000000000E+00
(PID.TID 0000.0001) %MON ad_exf_adwspeed_max          =   0.0000000000000E+00
(PID.TID 0000.0001) %MON ad_exf_adwspeed_min          =   0.0000000000000E+00
(PID.TID 0000.0001) %MON ad_exf_adwspeed_mean         =   0.0000000000000E+00
(PID.TID 0000.0001) %MON ad_exf_adwspeed_sd           =   0.0000000000000E+00
(PID.TID 0000.0001) %MON ad_exf_adwspeed_del2         =   0.0000000000000E+00
(PID.TID 0000.0001) // =======================================================
(PID.TID 0000.0001) // End AD_MONITOR EXF statistics for iwhen =  1
(PID.TID 0000.0001) // =======================================================
(PID.TID 0000.0001) // =======================================================
(PID.TID 0000.0001) // Begin AD_MONITOR EXF statistics for iwhen =  2
(PID.TID 0000.0001) // =======================================================
(PID.TID 0000.0001) %MON ad_exf_tsnumber              =                     9
(PID.TID 0000.0001) %MON ad_exf_time_sec              =   3.2400000000000E+04
(PID.TID 0000.0001) %MON ad_exf_aduwind_max           =   1.2242976278036E+03
(PID.TID 0000.0001) %MON ad_exf_aduwind_min           =   1.2242976278036E+03
(PID.TID 0000.0001) %MON ad_exf_aduwind_mean          =   1.2242976278036E+03
(PID.TID 0000.0001) %MON ad_exf_aduwind_sd            =   0.0000000000000E+00
(PID.TID 0000.0001) %MON ad_exf_aduwind_del2          =   3.4628366192420E+03
(PID.TID 0000.0001) %MON ad_exf_advwind_max           =   1.2242976278036E+03
(PID.TID 0000.0001) %MON ad_exf_advwind_min           =   1.2242976278036E+03
(PID.TID 0000.0001) %MON ad_exf_advwind_mean          =   1.2242976278036E+03
(PID.TID 0000.0001) %MON ad_exf_advwind_sd            =   0.0000000000000E+00
(PID.TID 0000.0001) %MON ad_exf_advwind_del2          =   3.4628366192420E+03
(PID.TID 0000.0001) %MON ad_exf_adatemp_max           =  -4.0413625094010E+02
(PID.TID 0000.0001) %MON ad_exf_adatemp_min           =  -4.0413625094010E+02
(PID.TID 0000.0001) %MON ad_exf_adatemp_mean          =  -4.0413625094010E+02
(PID.TID 0000.0001) %MON ad_exf_adatemp_sd            =   0.0000000000000E+00
(PID.TID 0000.0001) %MON ad_exf_adatemp_del2          =   1.1430699342522E+03
(PID.TID 0000.0001) %MON ad_exf_adaqh_max             =  -8.5700179600281E+05
(PID.TID 0000.0001) %MON ad_exf_adaqh_min             =  -8.5700179600281E+05
(PID.TID 0000.0001) %MON ad_exf_adaqh_mean            =  -8.5700179600281E+05
(PID.TID 0000.0001) %MON ad_exf_adaqh_sd              =   0.0000000000000E+00
(PID.TID 0000.0001) %MON ad_exf_adaqh_del2            =   2.4239671257706E+06
(PID.TID 0000.0001) %MON ad_exf_adlwflux_max          =   0.0000000000000E+00
(PID.TID 0000.0001) %MON ad_exf_adlwflux_min          =   0.0000000000000E+00
(PID.TID 0000.0001) %MON ad_exf_adlwflux_mean         =   0.0000000000000E+00
(PID.TID 0000.0001) %MON ad_exf_adlwflux_sd           =   0.0000000000000E+00
(PID.TID 0000.0001) %MON ad_exf_adlwflux_del2         =   0.0000000000000E+00
(PID.TID 0000.0001) %MON ad_exf_adprecip_max          =   0.0000000000000E+00
(PID.TID 0000.0001) %MON ad_exf_adprecip_min          =   0.0000000000000E+00
(PID.TID 0000.0001) %MON ad_exf_adprecip_mean         =   0.0000000000000E+00
(PID.TID 0000.0001) %MON ad_exf_adprecip_sd           =   0.0000000000000E+00
(PID.TID 0000.0001) %MON ad_exf_adprecip_del2         =   0.0000000000000E+00
(PID.TID 0000.0001) %MON ad_exf_adswflux_max          =   0.0000000000000E+00
(PID.TID 0000.0001) %MON ad_exf_adswflux_min          =   0.0000000000000E+00
(PID.TID 0000.0001) %MON ad_exf_adswflux_mean         =   0.0000000000000E+00
(PID.TID 0000.0001) %MON ad_exf_adswflux_sd           =   0.0000000000000E+00
(PID.TID 0000.0001) %MON ad_exf_adswflux_del2         =   0.0000000000000E+00
(PID.TID 0000.0001) %MON ad_exf_adswdown_max          =  -3.9125686665162E+01
(PID.TID 0000.0001) %MON ad_exf_adswdown_min          =  -3.9125686665162E+01
(PID.TID 0000.0001) %MON ad_exf_adswdown_mean         =  -3.9125686665162E+01
(PID.TID 0000.0001) %MON ad_exf_adswdown_sd           =   0.0000000000000E+00
(PID.TID 0000.0001) %MON ad_exf_adswdown_del2         =   1.1066415343806E+02
(PID.TID 0000.0001) %MON ad_exf_adlwdown_max          =  -5.6493762944393E+01
(PID.TID 0000.0001) %MON ad_exf_adlwdown_min          =  -5.6493762944393E+01
(PID.TID 0000.0001) %MON ad_exf_adlwdown_mean         =  -5.6493762944393E+01
(PID.TID 0000.0001) %MON ad_exf_adlwdown_sd           =   0.0000000000000E+00
(PID.TID 0000.0001) %MON ad_exf_adlwdown_del2         =   1.5978849149090E+02
(PID.TID 0000.0001) %MON ad_exf_adrunoff_max          =   0.0000000000000E+00
(PID.TID 0000.0001) %MON ad_exf_adrunoff_min          =   0.0000000000000E+00
(PID.TID 0000.0001) %MON ad_exf_adrunoff_mean         =   0.0000000000000E+00
(PID.TID 0000.0001) %MON ad_exf_adrunoff_sd           =   0.0000000000000E+00
(PID.TID 0000.0001) %MON ad_exf_adrunoff_del2         =   0.0000000000000E+00
(PID.TID 0000.0001) // =======================================================
(PID.TID 0000.0001) // End AD_MONITOR EXF statistics for iwhen =  2
(PID.TID 0000.0001) // =======================================================
(PID.TID 0000.0001) // =======================================================
(PID.TID 0000.0001) // Begin AD_MONITOR dynamic field statistics
(PID.TID 0000.0001) // =======================================================
(PID.TID 0000.0001) %MON ad_time_tsnumber             =                     9
(PID.TID 0000.0001) %MON ad_time_secondsf             =   3.2400000000000E+04
(PID.TID 0000.0001) %MON ad_dynstat_adeta_max         =   0.0000000000000E+00
(PID.TID 0000.0001) %MON ad_dynstat_adeta_min         =   0.0000000000000E+00
(PID.TID 0000.0001) %MON ad_dynstat_adeta_mean        =   0.0000000000000E+00
(PID.TID 0000.0001) %MON ad_dynstat_adeta_sd          =   0.0000000000000E+00
(PID.TID 0000.0001) %MON ad_dynstat_adeta_del2        =   0.0000000000000E+00
(PID.TID 0000.0001) %MON ad_dynstat_aduvel_max        =   0.0000000000000E+00
(PID.TID 0000.0001) %MON ad_dynstat_aduvel_min        =   0.0000000000000E+00
(PID.TID 0000.0001) %MON ad_dynstat_aduvel_mean       =   0.0000000000000E+00
(PID.TID 0000.0001) %MON ad_dynstat_aduvel_sd         =   0.0000000000000E+00
(PID.TID 0000.0001) %MON ad_dynstat_aduvel_del2       =   0.0000000000000E+00
(PID.TID 0000.0001) %MON ad_dynstat_advvel_max        =   0.0000000000000E+00
(PID.TID 0000.0001) %MON ad_dynstat_advvel_min        =   0.0000000000000E+00
(PID.TID 0000.0001) %MON ad_dynstat_advvel_mean       =   0.0000000000000E+00
(PID.TID 0000.0001) %MON ad_dynstat_advvel_sd         =   0.0000000000000E+00
(PID.TID 0000.0001) %MON ad_dynstat_advvel_del2       =   0.0000000000000E+00
(PID.TID 0000.0001) %MON ad_dynstat_adwvel_max        =   0.0000000000000E+00
(PID.TID 0000.0001) %MON ad_dynstat_adwvel_min        =   0.0000000000000E+00
(PID.TID 0000.0001) %MON ad_dynstat_adwvel_mean       =   0.0000000000000E+00
(PID.TID 0000.0001) %MON ad_dynstat_adwvel_sd         =   0.0000000000000E+00
(PID.TID 0000.0001) %MON ad_dynstat_adwvel_del2       =   0.0000000000000E+00
(PID.TID 0000.0001) %MON ad_dynstat_adtheta_max       =   0.0000000000000E+00
(PID.TID 0000.0001) %MON ad_dynstat_adtheta_min       =  -2.2453518245960E+04
(PID.TID 0000.0001) %MON ad_dynstat_adtheta_mean      =  -4.3746869512449E+02
(PID.TID 0000.0001) %MON ad_dynstat_adtheta_sd        =   3.1034388134455E+03
(PID.TID 0000.0001) %MON ad_dynstat_adtheta_del2      =   2.7612234805589E+03
(PID.TID 0000.0001) %MON ad_dynstat_adsalt_max        =   0.0000000000000E+00
(PID.TID 0000.0001) %MON ad_dynstat_adsalt_min        =   0.0000000000000E+00
(PID.TID 0000.0001) %MON ad_dynstat_adsalt_mean       =   0.0000000000000E+00
(PID.TID 0000.0001) %MON ad_dynstat_adsalt_sd         =   0.0000000000000E+00
(PID.TID 0000.0001) %MON ad_dynstat_adsalt_del2       =   0.0000000000000E+00
(PID.TID 0000.0001) %MON ad_dynstat_adsst_max         =  -2.2453518245960E+04
(PID.TID 0000.0001) %MON ad_dynstat_adsst_min         =  -2.2453518245960E+04
(PID.TID 0000.0001) %MON ad_dynstat_adsst_mean        =  -2.2453518245960E+04
(PID.TID 0000.0001) %MON ad_dynstat_adsst_sd          =   0.0000000000000E+00
(PID.TID 0000.0001) %MON ad_dynstat_adsst_del2        =   6.3508140052856E+04
(PID.TID 0000.0001) %MON ad_dynstat_adsss_max         =   0.0000000000000E+00
(PID.TID 0000.0001) %MON ad_dynstat_adsss_min         =   0.0000000000000E+00
(PID.TID 0000.0001) %MON ad_dynstat_adsss_mean        =   0.0000000000000E+00
(PID.TID 0000.0001) %MON ad_dynstat_adsss_sd          =   0.0000000000000E+00
(PID.TID 0000.0001) %MON ad_dynstat_adsss_del2        =   0.0000000000000E+00
(PID.TID 0000.0001) %MON ad_forcing_adqnet_max        =   0.0000000000000E+00
(PID.TID 0000.0001) %MON ad_forcing_adqnet_min        =   0.0000000000000E+00
(PID.TID 0000.0001) %MON ad_forcing_adqnet_mean       =   0.0000000000000E+00
(PID.TID 0000.0001) %MON ad_forcing_adqnet_sd         =   0.0000000000000E+00
(PID.TID 0000.0001) %MON ad_forcing_adqnet_del2       =   0.0000000000000E+00
(PID.TID 0000.0001) %MON ad_forcing_adqsw_max         =   0.0000000000000E+00
(PID.TID 0000.0001) %MON ad_forcing_adqsw_min         =   0.0000000000000E+00
(PID.TID 0000.0001) %MON ad_forcing_adqsw_mean        =   0.0000000000000E+00
(PID.TID 0000.0001) %MON ad_forcing_adqsw_sd          =   0.0000000000000E+00
(PID.TID 0000.0001) %MON ad_forcing_adqsw_del2        =   0.0000000000000E+00
(PID.TID 0000.0001) %MON ad_forcing_adempmr_max       =   0.0000000000000E+00
(PID.TID 0000.0001) %MON ad_forcing_adempmr_min       =   0.0000000000000E+00
(PID.TID 0000.0001) %MON ad_forcing_adempmr_mean      =   0.0000000000000E+00
(PID.TID 0000.0001) %MON ad_forcing_adempmr_sd        =   0.0000000000000E+00
(PID.TID 0000.0001) %MON ad_forcing_adempmr_del2      =   0.0000000000000E+00
(PID.TID 0000.0001) %MON ad_forcing_adfu_max          =   0.0000000000000E+00
(PID.TID 0000.0001) %MON ad_forcing_adfu_min          =   0.0000000000000E+00
(PID.TID 0000.0001) %MON ad_forcing_adfu_mean         =   0.0000000000000E+00
(PID.TID 0000.0001) %MON ad_forcing_adfu_sd           =   0.0000000000000E+00
(PID.TID 0000.0001) %MON ad_forcing_adfu_del2         =   0.0000000000000E+00
(PID.TID 0000.0001) %MON ad_forcing_adfv_max          =   0.0000000000000E+00
(PID.TID 0000.0001) %MON ad_forcing_adfv_min          =   0.0000000000000E+00
(PID.TID 0000.0001) %MON ad_forcing_adfv_mean         =   0.0000000000000E+00
(PID.TID 0000.0001) %MON ad_forcing_adfv_sd           =   0.0000000000000E+00
(PID.TID 0000.0001) %MON ad_forcing_adfv_del2         =   0.0000000000000E+00
(PID.TID 0000.0001) // =======================================================
(PID.TID 0000.0001) // End AD_MONITOR dynamic field statistics
(PID.TID 0000.0001) // =======================================================
(PID.TID 0000.0001) // =======================================================
(PID.TID 0000.0001) // Begin AD_MONITOR SEAICE statistics
(PID.TID 0000.0001) // =======================================================
(PID.TID 0000.0001) %MON ad_seaice_tsnumber           =                     9
(PID.TID 0000.0001) %MON ad_seaice_time_sec           =   3.2400000000000E+04
(PID.TID 0000.0001) %MON ad_seaice_aduice_max         =   8.1393811225845E+04
(PID.TID 0000.0001) %MON ad_seaice_aduice_min         =   8.1393811225845E+04
(PID.TID 0000.0001) %MON ad_seaice_aduice_mean        =   8.1393811225845E+04
(PID.TID 0000.0001) %MON ad_seaice_aduice_sd          =   0.0000000000000E+00
(PID.TID 0000.0001) %MON ad_seaice_aduice_del2        =   2.9346955988022E+05
(PID.TID 0000.0001) %MON ad_seaice_advice_max         =   8.1393811225845E+04
(PID.TID 0000.0001) %MON ad_seaice_advice_min         =   8.1393811225845E+04
(PID.TID 0000.0001) %MON ad_seaice_advice_mean        =   8.1393811225845E+04
(PID.TID 0000.0001) %MON ad_seaice_advice_sd          =   0.0000000000000E+00
(PID.TID 0000.0001) %MON ad_seaice_advice_del2        =   2.9346955988022E+05
(PID.TID 0000.0001) %MON ad_seaice_adarea_max         =   2.4549313808942E+06
(PID.TID 0000.0001) %MON ad_seaice_adarea_min         =   2.4549313808942E+06
(PID.TID 0000.0001) %MON ad_seaice_adarea_mean        =   2.4549313808942E+06
(PID.TID 0000.0001) %MON ad_seaice_adarea_sd          =   0.0000000000000E+00
(PID.TID 0000.0001) %MON ad_seaice_adarea_del2        =   6.9435945071117E+06
(PID.TID 0000.0001) %MON ad_seaice_adheff_max         =   1.2005171637395E+03
(PID.TID 0000.0001) %MON ad_seaice_adheff_min         =   1.2005171637395E+03
(PID.TID 0000.0001) %MON ad_seaice_adheff_mean        =   1.2005171637395E+03
(PID.TID 0000.0001) %MON ad_seaice_adheff_sd          =   0.0000000000000E+00
(PID.TID 0000.0001) %MON ad_seaice_adheff_del2        =   3.3955753096442E+03
(PID.TID 0000.0001) %MON ad_seaice_adhsnow_max        =   0.0000000000000E+00
(PID.TID 0000.0001) %MON ad_seaice_adhsnow_min        =   0.0000000000000E+00
(PID.TID 0000.0001) %MON ad_seaice_adhsnow_mean       =   0.0000000000000E+00
(PID.TID 0000.0001) %MON ad_seaice_adhsnow_sd         =   0.0000000000000E+00
(PID.TID 0000.0001) %MON ad_seaice_adhsnow_del2       =   0.0000000000000E+00
(PID.TID 0000.0001) %MON ad_seaice_adhsalt_max        =   0.0000000000000E+00
(PID.TID 0000.0001) %MON ad_seaice_adhsalt_min        =   0.0000000000000E+00
(PID.TID 0000.0001) %MON ad_seaice_adhsalt_mean       =   0.0000000000000E+00
(PID.TID 0000.0001) %MON ad_seaice_adhsalt_sd         =   0.0000000000000E+00
(PID.TID 0000.0001) %MON ad_seaice_adhsalt_del2       =   0.0000000000000E+00
(PID.TID 0000.0001) // =======================================================
(PID.TID 0000.0001) // End AD_MONITOR SEAICE statistics
(PID.TID 0000.0001) // =======================================================
 cg2d: Sum(rhs),rhsMax =  -1.00000000000000E+00  7.08798427130833E-15
(PID.TID 0000.0001) // =======================================================
(PID.TID 0000.0001) // Begin AD_MONITOR EXF statistics for iwhen =  3
(PID.TID 0000.0001) // =======================================================
(PID.TID 0000.0001) %MON ad_exf_tsnumber              =                     8
(PID.TID 0000.0001) %MON ad_exf_time_sec              =   2.8800000000000E+04
(PID.TID 0000.0001) %MON ad_exf_adfu_max              =   1.6190391883037E+04
(PID.TID 0000.0001) %MON ad_exf_adfu_min              =   1.6190391883037E+04
(PID.TID 0000.0001) %MON ad_exf_adfu_mean             =   1.6190391883037E+04
(PID.TID 0000.0001) %MON ad_exf_adfu_sd               =   0.0000000000000E+00
(PID.TID 0000.0001) %MON ad_exf_adfu_del2             =   3.6198481006754E+04
(PID.TID 0000.0001) %MON ad_exf_adfv_max              =   1.6190391883037E+04
(PID.TID 0000.0001) %MON ad_exf_adfv_min              =   1.6190391883037E+04
(PID.TID 0000.0001) %MON ad_exf_adfv_mean             =   1.6190391883037E+04
(PID.TID 0000.0001) %MON ad_exf_adfv_sd               =   0.0000000000000E+00
(PID.TID 0000.0001) %MON ad_exf_adfv_del2             =   3.6198481006754E+04
(PID.TID 0000.0001) %MON ad_exf_adqnet_max            =  -5.4154925865615E-01
(PID.TID 0000.0001) %MON ad_exf_adqnet_min            =  -5.4154925865615E-01
(PID.TID 0000.0001) %MON ad_exf_adqnet_mean           =  -5.4154925865615E-01
(PID.TID 0000.0001) %MON ad_exf_adqnet_sd             =   0.0000000000000E+00
(PID.TID 0000.0001) %MON ad_exf_adqnet_del2           =   1.5317326125693E+00
(PID.TID 0000.0001) %MON ad_exf_adempmr_max           =  -1.1946658261089E+07
(PID.TID 0000.0001) %MON ad_exf_adempmr_min           =  -1.1946658261089E+07
(PID.TID 0000.0001) %MON ad_exf_adempmr_mean          =  -1.1946658261089E+07
(PID.TID 0000.0001) %MON ad_exf_adempmr_sd            =   0.0000000000000E+00
(PID.TID 0000.0001) %MON ad_exf_adempmr_del2          =   3.3790252275736E+07
(PID.TID 0000.0001) // =======================================================
(PID.TID 0000.0001) // End AD_MONITOR EXF statistics for iwhen =  3
(PID.TID 0000.0001) // =======================================================
(PID.TID 0000.0001) // =======================================================
(PID.TID 0000.0001) // Begin AD_MONITOR EXF statistics for iwhen =  1
(PID.TID 0000.0001) // =======================================================
(PID.TID 0000.0001) %MON ad_exf_tsnumber              =                     8
(PID.TID 0000.0001) %MON ad_exf_time_sec              =   2.8800000000000E+04
(PID.TID 0000.0001) %MON ad_exf_adustress_max         =   1.5530342508578E+04
(PID.TID 0000.0001) %MON ad_exf_adustress_min         =   1.5530342508578E+04
(PID.TID 0000.0001) %MON ad_exf_adustress_mean        =   1.5530342508578E+04
(PID.TID 0000.0001) %MON ad_exf_adustress_sd          =   0.0000000000000E+00
(PID.TID 0000.0001) %MON ad_exf_adustress_del2        =   3.4726901563036E+04
(PID.TID 0000.0001) %MON ad_exf_advstress_max         =   1.5530342508578E+04
(PID.TID 0000.0001) %MON ad_exf_advstress_min         =   1.5530342508578E+04
(PID.TID 0000.0001) %MON ad_exf_advstress_mean        =   1.5530342508578E+04
(PID.TID 0000.0001) %MON ad_exf_advstress_sd          =   0.0000000000000E+00
(PID.TID 0000.0001) %MON ad_exf_advstress_del2        =   3.4726901563036E+04
(PID.TID 0000.0001) %MON ad_exf_adhflux_max           =   0.0000000000000E+00
(PID.TID 0000.0001) %MON ad_exf_adhflux_min           =   0.0000000000000E+00
(PID.TID 0000.0001) %MON ad_exf_adhflux_mean          =   0.0000000000000E+00
(PID.TID 0000.0001) %MON ad_exf_adhflux_sd            =   0.0000000000000E+00
(PID.TID 0000.0001) %MON ad_exf_adhflux_del2          =   0.0000000000000E+00
(PID.TID 0000.0001) %MON ad_exf_adsflux_max           =   0.0000000000000E+00
(PID.TID 0000.0001) %MON ad_exf_adsflux_min           =   0.0000000000000E+00
(PID.TID 0000.0001) %MON ad_exf_adsflux_mean          =   0.0000000000000E+00
(PID.TID 0000.0001) %MON ad_exf_adsflux_sd            =   0.0000000000000E+00
(PID.TID 0000.0001) %MON ad_exf_adsflux_del2          =   0.0000000000000E+00
(PID.TID 0000.0001) %MON ad_exf_adwspeed_max          =  -2.5143607085507E+01
(PID.TID 0000.0001) %MON ad_exf_adwspeed_min          =  -2.5143607085507E+01
(PID.TID 0000.0001) %MON ad_exf_adwspeed_mean         =  -2.5143607085507E+01
(PID.TID 0000.0001) %MON ad_exf_adwspeed_sd           =   0.0000000000000E+00
(PID.TID 0000.0001) %MON ad_exf_adwspeed_del2         =   7.1116860294609E+01
(PID.TID 0000.0001) // =======================================================
(PID.TID 0000.0001) // End AD_MONITOR EXF statistics for iwhen =  1
(PID.TID 0000.0001) // =======================================================
(PID.TID 0000.0001) // =======================================================
(PID.TID 0000.0001) // Begin AD_MONITOR EXF statistics for iwhen =  2
(PID.TID 0000.0001) // =======================================================
(PID.TID 0000.0001) %MON ad_exf_tsnumber              =                     8
(PID.TID 0000.0001) %MON ad_exf_time_sec              =   2.8800000000000E+04
(PID.TID 0000.0001) %MON ad_exf_aduwind_max           =   2.0340808101836E+03
(PID.TID 0000.0001) %MON ad_exf_aduwind_min           =   2.0340808101836E+03
(PID.TID 0000.0001) %MON ad_exf_aduwind_mean          =   2.0340808101836E+03
(PID.TID 0000.0001) %MON ad_exf_aduwind_sd            =   0.0000000000000E+00
(PID.TID 0000.0001) %MON ad_exf_aduwind_del2          =   5.7532493374490E+03
(PID.TID 0000.0001) %MON ad_exf_advwind_max           =   2.0340808101836E+03
(PID.TID 0000.0001) %MON ad_exf_advwind_min           =   2.0340808101836E+03
(PID.TID 0000.0001) %MON ad_exf_advwind_mean          =   2.0340808101836E+03
(PID.TID 0000.0001) %MON ad_exf_advwind_sd            =   0.0000000000000E+00
(PID.TID 0000.0001) %MON ad_exf_advwind_del2          =   5.7532493374490E+03
(PID.TID 0000.0001) %MON ad_exf_adatemp_max           =  -6.3155901248215E+02
(PID.TID 0000.0001) %MON ad_exf_adatemp_min           =  -6.3155901248215E+02
(PID.TID 0000.0001) %MON ad_exf_adatemp_mean          =  -6.3155901248215E+02
(PID.TID 0000.0001) %MON ad_exf_adatemp_sd            =   0.0000000000000E+00
(PID.TID 0000.0001) %MON ad_exf_adatemp_del2          =   1.7863186417824E+03
(PID.TID 0000.0001) %MON ad_exf_adaqh_max             =  -2.1262618347247E+06
(PID.TID 0000.0001) %MON ad_exf_adaqh_min             =  -2.1262618347247E+06
(PID.TID 0000.0001) %MON ad_exf_adaqh_mean            =  -2.1262618347247E+06
(PID.TID 0000.0001) %MON ad_exf_adaqh_sd              =   0.0000000000000E+00
(PID.TID 0000.0001) %MON ad_exf_adaqh_del2            =   6.0139766476480E+06
(PID.TID 0000.0001) %MON ad_exf_adlwflux_max          =   0.0000000000000E+00
(PID.TID 0000.0001) %MON ad_exf_adlwflux_min          =   0.0000000000000E+00
(PID.TID 0000.0001) %MON ad_exf_adlwflux_mean         =   0.0000000000000E+00
(PID.TID 0000.0001) %MON ad_exf_adlwflux_sd           =   0.0000000000000E+00
(PID.TID 0000.0001) %MON ad_exf_adlwflux_del2         =   0.0000000000000E+00
(PID.TID 0000.0001) %MON ad_exf_adprecip_max          =   1.1453895100769E+10
(PID.TID 0000.0001) %MON ad_exf_adprecip_min          =   1.1453895100769E+10
(PID.TID 0000.0001) %MON ad_exf_adprecip_mean         =   1.1453895100769E+10
(PID.TID 0000.0001) %MON ad_exf_adprecip_sd           =   0.0000000000000E+00
(PID.TID 0000.0001) %MON ad_exf_adprecip_del2         =   3.2396507587013E+10
(PID.TID 0000.0001) %MON ad_exf_adswflux_max          =   0.0000000000000E+00
(PID.TID 0000.0001) %MON ad_exf_adswflux_min          =   0.0000000000000E+00
(PID.TID 0000.0001) %MON ad_exf_adswflux_mean         =   0.0000000000000E+00
(PID.TID 0000.0001) %MON ad_exf_adswflux_sd           =   0.0000000000000E+00
(PID.TID 0000.0001) %MON ad_exf_adswflux_del2         =   0.0000000000000E+00
(PID.TID 0000.0001) %MON ad_exf_adswdown_max          =  -6.0994139709297E+01
(PID.TID 0000.0001) %MON ad_exf_adswdown_min          =  -6.0994139709297E+01
(PID.TID 0000.0001) %MON ad_exf_adswdown_mean         =  -6.0994139709297E+01
(PID.TID 0000.0001) %MON ad_exf_adswdown_sd           =   0.0000000000000E+00
(PID.TID 0000.0001) %MON ad_exf_adswdown_del2         =   1.7251747920433E+02
(PID.TID 0000.0001) %MON ad_exf_adlwdown_max          =  -8.7865404664508E+01
(PID.TID 0000.0001) %MON ad_exf_adlwdown_min          =  -8.7865404664508E+01
(PID.TID 0000.0001) %MON ad_exf_adlwdown_mean         =  -8.7865404664508E+01
(PID.TID 0000.0001) %MON ad_exf_adlwdown_sd           =   0.0000000000000E+00
(PID.TID 0000.0001) %MON ad_exf_adlwdown_del2         =   2.4852089387989E+02
(PID.TID 0000.0001) %MON ad_exf_adrunoff_max          =   1.1944268929436E+10
(PID.TID 0000.0001) %MON ad_exf_adrunoff_min          =   1.1944268929436E+10
(PID.TID 0000.0001) %MON ad_exf_adrunoff_mean         =   1.1944268929436E+10
(PID.TID 0000.0001) %MON ad_exf_adrunoff_sd           =   0.0000000000000E+00
(PID.TID 0000.0001) %MON ad_exf_adrunoff_del2         =   3.3783494225281E+10
(PID.TID 0000.0001) // =======================================================
(PID.TID 0000.0001) // End AD_MONITOR EXF statistics for iwhen =  2
(PID.TID 0000.0001) // =======================================================
(PID.TID 0000.0001) // =======================================================
(PID.TID 0000.0001) // Begin AD_MONITOR dynamic field statistics
(PID.TID 0000.0001) // =======================================================
(PID.TID 0000.0001) %MON ad_time_tsnumber             =                     8
(PID.TID 0000.0001) %MON ad_time_secondsf             =   2.8800000000000E+04
(PID.TID 0000.0001) %MON ad_dynstat_adeta_max         =  -3.5708944778922E-11
(PID.TID 0000.0001) %MON ad_dynstat_adeta_min         =  -3.5708944778922E-11
(PID.TID 0000.0001) %MON ad_dynstat_adeta_mean        =  -3.5708944778922E-11
(PID.TID 0000.0001) %MON ad_dynstat_adeta_sd          =   0.0000000000000E+00
(PID.TID 0000.0001) %MON ad_dynstat_adeta_del2        =   1.0100014800877E-10
(PID.TID 0000.0001) %MON ad_dynstat_aduvel_max        =   1.2886886195604E+03
(PID.TID 0000.0001) %MON ad_dynstat_aduvel_min        =  -1.6673938621253E+03
(PID.TID 0000.0001) %MON ad_dynstat_aduvel_mean       =  -9.5388861679086E-13
(PID.TID 0000.0001) %MON ad_dynstat_aduvel_sd         =   2.9886125791471E+02
(PID.TID 0000.0001) %MON ad_dynstat_aduvel_del2       =   2.6330280599123E+02
(PID.TID 0000.0001) %MON ad_dynstat_advvel_max        =   4.8202897393049E+02
(PID.TID 0000.0001) %MON ad_dynstat_advvel_min        =  -5.1613886871417E+02
(PID.TID 0000.0001) %MON ad_dynstat_advvel_mean       =   1.6345755539445E-12
(PID.TID 0000.0001) %MON ad_dynstat_advvel_sd         =   9.8691389809635E+01
(PID.TID 0000.0001) %MON ad_dynstat_advvel_del2       =   8.6949108242953E+01
(PID.TID 0000.0001) %MON ad_dynstat_adwvel_max        =   0.0000000000000E+00
(PID.TID 0000.0001) %MON ad_dynstat_adwvel_min        =   0.0000000000000E+00
(PID.TID 0000.0001) %MON ad_dynstat_adwvel_mean       =   0.0000000000000E+00
(PID.TID 0000.0001) %MON ad_dynstat_adwvel_sd         =   0.0000000000000E+00
(PID.TID 0000.0001) %MON ad_dynstat_adwvel_del2       =   0.0000000000000E+00
(PID.TID 0000.0001) %MON ad_dynstat_adtheta_max       =   3.0552933505177E+04
(PID.TID 0000.0001) %MON ad_dynstat_adtheta_min       =  -5.7660942961395E+03
(PID.TID 0000.0001) %MON ad_dynstat_adtheta_mean      =   4.0780387617784E+02
(PID.TID 0000.0001) %MON ad_dynstat_adtheta_sd        =   4.3388334908566E+03
(PID.TID 0000.0001) %MON ad_dynstat_adtheta_del2      =   3.8394472339694E+03
(PID.TID 0000.0001) %MON ad_dynstat_adsalt_max        =   7.3755742117357E+04
(PID.TID 0000.0001) %MON ad_dynstat_adsalt_min        =  -9.8884469720699E+04
(PID.TID 0000.0001) %MON ad_dynstat_adsalt_mean       =  -4.7744423886497E+00
(PID.TID 0000.0001) %MON ad_dynstat_adsalt_sd         =   1.7552987164029E+04
(PID.TID 0000.0001) %MON ad_dynstat_adsalt_del2       =   1.5464536879202E+04
(PID.TID 0000.0001) %MON ad_dynstat_adsst_max         =   3.0552933505177E+04
(PID.TID 0000.0001) %MON ad_dynstat_adsst_min         =   3.0552933505177E+04
(PID.TID 0000.0001) %MON ad_dynstat_adsst_mean        =   3.0552933505177E+04
(PID.TID 0000.0001) %MON ad_dynstat_adsst_sd          =   0.0000000000000E+00
(PID.TID 0000.0001) %MON ad_dynstat_adsst_del2        =   8.6416745866608E+04
(PID.TID 0000.0001) %MON ad_dynstat_adsss_max         =  -9.8884469720699E+04
(PID.TID 0000.0001) %MON ad_dynstat_adsss_min         =  -9.8884469720699E+04
(PID.TID 0000.0001) %MON ad_dynstat_adsss_mean        =  -9.8884469720699E+04
(PID.TID 0000.0001) %MON ad_dynstat_adsss_sd          =   0.0000000000000E+00
(PID.TID 0000.0001) %MON ad_dynstat_adsss_del2        =   2.7968751637417E+05
(PID.TID 0000.0001) %MON ad_forcing_adqnet_max        =   0.0000000000000E+00
(PID.TID 0000.0001) %MON ad_forcing_adqnet_min        =   0.0000000000000E+00
(PID.TID 0000.0001) %MON ad_forcing_adqnet_mean       =   0.0000000000000E+00
(PID.TID 0000.0001) %MON ad_forcing_adqnet_sd         =   0.0000000000000E+00
(PID.TID 0000.0001) %MON ad_forcing_adqnet_del2       =   0.0000000000000E+00
(PID.TID 0000.0001) %MON ad_forcing_adqsw_max         =   0.0000000000000E+00
(PID.TID 0000.0001) %MON ad_forcing_adqsw_min         =   0.0000000000000E+00
(PID.TID 0000.0001) %MON ad_forcing_adqsw_mean        =   0.0000000000000E+00
(PID.TID 0000.0001) %MON ad_forcing_adqsw_sd          =   0.0000000000000E+00
(PID.TID 0000.0001) %MON ad_forcing_adqsw_del2        =   0.0000000000000E+00
(PID.TID 0000.0001) %MON ad_forcing_adempmr_max       =   0.0000000000000E+00
(PID.TID 0000.0001) %MON ad_forcing_adempmr_min       =   0.0000000000000E+00
(PID.TID 0000.0001) %MON ad_forcing_adempmr_mean      =   0.0000000000000E+00
(PID.TID 0000.0001) %MON ad_forcing_adempmr_sd        =   0.0000000000000E+00
(PID.TID 0000.0001) %MON ad_forcing_adempmr_del2      =   0.0000000000000E+00
(PID.TID 0000.0001) %MON ad_forcing_adfu_max          =   0.0000000000000E+00
(PID.TID 0000.0001) %MON ad_forcing_adfu_min          =   0.0000000000000E+00
(PID.TID 0000.0001) %MON ad_forcing_adfu_mean         =   0.0000000000000E+00
(PID.TID 0000.0001) %MON ad_forcing_adfu_sd           =   0.0000000000000E+00
(PID.TID 0000.0001) %MON ad_forcing_adfu_del2         =   0.0000000000000E+00
(PID.TID 0000.0001) %MON ad_forcing_adfv_max          =   0.0000000000000E+00
(PID.TID 0000.0001) %MON ad_forcing_adfv_min          =   0.0000000000000E+00
(PID.TID 0000.0001) %MON ad_forcing_adfv_mean         =   0.0000000000000E+00
(PID.TID 0000.0001) %MON ad_forcing_adfv_sd           =   0.0000000000000E+00
(PID.TID 0000.0001) %MON ad_forcing_adfv_del2         =   0.0000000000000E+00
(PID.TID 0000.0001) // =======================================================
(PID.TID 0000.0001) // End AD_MONITOR dynamic field statistics
(PID.TID 0000.0001) // =======================================================
(PID.TID 0000.0001) // =======================================================
(PID.TID 0000.0001) // Begin AD_MONITOR SEAICE statistics
(PID.TID 0000.0001) // =======================================================
(PID.TID 0000.0001) %MON ad_seaice_tsnumber           =                     8
(PID.TID 0000.0001) %MON ad_seaice_time_sec           =   2.8800000000000E+04
(PID.TID 0000.0001) %MON ad_seaice_aduice_max         =   2.2525235272581E+05
(PID.TID 0000.0001) %MON ad_seaice_aduice_min         =   2.2525235272581E+05
(PID.TID 0000.0001) %MON ad_seaice_aduice_mean        =   2.2525235272581E+05
(PID.TID 0000.0001) %MON ad_seaice_aduice_sd          =   0.0000000000000E+00
(PID.TID 0000.0001) %MON ad_seaice_aduice_del2        =   8.1215890767180E+05
(PID.TID 0000.0001) %MON ad_seaice_advice_max         =   2.2525235272581E+05
(PID.TID 0000.0001) %MON ad_seaice_advice_min         =   2.2525235272581E+05
(PID.TID 0000.0001) %MON ad_seaice_advice_mean        =   2.2525235272581E+05
(PID.TID 0000.0001) %MON ad_seaice_advice_sd          =   0.0000000000000E+00
(PID.TID 0000.0001) %MON ad_seaice_advice_del2        =   8.1215890767180E+05
(PID.TID 0000.0001) %MON ad_seaice_adarea_max         =   4.8657147288136E+06
(PID.TID 0000.0001) %MON ad_seaice_adarea_min         =   4.8657147288136E+06
(PID.TID 0000.0001) %MON ad_seaice_adarea_mean        =   4.8657147288136E+06
(PID.TID 0000.0001) %MON ad_seaice_adarea_sd          =   0.0000000000000E+00
(PID.TID 0000.0001) %MON ad_seaice_adarea_del2        =   1.3762455838190E+07
(PID.TID 0000.0001) %MON ad_seaice_adheff_max         =   4.1999807608326E+03
(PID.TID 0000.0001) %MON ad_seaice_adheff_min         =   4.1999807608326E+03
(PID.TID 0000.0001) %MON ad_seaice_adheff_mean        =   4.1999807608326E+03
(PID.TID 0000.0001) %MON ad_seaice_adheff_sd          =   0.0000000000000E+00
(PID.TID 0000.0001) %MON ad_seaice_adheff_del2        =   1.1879339507351E+04
(PID.TID 0000.0001) %MON ad_seaice_adhsnow_max        =   1.6131425968155E+04
(PID.TID 0000.0001) %MON ad_seaice_adhsnow_min        =   1.6131425968155E+04
(PID.TID 0000.0001) %MON ad_seaice_adhsnow_mean       =   1.6131425968155E+04
(PID.TID 0000.0001) %MON ad_seaice_adhsnow_sd         =   0.0000000000000E+00
(PID.TID 0000.0001) %MON ad_seaice_adhsnow_del2       =   4.5626562769165E+04
(PID.TID 0000.0001) %MON ad_seaice_adhsalt_max        =   0.0000000000000E+00
(PID.TID 0000.0001) %MON ad_seaice_adhsalt_min        =   0.0000000000000E+00
(PID.TID 0000.0001) %MON ad_seaice_adhsalt_mean       =   0.0000000000000E+00
(PID.TID 0000.0001) %MON ad_seaice_adhsalt_sd         =   0.0000000000000E+00
(PID.TID 0000.0001) %MON ad_seaice_adhsalt_del2       =   0.0000000000000E+00
(PID.TID 0000.0001) // =======================================================
(PID.TID 0000.0001) // End AD_MONITOR SEAICE statistics
(PID.TID 0000.0001) // =======================================================
 cg2d: Sum(rhs),rhsMax =  -1.00000000000000E+00  4.53630993363733E-13
(PID.TID 0000.0001) // =======================================================
(PID.TID 0000.0001) // Begin AD_MONITOR EXF statistics for iwhen =  3
(PID.TID 0000.0001) // =======================================================
(PID.TID 0000.0001) %MON ad_exf_tsnumber              =                     7
(PID.TID 0000.0001) %MON ad_exf_time_sec              =   2.5200000000000E+04
(PID.TID 0000.0001) %MON ad_exf_adfu_max              =   9.8289409771370E+03
(PID.TID 0000.0001) %MON ad_exf_adfu_min              =   9.8289409771370E+03
(PID.TID 0000.0001) %MON ad_exf_adfu_mean             =   9.8289409771370E+03
(PID.TID 0000.0001) %MON ad_exf_adfu_sd               =   0.0000000000000E+00
(PID.TID 0000.0001) %MON ad_exf_adfu_del2             =   2.1684659321995E+04
(PID.TID 0000.0001) %MON ad_exf_adfv_max              =   1.0711755443227E+04
(PID.TID 0000.0001) %MON ad_exf_adfv_min              =   1.0711755443227E+04
(PID.TID 0000.0001) %MON ad_exf_adfv_mean             =   1.0711755443227E+04
(PID.TID 0000.0001) %MON ad_exf_adfv_sd               =   0.0000000000000E+00
(PID.TID 0000.0001) %MON ad_exf_adfv_del2             =   2.4045806982554E+04
(PID.TID 0000.0001) %MON ad_exf_adqnet_max            =  -7.9131605879342E-01
(PID.TID 0000.0001) %MON ad_exf_adqnet_min            =  -7.9131605879342E-01
(PID.TID 0000.0001) %MON ad_exf_adqnet_mean           =  -7.9131605879342E-01
(PID.TID 0000.0001) %MON ad_exf_adqnet_sd             =   1.1102230246252E-16
(PID.TID 0000.0001) %MON ad_exf_adqnet_del2           =   2.2381798049386E+00
(PID.TID 0000.0001) %MON ad_exf_adempmr_max           =  -7.5780366162972E+06
(PID.TID 0000.0001) %MON ad_exf_adempmr_min           =  -7.5780366162972E+06
(PID.TID 0000.0001) %MON ad_exf_adempmr_mean          =  -7.5780366162972E+06
(PID.TID 0000.0001) %MON ad_exf_adempmr_sd            =   0.0000000000000E+00
(PID.TID 0000.0001) %MON ad_exf_adempmr_del2          =   2.1433924317855E+07
(PID.TID 0000.0001) // =======================================================
(PID.TID 0000.0001) // End AD_MONITOR EXF statistics for iwhen =  3
(PID.TID 0000.0001) // =======================================================
(PID.TID 0000.0001) // =======================================================
(PID.TID 0000.0001) // Begin AD_MONITOR EXF statistics for iwhen =  1
(PID.TID 0000.0001) // =======================================================
(PID.TID 0000.0001) %MON ad_exf_tsnumber              =                     7
(PID.TID 0000.0001) %MON ad_exf_time_sec              =   2.5200000000000E+04
(PID.TID 0000.0001) %MON ad_exf_adustress_max         =   9.8009424333855E+03
(PID.TID 0000.0001) %MON ad_exf_adustress_min         =   9.8009424333855E+03
(PID.TID 0000.0001) %MON ad_exf_adustress_mean        =   9.8009424333855E+03
(PID.TID 0000.0001) %MON ad_exf_adustress_sd          =   0.0000000000000E+00
(PID.TID 0000.0001) %MON ad_exf_adustress_del2        =   2.1915573524612E+04
(PID.TID 0000.0001) %MON ad_exf_advstress_max         =   1.0226477558038E+04
(PID.TID 0000.0001) %MON ad_exf_advstress_min         =   1.0226477558038E+04
(PID.TID 0000.0001) %MON ad_exf_advstress_mean        =   1.0226477558038E+04
(PID.TID 0000.0001) %MON ad_exf_advstress_sd          =   1.8189894035459E-12
(PID.TID 0000.0001) %MON ad_exf_advstress_del2        =   2.2867098990148E+04
(PID.TID 0000.0001) %MON ad_exf_adhflux_max           =   0.0000000000000E+00
(PID.TID 0000.0001) %MON ad_exf_adhflux_min           =   0.0000000000000E+00
(PID.TID 0000.0001) %MON ad_exf_adhflux_mean          =   0.0000000000000E+00
(PID.TID 0000.0001) %MON ad_exf_adhflux_sd            =   0.0000000000000E+00
(PID.TID 0000.0001) %MON ad_exf_adhflux_del2          =   0.0000000000000E+00
(PID.TID 0000.0001) %MON ad_exf_adsflux_max           =   0.0000000000000E+00
(PID.TID 0000.0001) %MON ad_exf_adsflux_min           =   0.0000000000000E+00
(PID.TID 0000.0001) %MON ad_exf_adsflux_mean          =   0.0000000000000E+00
(PID.TID 0000.0001) %MON ad_exf_adsflux_sd            =   0.0000000000000E+00
(PID.TID 0000.0001) %MON ad_exf_adsflux_del2          =   0.0000000000000E+00
(PID.TID 0000.0001) %MON ad_exf_adwspeed_max          =  -1.4022751011687E+01
(PID.TID 0000.0001) %MON ad_exf_adwspeed_min          =  -1.4022751011687E+01
(PID.TID 0000.0001) %MON ad_exf_adwspeed_mean         =  -1.4022751011687E+01
(PID.TID 0000.0001) %MON ad_exf_adwspeed_sd           =   0.0000000000000E+00
(PID.TID 0000.0001) %MON ad_exf_adwspeed_del2         =   3.9662329325019E+01
(PID.TID 0000.0001) // =======================================================
(PID.TID 0000.0001) // End AD_MONITOR EXF statistics for iwhen =  1
(PID.TID 0000.0001) // =======================================================
(PID.TID 0000.0001) // =======================================================
(PID.TID 0000.0001) // Begin AD_MONITOR EXF statistics for iwhen =  2
(PID.TID 0000.0001) // =======================================================
(PID.TID 0000.0001) %MON ad_exf_tsnumber              =                     7
(PID.TID 0000.0001) %MON ad_exf_time_sec              =   2.5200000000000E+04
(PID.TID 0000.0001) %MON ad_exf_aduwind_max           =   3.3878057233318E+03
(PID.TID 0000.0001) %MON ad_exf_aduwind_min           =   3.3878057233318E+03
(PID.TID 0000.0001) %MON ad_exf_aduwind_mean          =   3.3878057233318E+03
(PID.TID 0000.0001) %MON ad_exf_aduwind_sd            =   0.0000000000000E+00
(PID.TID 0000.0001) %MON ad_exf_aduwind_del2          =   9.5821616012421E+03
(PID.TID 0000.0001) %MON ad_exf_advwind_max           =   3.3928712406370E+03
(PID.TID 0000.0001) %MON ad_exf_advwind_min           =   3.3928712406370E+03
(PID.TID 0000.0001) %MON ad_exf_advwind_mean          =   3.3928712406370E+03
(PID.TID 0000.0001) %MON ad_exf_advwind_sd            =   0.0000000000000E+00
(PID.TID 0000.0001) %MON ad_exf_advwind_del2          =   9.5964890477890E+03
(PID.TID 0000.0001) %MON ad_exf_adatemp_max           =  -1.0930533873237E+03
(PID.TID 0000.0001) %MON ad_exf_adatemp_min           =  -1.0930533873237E+03
(PID.TID 0000.0001) %MON ad_exf_adatemp_mean          =  -1.0930533873237E+03
(PID.TID 0000.0001) %MON ad_exf_adatemp_sd            =   0.0000000000000E+00
(PID.TID 0000.0001) %MON ad_exf_adatemp_del2          =   3.0916218495021E+03
(PID.TID 0000.0001) %MON ad_exf_adaqh_max             =  -4.3996518960063E+06
(PID.TID 0000.0001) %MON ad_exf_adaqh_min             =  -4.3996518960063E+06
(PID.TID 0000.0001) %MON ad_exf_adaqh_mean            =  -4.3996518960063E+06
(PID.TID 0000.0001) %MON ad_exf_adaqh_sd              =   0.0000000000000E+00
(PID.TID 0000.0001) %MON ad_exf_adaqh_del2            =   1.2444094762105E+07
(PID.TID 0000.0001) %MON ad_exf_adlwflux_max          =   0.0000000000000E+00
(PID.TID 0000.0001) %MON ad_exf_adlwflux_min          =   0.0000000000000E+00
(PID.TID 0000.0001) %MON ad_exf_adlwflux_mean         =   0.0000000000000E+00
(PID.TID 0000.0001) %MON ad_exf_adlwflux_sd           =   0.0000000000000E+00
(PID.TID 0000.0001) %MON ad_exf_adlwflux_del2         =   0.0000000000000E+00
(PID.TID 0000.0001) %MON ad_exf_adprecip_max          =   1.8764306377687E+10
(PID.TID 0000.0001) %MON ad_exf_adprecip_min          =   1.8764306377687E+10
(PID.TID 0000.0001) %MON ad_exf_adprecip_mean         =   1.8764306377687E+10
(PID.TID 0000.0001) %MON ad_exf_adprecip_sd           =   0.0000000000000E+00
(PID.TID 0000.0001) %MON ad_exf_adprecip_del2         =   5.3073473135698E+10
(PID.TID 0000.0001) %MON ad_exf_adswflux_max          =   0.0000000000000E+00
(PID.TID 0000.0001) %MON ad_exf_adswflux_min          =   0.0000000000000E+00
(PID.TID 0000.0001) %MON ad_exf_adswflux_mean         =   0.0000000000000E+00
(PID.TID 0000.0001) %MON ad_exf_adswflux_sd           =   0.0000000000000E+00
(PID.TID 0000.0001) %MON ad_exf_adswflux_del2         =   0.0000000000000E+00
(PID.TID 0000.0001) %MON ad_exf_adswdown_max          =  -1.0592437309458E+02
(PID.TID 0000.0001) %MON ad_exf_adswdown_min          =  -1.0592437309458E+02
(PID.TID 0000.0001) %MON ad_exf_adswdown_mean         =  -1.0592437309458E+02
(PID.TID 0000.0001) %MON ad_exf_adswdown_sd           =   0.0000000000000E+00
(PID.TID 0000.0001) %MON ad_exf_adswdown_del2         =   2.9959937003245E+02
(PID.TID 0000.0001) %MON ad_exf_adlwdown_max          =  -1.5255649884301E+02
(PID.TID 0000.0001) %MON ad_exf_adlwdown_min          =  -1.5255649884301E+02
(PID.TID 0000.0001) %MON ad_exf_adlwdown_mean         =  -1.5255649884301E+02
(PID.TID 0000.0001) %MON ad_exf_adlwdown_sd           =   0.0000000000000E+00
(PID.TID 0000.0001) %MON ad_exf_adlwdown_del2         =   4.3149493938388E+02
(PID.TID 0000.0001) %MON ad_exf_adrunoff_max          =   1.9520789938410E+10
(PID.TID 0000.0001) %MON ad_exf_adrunoff_min          =   1.9520789938410E+10
(PID.TID 0000.0001) %MON ad_exf_adrunoff_mean         =   1.9520789938410E+10
(PID.TID 0000.0001) %MON ad_exf_adrunoff_sd           =   0.0000000000000E+00
(PID.TID 0000.0001) %MON ad_exf_adrunoff_del2         =   5.5213131758272E+10
(PID.TID 0000.0001) // =======================================================
(PID.TID 0000.0001) // End AD_MONITOR EXF statistics for iwhen =  2
(PID.TID 0000.0001) // =======================================================
(PID.TID 0000.0001) // =======================================================
(PID.TID 0000.0001) // Begin AD_MONITOR dynamic field statistics
(PID.TID 0000.0001) // =======================================================
(PID.TID 0000.0001) %MON ad_time_tsnumber             =                     7
(PID.TID 0000.0001) %MON ad_time_secondsf             =   2.5200000000000E+04
(PID.TID 0000.0001) %MON ad_dynstat_adeta_max         =  -2.2853724658510E-09
(PID.TID 0000.0001) %MON ad_dynstat_adeta_min         =  -2.2853724658510E-09
(PID.TID 0000.0001) %MON ad_dynstat_adeta_mean        =  -2.2853724658510E-09
(PID.TID 0000.0001) %MON ad_dynstat_adeta_sd          =   0.0000000000000E+00
(PID.TID 0000.0001) %MON ad_dynstat_adeta_del2        =   6.4640094725612E-09
(PID.TID 0000.0001) %MON ad_dynstat_aduvel_max        =   2.4952912580820E+03
(PID.TID 0000.0001) %MON ad_dynstat_aduvel_min        =  -2.9404371608786E+03
(PID.TID 0000.0001) %MON ad_dynstat_aduvel_mean       =   1.5700305713169E-11
(PID.TID 0000.0001) %MON ad_dynstat_aduvel_sd         =   5.5132361722650E+02
(PID.TID 0000.0001) %MON ad_dynstat_aduvel_del2       =   4.8572724493584E+02
(PID.TID 0000.0001) %MON ad_dynstat_advvel_max        =   2.5450383958293E+02
(PID.TID 0000.0001) %MON ad_dynstat_advvel_min        =  -1.7333513683060E+02
(PID.TID 0000.0001) %MON ad_dynstat_advvel_mean       =  -5.8598589724471E-11
(PID.TID 0000.0001) %MON ad_dynstat_advvel_sd         =   4.3873018231195E+01
(PID.TID 0000.0001) %MON ad_dynstat_advvel_del2       =   3.8653015409828E+01
(PID.TID 0000.0001) %MON ad_dynstat_adwvel_max        =   1.1420103076554E+03
(PID.TID 0000.0001) %MON ad_dynstat_adwvel_min        =  -1.1890335316758E+03
(PID.TID 0000.0001) %MON ad_dynstat_adwvel_mean       =  -1.9972369837026E+00
(PID.TID 0000.0001) %MON ad_dynstat_adwvel_sd         =   2.3893276558936E+02
(PID.TID 0000.0001) %MON ad_dynstat_adwvel_del2       =   2.0303975671512E+02
(PID.TID 0000.0001) %MON ad_dynstat_adtheta_max       =   1.8411179887686E+04
(PID.TID 0000.0001) %MON ad_dynstat_adtheta_min       =  -2.2143430486506E+03
(PID.TID 0000.0001) %MON ad_dynstat_adtheta_mean      =   3.9978496065212E+02
(PID.TID 0000.0001) %MON ad_dynstat_adtheta_sd        =   2.6302318536828E+03
(PID.TID 0000.0001) %MON ad_dynstat_adtheta_del2      =   2.3439024847527E+03
(PID.TID 0000.0001) %MON ad_dynstat_adsalt_max        =   1.1925875967281E+05
(PID.TID 0000.0001) %MON ad_dynstat_adsalt_min        =  -1.5094294282895E+05
(PID.TID 0000.0001) %MON ad_dynstat_adsalt_mean       =  -8.0759025085898E+00
(PID.TID 0000.0001) %MON ad_dynstat_adsalt_sd         =   2.7842260928858E+04
(PID.TID 0000.0001) %MON ad_dynstat_adsalt_del2       =   2.4529595395709E+04
(PID.TID 0000.0001) %MON ad_dynstat_adsst_max         =   1.8411179887686E+04
(PID.TID 0000.0001) %MON ad_dynstat_adsst_min         =   1.8411179887686E+04
(PID.TID 0000.0001) %MON ad_dynstat_adsst_mean        =   1.8411179887686E+04
(PID.TID 0000.0001) %MON ad_dynstat_adsst_sd          =   0.0000000000000E+00
(PID.TID 0000.0001) %MON ad_dynstat_adsst_del2        =   5.2074680592914E+04
(PID.TID 0000.0001) %MON ad_dynstat_adsss_max         =  -1.5094294282895E+05
(PID.TID 0000.0001) %MON ad_dynstat_adsss_min         =  -1.5094294282895E+05
(PID.TID 0000.0001) %MON ad_dynstat_adsss_mean        =  -1.5094294282895E+05
(PID.TID 0000.0001) %MON ad_dynstat_adsss_sd          =   0.0000000000000E+00
(PID.TID 0000.0001) %MON ad_dynstat_adsss_del2        =   4.2693111378642E+05
(PID.TID 0000.0001) %MON ad_forcing_adqnet_max        =   0.0000000000000E+00
(PID.TID 0000.0001) %MON ad_forcing_adqnet_min        =   0.0000000000000E+00
(PID.TID 0000.0001) %MON ad_forcing_adqnet_mean       =   0.0000000000000E+00
(PID.TID 0000.0001) %MON ad_forcing_adqnet_sd         =   0.0000000000000E+00
(PID.TID 0000.0001) %MON ad_forcing_adqnet_del2       =   0.0000000000000E+00
(PID.TID 0000.0001) %MON ad_forcing_adqsw_max         =   0.0000000000000E+00
(PID.TID 0000.0001) %MON ad_forcing_adqsw_min         =   0.0000000000000E+00
(PID.TID 0000.0001) %MON ad_forcing_adqsw_mean        =   0.0000000000000E+00
(PID.TID 0000.0001) %MON ad_forcing_adqsw_sd          =   0.0000000000000E+00
(PID.TID 0000.0001) %MON ad_forcing_adqsw_del2        =   0.0000000000000E+00
(PID.TID 0000.0001) %MON ad_forcing_adempmr_max       =   0.0000000000000E+00
(PID.TID 0000.0001) %MON ad_forcing_adempmr_min       =   0.0000000000000E+00
(PID.TID 0000.0001) %MON ad_forcing_adempmr_mean      =   0.0000000000000E+00
(PID.TID 0000.0001) %MON ad_forcing_adempmr_sd        =   0.0000000000000E+00
(PID.TID 0000.0001) %MON ad_forcing_adempmr_del2      =   0.0000000000000E+00
(PID.TID 0000.0001) %MON ad_forcing_adfu_max          =   0.0000000000000E+00
(PID.TID 0000.0001) %MON ad_forcing_adfu_min          =   0.0000000000000E+00
(PID.TID 0000.0001) %MON ad_forcing_adfu_mean         =   0.0000000000000E+00
(PID.TID 0000.0001) %MON ad_forcing_adfu_sd           =   0.0000000000000E+00
(PID.TID 0000.0001) %MON ad_forcing_adfu_del2         =   0.0000000000000E+00
(PID.TID 0000.0001) %MON ad_forcing_adfv_max          =   0.0000000000000E+00
(PID.TID 0000.0001) %MON ad_forcing_adfv_min          =   0.0000000000000E+00
(PID.TID 0000.0001) %MON ad_forcing_adfv_mean         =   0.0000000000000E+00
(PID.TID 0000.0001) %MON ad_forcing_adfv_sd           =   0.0000000000000E+00
(PID.TID 0000.0001) %MON ad_forcing_adfv_del2         =   0.0000000000000E+00
(PID.TID 0000.0001) // =======================================================
(PID.TID 0000.0001) // End AD_MONITOR dynamic field statistics
(PID.TID 0000.0001) // =======================================================
(PID.TID 0000.0001) // =======================================================
(PID.TID 0000.0001) // Begin AD_MONITOR SEAICE statistics
(PID.TID 0000.0001) // =======================================================
(PID.TID 0000.0001) %MON ad_seaice_tsnumber           =                     7
(PID.TID 0000.0001) %MON ad_seaice_time_sec           =   2.5200000000000E+04
(PID.TID 0000.0001) %MON ad_seaice_aduice_max         =   4.1266242511170E+05
(PID.TID 0000.0001) %MON ad_seaice_aduice_min         =   4.1266242511170E+05
(PID.TID 0000.0001) %MON ad_seaice_aduice_mean        =   4.1266242511170E+05
(PID.TID 0000.0001) %MON ad_seaice_aduice_sd          =   0.0000000000000E+00
(PID.TID 0000.0001) %MON ad_seaice_aduice_del2        =   1.4878755331976E+06
(PID.TID 0000.0001) %MON ad_seaice_advice_max         =   4.1266242511170E+05
(PID.TID 0000.0001) %MON ad_seaice_advice_min         =   4.1266242511170E+05
(PID.TID 0000.0001) %MON ad_seaice_advice_mean        =   4.1266242511170E+05
(PID.TID 0000.0001) %MON ad_seaice_advice_sd          =   0.0000000000000E+00
(PID.TID 0000.0001) %MON ad_seaice_advice_del2        =   1.4878755331976E+06
(PID.TID 0000.0001) %MON ad_seaice_adarea_max         =   7.2371898147831E+06
(PID.TID 0000.0001) %MON ad_seaice_adarea_min         =   7.2371898147831E+06
(PID.TID 0000.0001) %MON ad_seaice_adarea_mean        =   7.2371898147831E+06
(PID.TID 0000.0001) %MON ad_seaice_adarea_sd          =   9.3132257461548E-10
(PID.TID 0000.0001) %MON ad_seaice_adarea_del2        =   2.0469951411476E+07
(PID.TID 0000.0001) %MON ad_seaice_adheff_max         =   7.0985704679676E+03
(PID.TID 0000.0001) %MON ad_seaice_adheff_min         =   7.0985704679676E+03
(PID.TID 0000.0001) %MON ad_seaice_adheff_mean        =   7.0985704679676E+03
(PID.TID 0000.0001) %MON ad_seaice_adheff_sd          =   0.0000000000000E+00
(PID.TID 0000.0001) %MON ad_seaice_adheff_del2        =   2.0077789258522E+04
(PID.TID 0000.0001) %MON ad_seaice_adhsnow_max        =   2.5201723708135E+04
(PID.TID 0000.0001) %MON ad_seaice_adhsnow_min        =   2.5201723708135E+04
(PID.TID 0000.0001) %MON ad_seaice_adhsnow_mean       =   2.5201723708135E+04
(PID.TID 0000.0001) %MON ad_seaice_adhsnow_sd         =   0.0000000000000E+00
(PID.TID 0000.0001) %MON ad_seaice_adhsnow_del2       =   7.1281238926448E+04
(PID.TID 0000.0001) %MON ad_seaice_adhsalt_max        =   0.0000000000000E+00
(PID.TID 0000.0001) %MON ad_seaice_adhsalt_min        =   0.0000000000000E+00
(PID.TID 0000.0001) %MON ad_seaice_adhsalt_mean       =   0.0000000000000E+00
(PID.TID 0000.0001) %MON ad_seaice_adhsalt_sd         =   0.0000000000000E+00
(PID.TID 0000.0001) %MON ad_seaice_adhsalt_del2       =   0.0000000000000E+00
(PID.TID 0000.0001) // =======================================================
(PID.TID 0000.0001) // End AD_MONITOR SEAICE statistics
(PID.TID 0000.0001) // =======================================================
 cg2d: Sum(rhs),rhsMax =  -1.00000000000000E+00  1.81452397345493E-12
(PID.TID 0000.0001) // =======================================================
(PID.TID 0000.0001) // Begin AD_MONITOR EXF statistics for iwhen =  3
(PID.TID 0000.0001) // =======================================================
(PID.TID 0000.0001) %MON ad_exf_tsnumber              =                     6
(PID.TID 0000.0001) %MON ad_exf_time_sec              =   2.1600000000000E+04
(PID.TID 0000.0001) %MON ad_exf_adfu_max              =   7.0017531763072E+03
(PID.TID 0000.0001) %MON ad_exf_adfu_min              =   7.0017531763072E+03
(PID.TID 0000.0001) %MON ad_exf_adfu_mean             =   7.0017531763072E+03
(PID.TID 0000.0001) %MON ad_exf_adfu_sd               =   0.0000000000000E+00
(PID.TID 0000.0001) %MON ad_exf_adfu_del2             =   1.5245290983090E+04
(PID.TID 0000.0001) %MON ad_exf_adfv_max              =   7.8311254177849E+03
(PID.TID 0000.0001) %MON ad_exf_adfv_min              =   7.8311254177849E+03
(PID.TID 0000.0001) %MON ad_exf_adfv_mean             =   7.8311254177849E+03
(PID.TID 0000.0001) %MON ad_exf_adfv_sd               =   0.0000000000000E+00
(PID.TID 0000.0001) %MON ad_exf_adfv_del2             =   1.7446250041812E+04
(PID.TID 0000.0001) %MON ad_exf_adqnet_max            =  -8.1659925032550E-01
(PID.TID 0000.0001) %MON ad_exf_adqnet_min            =  -8.1659925032550E-01
(PID.TID 0000.0001) %MON ad_exf_adqnet_mean           =  -8.1659925032550E-01
(PID.TID 0000.0001) %MON ad_exf_adqnet_sd             =   0.0000000000000E+00
(PID.TID 0000.0001) %MON ad_exf_adqnet_del2           =   2.3096914696681E+00
(PID.TID 0000.0001) %MON ad_exf_adempmr_max           =  -5.7437986645562E+06
(PID.TID 0000.0001) %MON ad_exf_adempmr_min           =  -5.7437986645562E+06
(PID.TID 0000.0001) %MON ad_exf_adempmr_mean          =  -5.7437986645562E+06
(PID.TID 0000.0001) %MON ad_exf_adempmr_sd            =   0.0000000000000E+00
(PID.TID 0000.0001) %MON ad_exf_adempmr_del2          =   1.6245915941912E+07
(PID.TID 0000.0001) // =======================================================
(PID.TID 0000.0001) // End AD_MONITOR EXF statistics for iwhen =  3
(PID.TID 0000.0001) // =======================================================
(PID.TID 0000.0001) // =======================================================
(PID.TID 0000.0001) // Begin AD_MONITOR EXF statistics for iwhen =  1
(PID.TID 0000.0001) // =======================================================
(PID.TID 0000.0001) %MON ad_exf_tsnumber              =                     6
(PID.TID 0000.0001) %MON ad_exf_time_sec              =   2.1600000000000E+04
(PID.TID 0000.0001) %MON ad_exf_adustress_max         =   7.2589672201061E+03
(PID.TID 0000.0001) %MON ad_exf_adustress_min         =   7.2589672201061E+03
(PID.TID 0000.0001) %MON ad_exf_adustress_mean        =   7.2589672201061E+03
(PID.TID 0000.0001) %MON ad_exf_adustress_sd          =   0.0000000000000E+00
(PID.TID 0000.0001) %MON ad_exf_adustress_del2        =   1.6231544150600E+04
(PID.TID 0000.0001) %MON ad_exf_advstress_max         =   7.6608998870889E+03
(PID.TID 0000.0001) %MON ad_exf_advstress_min         =   7.6608998870889E+03
(PID.TID 0000.0001) %MON ad_exf_advstress_mean        =   7.6608998870889E+03
(PID.TID 0000.0001) %MON ad_exf_advstress_sd          =   0.0000000000000E+00
(PID.TID 0000.0001) %MON ad_exf_advstress_del2        =   1.7130292916351E+04
(PID.TID 0000.0001) %MON ad_exf_adhflux_max           =   0.0000000000000E+00
(PID.TID 0000.0001) %MON ad_exf_adhflux_min           =   0.0000000000000E+00
(PID.TID 0000.0001) %MON ad_exf_adhflux_mean          =   0.0000000000000E+00
(PID.TID 0000.0001) %MON ad_exf_adhflux_sd            =   0.0000000000000E+00
(PID.TID 0000.0001) %MON ad_exf_adhflux_del2          =   0.0000000000000E+00
(PID.TID 0000.0001) %MON ad_exf_adsflux_max           =   0.0000000000000E+00
(PID.TID 0000.0001) %MON ad_exf_adsflux_min           =   0.0000000000000E+00
(PID.TID 0000.0001) %MON ad_exf_adsflux_mean          =   0.0000000000000E+00
(PID.TID 0000.0001) %MON ad_exf_adsflux_sd            =   0.0000000000000E+00
(PID.TID 0000.0001) %MON ad_exf_adsflux_del2          =   0.0000000000000E+00
(PID.TID 0000.0001) %MON ad_exf_adwspeed_max          =  -9.1276802637952E+00
(PID.TID 0000.0001) %MON ad_exf_adwspeed_min          =  -9.1276802637952E+00
(PID.TID 0000.0001) %MON ad_exf_adwspeed_mean         =  -9.1276802637952E+00
(PID.TID 0000.0001) %MON ad_exf_adwspeed_sd           =   0.0000000000000E+00
(PID.TID 0000.0001) %MON ad_exf_adwspeed_del2         =   2.5816978444129E+01
(PID.TID 0000.0001) // =======================================================
(PID.TID 0000.0001) // End AD_MONITOR EXF statistics for iwhen =  1
(PID.TID 0000.0001) // =======================================================
(PID.TID 0000.0001) // =======================================================
(PID.TID 0000.0001) // Begin AD_MONITOR EXF statistics for iwhen =  2
(PID.TID 0000.0001) // =======================================================
(PID.TID 0000.0001) %MON ad_exf_tsnumber              =                     6
(PID.TID 0000.0001) %MON ad_exf_time_sec              =   2.1600000000000E+04
(PID.TID 0000.0001) %MON ad_exf_aduwind_max           =   4.6486028953790E+03
(PID.TID 0000.0001) %MON ad_exf_aduwind_min           =   4.6486028953790E+03
(PID.TID 0000.0001) %MON ad_exf_aduwind_mean          =   4.6486028953790E+03
(PID.TID 0000.0001) %MON ad_exf_aduwind_sd            =   0.0000000000000E+00
(PID.TID 0000.0001) %MON ad_exf_aduwind_del2          =   1.3148234521464E+04
(PID.TID 0000.0001) %MON ad_exf_advwind_max           =   4.6533875319035E+03
(PID.TID 0000.0001) %MON ad_exf_advwind_min           =   4.6533875319035E+03
(PID.TID 0000.0001) %MON ad_exf_advwind_mean          =   4.6533875319035E+03
(PID.TID 0000.0001) %MON ad_exf_advwind_sd            =   0.0000000000000E+00
(PID.TID 0000.0001) %MON ad_exf_advwind_del2          =   1.3161767517192E+04
(PID.TID 0000.0001) %MON ad_exf_adatemp_max           =  -1.5157545775601E+03
(PID.TID 0000.0001) %MON ad_exf_adatemp_min           =  -1.5157545775601E+03
(PID.TID 0000.0001) %MON ad_exf_adatemp_mean          =  -1.5157545775601E+03
(PID.TID 0000.0001) %MON ad_exf_adatemp_sd            =   0.0000000000000E+00
(PID.TID 0000.0001) %MON ad_exf_adatemp_del2          =   4.2872013616293E+03
(PID.TID 0000.0001) %MON ad_exf_adaqh_max             =  -7.5802445480969E+06
(PID.TID 0000.0001) %MON ad_exf_adaqh_min             =  -7.5802445480969E+06
(PID.TID 0000.0001) %MON ad_exf_adaqh_mean            =  -7.5802445480969E+06
(PID.TID 0000.0001) %MON ad_exf_adaqh_sd              =   0.0000000000000E+00
(PID.TID 0000.0001) %MON ad_exf_adaqh_del2            =   2.1440169292047E+07
(PID.TID 0000.0001) %MON ad_exf_adlwflux_max          =   0.0000000000000E+00
(PID.TID 0000.0001) %MON ad_exf_adlwflux_min          =   0.0000000000000E+00
(PID.TID 0000.0001) %MON ad_exf_adlwflux_mean         =   0.0000000000000E+00
(PID.TID 0000.0001) %MON ad_exf_adlwflux_sd           =   0.0000000000000E+00
(PID.TID 0000.0001) %MON ad_exf_adlwflux_del2         =   0.0000000000000E+00
(PID.TID 0000.0001) %MON ad_exf_adprecip_max          =   2.4338797673934E+10
(PID.TID 0000.0001) %MON ad_exf_adprecip_min          =   2.4338797673934E+10
(PID.TID 0000.0001) %MON ad_exf_adprecip_mean         =   2.4338797673934E+10
(PID.TID 0000.0001) %MON ad_exf_adprecip_sd           =   0.0000000000000E+00
(PID.TID 0000.0001) %MON ad_exf_adprecip_del2         =   6.8840515524664E+10
(PID.TID 0000.0001) %MON ad_exf_adswflux_max          =   0.0000000000000E+00
(PID.TID 0000.0001) %MON ad_exf_adswflux_min          =   0.0000000000000E+00
(PID.TID 0000.0001) %MON ad_exf_adswflux_mean         =   0.0000000000000E+00
(PID.TID 0000.0001) %MON ad_exf_adswflux_sd           =   0.0000000000000E+00
(PID.TID 0000.0001) %MON ad_exf_adswflux_del2         =   0.0000000000000E+00
(PID.TID 0000.0001) %MON ad_exf_adswdown_max          =  -1.4674568932056E+02
(PID.TID 0000.0001) %MON ad_exf_adswdown_min          =  -1.4674568932056E+02
(PID.TID 0000.0001) %MON ad_exf_adswdown_mean         =  -1.4674568932056E+02
(PID.TID 0000.0001) %MON ad_exf_adswdown_sd           =   0.0000000000000E+00
(PID.TID 0000.0001) %MON ad_exf_adswdown_del2         =   4.1505948811386E+02
(PID.TID 0000.0001) %MON ad_exf_adlwdown_max          =  -2.1172865106187E+02
(PID.TID 0000.0001) %MON ad_exf_adlwdown_min          =  -2.1172865106187E+02
(PID.TID 0000.0001) %MON ad_exf_adlwdown_mean         =  -2.1172865106187E+02
(PID.TID 0000.0001) %MON ad_exf_adlwdown_sd           =   0.0000000000000E+00
(PID.TID 0000.0001) %MON ad_exf_adlwdown_del2         =   5.9885905974931E+02
(PID.TID 0000.0001) %MON ad_exf_adrunoff_max          =   2.5263439843234E+10
(PID.TID 0000.0001) %MON ad_exf_adrunoff_min          =   2.5263439843234E+10
(PID.TID 0000.0001) %MON ad_exf_adrunoff_mean         =   2.5263439843234E+10
(PID.TID 0000.0001) %MON ad_exf_adrunoff_sd           =   0.0000000000000E+00
(PID.TID 0000.0001) %MON ad_exf_adrunoff_del2         =   7.1455798516996E+10
(PID.TID 0000.0001) // =======================================================
(PID.TID 0000.0001) // End AD_MONITOR EXF statistics for iwhen =  2
(PID.TID 0000.0001) // =======================================================
(PID.TID 0000.0001) // =======================================================
(PID.TID 0000.0001) // Begin AD_MONITOR dynamic field statistics
(PID.TID 0000.0001) // =======================================================
(PID.TID 0000.0001) %MON ad_time_tsnumber             =                     6
(PID.TID 0000.0001) %MON ad_time_secondsf             =   2.1600000000000E+04
(PID.TID 0000.0001) %MON ad_dynstat_adeta_max         =  -9.1414898634041E-09
(PID.TID 0000.0001) %MON ad_dynstat_adeta_min         =  -9.1414898634041E-09
(PID.TID 0000.0001) %MON ad_dynstat_adeta_mean        =  -9.1414898634041E-09
(PID.TID 0000.0001) %MON ad_dynstat_adeta_sd          =   0.0000000000000E+00
(PID.TID 0000.0001) %MON ad_dynstat_adeta_del2        =   2.5856037890245E-08
(PID.TID 0000.0001) %MON ad_dynstat_aduvel_max        =   3.0822811038027E+03
(PID.TID 0000.0001) %MON ad_dynstat_aduvel_min        =  -3.3320120773057E+03
(PID.TID 0000.0001) %MON ad_dynstat_aduvel_mean       =  -7.0060705398459E-10
(PID.TID 0000.0001) %MON ad_dynstat_aduvel_sd         =   6.5254347744440E+02
(PID.TID 0000.0001) %MON ad_dynstat_aduvel_del2       =   5.7490398669010E+02
(PID.TID 0000.0001) %MON ad_dynstat_advvel_max        =   1.0323016254790E+03
(PID.TID 0000.0001) %MON ad_dynstat_advvel_min        =  -1.1507307942891E+03
(PID.TID 0000.0001) %MON ad_dynstat_advvel_mean       =  -2.7707131104911E-10
(PID.TID 0000.0001) %MON ad_dynstat_advvel_sd         =   2.3256239635343E+02
(PID.TID 0000.0001) %MON ad_dynstat_advvel_del2       =   2.0489216954771E+02
(PID.TID 0000.0001) %MON ad_dynstat_adwvel_max        =   1.9898585715815E+03
(PID.TID 0000.0001) %MON ad_dynstat_adwvel_min        =  -1.3102526227186E+03
(PID.TID 0000.0001) %MON ad_dynstat_adwvel_mean       =   1.5616198944723E+01
(PID.TID 0000.0001) %MON ad_dynstat_adwvel_sd         =   3.4515898757662E+02
(PID.TID 0000.0001) %MON ad_dynstat_adwvel_del2       =   2.9359822733482E+02
(PID.TID 0000.0001) %MON ad_dynstat_adtheta_max       =   7.0783844559875E+03
(PID.TID 0000.0001) %MON ad_dynstat_adtheta_min       =  -6.3592495846826E+03
(PID.TID 0000.0001) %MON ad_dynstat_adtheta_mean      =   7.9198739558208E+00
(PID.TID 0000.0001) %MON ad_dynstat_adtheta_sd        =   1.4134563234818E+03
(PID.TID 0000.0001) %MON ad_dynstat_adtheta_del2      =   1.2453031246440E+03
(PID.TID 0000.0001) %MON ad_dynstat_adsalt_max        =   1.5112218526594E+05
(PID.TID 0000.0001) %MON ad_dynstat_adsalt_min        =  -1.7493689994453E+05
(PID.TID 0000.0001) %MON ad_dynstat_adsalt_mean       =  -1.0693105216697E+01
(PID.TID 0000.0001) %MON ad_dynstat_adsalt_sd         =   3.3709658777337E+04
(PID.TID 0000.0001) %MON ad_dynstat_adsalt_del2       =   2.9698891899102E+04
(PID.TID 0000.0001) %MON ad_dynstat_adsst_max         =  -6.3592495846826E+03
(PID.TID 0000.0001) %MON ad_dynstat_adsst_min         =  -6.3592495846826E+03
(PID.TID 0000.0001) %MON ad_dynstat_adsst_mean        =  -6.3592495846826E+03
(PID.TID 0000.0001) %MON ad_dynstat_adsst_sd          =   0.0000000000000E+00
(PID.TID 0000.0001) %MON ad_dynstat_adsst_del2        =   1.7986674018347E+04
(PID.TID 0000.0001) %MON ad_dynstat_adsss_max         =  -1.7493689994453E+05
(PID.TID 0000.0001) %MON ad_dynstat_adsss_min         =  -1.7493689994453E+05
(PID.TID 0000.0001) %MON ad_dynstat_adsss_mean        =  -1.7493689994453E+05
(PID.TID 0000.0001) %MON ad_dynstat_adsss_sd          =   0.0000000000000E+00
(PID.TID 0000.0001) %MON ad_dynstat_adsss_del2        =   4.9479627292212E+05
(PID.TID 0000.0001) %MON ad_forcing_adqnet_max        =   0.0000000000000E+00
(PID.TID 0000.0001) %MON ad_forcing_adqnet_min        =   0.0000000000000E+00
(PID.TID 0000.0001) %MON ad_forcing_adqnet_mean       =   0.0000000000000E+00
(PID.TID 0000.0001) %MON ad_forcing_adqnet_sd         =   0.0000000000000E+00
(PID.TID 0000.0001) %MON ad_forcing_adqnet_del2       =   0.0000000000000E+00
(PID.TID 0000.0001) %MON ad_forcing_adqsw_max         =   0.0000000000000E+00
(PID.TID 0000.0001) %MON ad_forcing_adqsw_min         =   0.0000000000000E+00
(PID.TID 0000.0001) %MON ad_forcing_adqsw_mean        =   0.0000000000000E+00
(PID.TID 0000.0001) %MON ad_forcing_adqsw_sd          =   0.0000000000000E+00
(PID.TID 0000.0001) %MON ad_forcing_adqsw_del2        =   0.0000000000000E+00
(PID.TID 0000.0001) %MON ad_forcing_adempmr_max       =   0.0000000000000E+00
(PID.TID 0000.0001) %MON ad_forcing_adempmr_min       =   0.0000000000000E+00
(PID.TID 0000.0001) %MON ad_forcing_adempmr_mean      =   0.0000000000000E+00
(PID.TID 0000.0001) %MON ad_forcing_adempmr_sd        =   0.0000000000000E+00
(PID.TID 0000.0001) %MON ad_forcing_adempmr_del2      =   0.0000000000000E+00
(PID.TID 0000.0001) %MON ad_forcing_adfu_max          =   0.0000000000000E+00
(PID.TID 0000.0001) %MON ad_forcing_adfu_min          =   0.0000000000000E+00
(PID.TID 0000.0001) %MON ad_forcing_adfu_mean         =   0.0000000000000E+00
(PID.TID 0000.0001) %MON ad_forcing_adfu_sd           =   0.0000000000000E+00
(PID.TID 0000.0001) %MON ad_forcing_adfu_del2         =   0.0000000000000E+00
(PID.TID 0000.0001) %MON ad_forcing_adfv_max          =   0.0000000000000E+00
(PID.TID 0000.0001) %MON ad_forcing_adfv_min          =   0.0000000000000E+00
(PID.TID 0000.0001) %MON ad_forcing_adfv_mean         =   0.0000000000000E+00
(PID.TID 0000.0001) %MON ad_forcing_adfv_sd           =   0.0000000000000E+00
(PID.TID 0000.0001) %MON ad_forcing_adfv_del2         =   0.0000000000000E+00
(PID.TID 0000.0001) // =======================================================
(PID.TID 0000.0001) // End AD_MONITOR dynamic field statistics
(PID.TID 0000.0001) // =======================================================
(PID.TID 0000.0001) // =======================================================
(PID.TID 0000.0001) // Begin AD_MONITOR SEAICE statistics
(PID.TID 0000.0001) // =======================================================
(PID.TID 0000.0001) %MON ad_seaice_tsnumber           =                     6
(PID.TID 0000.0001) %MON ad_seaice_time_sec           =   2.1600000000000E+04
(PID.TID 0000.0001) %MON ad_seaice_aduice_max         =   6.2465962789537E+05
(PID.TID 0000.0001) %MON ad_seaice_aduice_min         =   6.2465962789537E+05
(PID.TID 0000.0001) %MON ad_seaice_aduice_mean        =   6.2465962789537E+05
(PID.TID 0000.0001) %MON ad_seaice_aduice_sd          =   0.0000000000000E+00
(PID.TID 0000.0001) %MON ad_seaice_aduice_del2        =   2.2522423180890E+06
(PID.TID 0000.0001) %MON ad_seaice_advice_max         =   6.2465962789537E+05
(PID.TID 0000.0001) %MON ad_seaice_advice_min         =   6.2465962789537E+05
(PID.TID 0000.0001) %MON ad_seaice_advice_mean        =   6.2465962789537E+05
(PID.TID 0000.0001) %MON ad_seaice_advice_sd          =   0.0000000000000E+00
(PID.TID 0000.0001) %MON ad_seaice_advice_del2        =   2.2522423180890E+06
(PID.TID 0000.0001) %MON ad_seaice_adarea_max         =   9.5716149616019E+06
(PID.TID 0000.0001) %MON ad_seaice_adarea_min         =   9.5716149616019E+06
(PID.TID 0000.0001) %MON ad_seaice_adarea_mean        =   9.5716149616019E+06
(PID.TID 0000.0001) %MON ad_seaice_adarea_sd          =   1.8626451492310E-09
(PID.TID 0000.0001) %MON ad_seaice_adarea_del2        =   2.7072680171116E+07
(PID.TID 0000.0001) %MON ad_seaice_adheff_max         =   9.8180223946370E+03
(PID.TID 0000.0001) %MON ad_seaice_adheff_min         =   9.8180223946370E+03
(PID.TID 0000.0001) %MON ad_seaice_adheff_mean        =   9.8180223946370E+03
(PID.TID 0000.0001) %MON ad_seaice_adheff_sd          =   0.0000000000000E+00
(PID.TID 0000.0001) %MON ad_seaice_adheff_del2        =   2.7769560852357E+04
(PID.TID 0000.0001) %MON ad_seaice_adhsnow_max        =   3.1148987769636E+04
(PID.TID 0000.0001) %MON ad_seaice_adhsnow_min        =   3.1148987769636E+04
(PID.TID 0000.0001) %MON ad_seaice_adhsnow_mean       =   3.1148987769636E+04
(PID.TID 0000.0001) %MON ad_seaice_adhsnow_sd         =   0.0000000000000E+00
(PID.TID 0000.0001) %MON ad_seaice_adhsnow_del2       =   8.8102641916025E+04
(PID.TID 0000.0001) %MON ad_seaice_adhsalt_max        =   0.0000000000000E+00
(PID.TID 0000.0001) %MON ad_seaice_adhsalt_min        =   0.0000000000000E+00
(PID.TID 0000.0001) %MON ad_seaice_adhsalt_mean       =   0.0000000000000E+00
(PID.TID 0000.0001) %MON ad_seaice_adhsalt_sd         =   0.0000000000000E+00
(PID.TID 0000.0001) %MON ad_seaice_adhsalt_del2       =   0.0000000000000E+00
(PID.TID 0000.0001) // =======================================================
(PID.TID 0000.0001) // End AD_MONITOR SEAICE statistics
(PID.TID 0000.0001) // =======================================================
 cg2d: Sum(rhs),rhsMax =  -1.00000000000000E+00  1.36089298009120E-12
(PID.TID 0000.0001) // =======================================================
(PID.TID 0000.0001) // Begin AD_MONITOR EXF statistics for iwhen =  3
(PID.TID 0000.0001) // =======================================================
(PID.TID 0000.0001) %MON ad_exf_tsnumber              =                     5
(PID.TID 0000.0001) %MON ad_exf_time_sec              =   1.8000000000000E+04
(PID.TID 0000.0001) %MON ad_exf_adfu_max              =   1.0878376146087E+04
(PID.TID 0000.0001) %MON ad_exf_adfu_min              =   1.0878376146087E+04
(PID.TID 0000.0001) %MON ad_exf_adfu_mean             =   1.0878376146087E+04
(PID.TID 0000.0001) %MON ad_exf_adfu_sd               =   0.0000000000000E+00
(PID.TID 0000.0001) %MON ad_exf_adfu_del2             =   2.3909210200810E+04
(PID.TID 0000.0001) %MON ad_exf_adfv_max              =   1.1357183557338E+04
(PID.TID 0000.0001) %MON ad_exf_adfv_min              =   1.1357183557338E+04
(PID.TID 0000.0001) %MON ad_exf_adfv_mean             =   1.1357183557338E+04
(PID.TID 0000.0001) %MON ad_exf_adfv_sd               =   0.0000000000000E+00
(PID.TID 0000.0001) %MON ad_exf_adfv_del2             =   2.5182172111973E+04
(PID.TID 0000.0001) %MON ad_exf_adqnet_max            =  -7.7130897649994E-01
(PID.TID 0000.0001) %MON ad_exf_adqnet_min            =  -7.7130897649994E-01
(PID.TID 0000.0001) %MON ad_exf_adqnet_mean           =  -7.7130897649994E-01
(PID.TID 0000.0001) %MON ad_exf_adqnet_sd             =   0.0000000000000E+00
(PID.TID 0000.0001) %MON ad_exf_adqnet_del2           =   2.1815912306927E+00
(PID.TID 0000.0001) %MON ad_exf_adempmr_max           =  -8.5743813222670E+06
(PID.TID 0000.0001) %MON ad_exf_adempmr_min           =  -8.5743813222670E+06
(PID.TID 0000.0001) %MON ad_exf_adempmr_mean          =  -8.5743813222670E+06
(PID.TID 0000.0001) %MON ad_exf_adempmr_sd            =   0.0000000000000E+00
(PID.TID 0000.0001) %MON ad_exf_adempmr_del2          =   2.4252012709817E+07
(PID.TID 0000.0001) // =======================================================
(PID.TID 0000.0001) // End AD_MONITOR EXF statistics for iwhen =  3
(PID.TID 0000.0001) // =======================================================
(PID.TID 0000.0001) // =======================================================
(PID.TID 0000.0001) // Begin AD_MONITOR EXF statistics for iwhen =  1
(PID.TID 0000.0001) // =======================================================
(PID.TID 0000.0001) %MON ad_exf_tsnumber              =                     5
(PID.TID 0000.0001) %MON ad_exf_time_sec              =   1.8000000000000E+04
(PID.TID 0000.0001) %MON ad_exf_adustress_max         =   1.1071350950455E+04
(PID.TID 0000.0001) %MON ad_exf_adustress_min         =   1.1071350950455E+04
(PID.TID 0000.0001) %MON ad_exf_adustress_mean        =   1.1071350950455E+04
(PID.TID 0000.0001) %MON ad_exf_adustress_sd          =   0.0000000000000E+00
(PID.TID 0000.0001) %MON ad_exf_adustress_del2        =   2.4756293327975E+04
(PID.TID 0000.0001) %MON ad_exf_advstress_max         =   1.1304663452508E+04
(PID.TID 0000.0001) %MON ad_exf_advstress_min         =   1.1304663452508E+04
(PID.TID 0000.0001) %MON ad_exf_advstress_mean        =   1.1304663452508E+04
(PID.TID 0000.0001) %MON ad_exf_advstress_sd          =   0.0000000000000E+00
(PID.TID 0000.0001) %MON ad_exf_advstress_del2        =   2.5277995942565E+04
(PID.TID 0000.0001) %MON ad_exf_adhflux_max           =   0.0000000000000E+00
(PID.TID 0000.0001) %MON ad_exf_adhflux_min           =   0.0000000000000E+00
(PID.TID 0000.0001) %MON ad_exf_adhflux_mean          =   0.0000000000000E+00
(PID.TID 0000.0001) %MON ad_exf_adhflux_sd            =   0.0000000000000E+00
(PID.TID 0000.0001) %MON ad_exf_adhflux_del2          =   0.0000000000000E+00
(PID.TID 0000.0001) %MON ad_exf_adsflux_max           =   0.0000000000000E+00
(PID.TID 0000.0001) %MON ad_exf_adsflux_min           =   0.0000000000000E+00
(PID.TID 0000.0001) %MON ad_exf_adsflux_mean          =   0.0000000000000E+00
(PID.TID 0000.0001) %MON ad_exf_adsflux_sd            =   0.0000000000000E+00
(PID.TID 0000.0001) %MON ad_exf_adsflux_del2          =   0.0000000000000E+00
(PID.TID 0000.0001) %MON ad_exf_adwspeed_max          =  -1.1389139273925E+01
(PID.TID 0000.0001) %MON ad_exf_adwspeed_min          =  -1.1389139273925E+01
(PID.TID 0000.0001) %MON ad_exf_adwspeed_mean         =  -1.1389139273925E+01
(PID.TID 0000.0001) %MON ad_exf_adwspeed_sd           =   0.0000000000000E+00
(PID.TID 0000.0001) %MON ad_exf_adwspeed_del2         =   3.2213350449882E+01
(PID.TID 0000.0001) // =======================================================
(PID.TID 0000.0001) // End AD_MONITOR EXF statistics for iwhen =  1
(PID.TID 0000.0001) // =======================================================
(PID.TID 0000.0001) // =======================================================
(PID.TID 0000.0001) // Begin AD_MONITOR EXF statistics for iwhen =  2
(PID.TID 0000.0001) // =======================================================
(PID.TID 0000.0001) %MON ad_exf_tsnumber              =                     5
(PID.TID 0000.0001) %MON ad_exf_time_sec              =   1.8000000000000E+04
(PID.TID 0000.0001) %MON ad_exf_aduwind_max           =   5.7480622397059E+03
(PID.TID 0000.0001) %MON ad_exf_aduwind_min           =   5.7480622397059E+03
(PID.TID 0000.0001) %MON ad_exf_aduwind_mean          =   5.7480622397059E+03
(PID.TID 0000.0001) %MON ad_exf_aduwind_sd            =   0.0000000000000E+00
(PID.TID 0000.0001) %MON ad_exf_aduwind_del2          =   1.6257975153514E+04
(PID.TID 0000.0001) %MON ad_exf_advwind_max           =   5.7508396380725E+03
(PID.TID 0000.0001) %MON ad_exf_advwind_min           =   5.7508396380725E+03
(PID.TID 0000.0001) %MON ad_exf_advwind_mean          =   5.7508396380725E+03
(PID.TID 0000.0001) %MON ad_exf_advwind_sd            =   0.0000000000000E+00
(PID.TID 0000.0001) %MON ad_exf_advwind_del2          =   1.6265830822390E+04
(PID.TID 0000.0001) %MON ad_exf_adatemp_max           =  -1.8683167505512E+03
(PID.TID 0000.0001) %MON ad_exf_adatemp_min           =  -1.8683167505512E+03
(PID.TID 0000.0001) %MON ad_exf_adatemp_mean          =  -1.8683167505512E+03
(PID.TID 0000.0001) %MON ad_exf_adatemp_sd            =   0.0000000000000E+00
(PID.TID 0000.0001) %MON ad_exf_adatemp_del2          =   5.2843977748767E+03
(PID.TID 0000.0001) %MON ad_exf_adaqh_max             =  -1.1491770278429E+07
(PID.TID 0000.0001) %MON ad_exf_adaqh_min             =  -1.1491770278429E+07
(PID.TID 0000.0001) %MON ad_exf_adaqh_mean            =  -1.1491770278429E+07
(PID.TID 0000.0001) %MON ad_exf_adaqh_sd              =   0.0000000000000E+00
(PID.TID 0000.0001) %MON ad_exf_adaqh_del2            =   3.2503634766861E+07
(PID.TID 0000.0001) %MON ad_exf_adlwflux_max          =   0.0000000000000E+00
(PID.TID 0000.0001) %MON ad_exf_adlwflux_min          =   0.0000000000000E+00
(PID.TID 0000.0001) %MON ad_exf_adlwflux_mean         =   0.0000000000000E+00
(PID.TID 0000.0001) %MON ad_exf_adlwflux_sd           =   0.0000000000000E+00
(PID.TID 0000.0001) %MON ad_exf_adlwflux_del2         =   0.0000000000000E+00
(PID.TID 0000.0001) %MON ad_exf_adprecip_max          =   3.2701991856914E+10
(PID.TID 0000.0001) %MON ad_exf_adprecip_min          =   3.2701991856914E+10
(PID.TID 0000.0001) %MON ad_exf_adprecip_mean         =   3.2701991856914E+10
(PID.TID 0000.0001) %MON ad_exf_adprecip_sd           =   0.0000000000000E+00
(PID.TID 0000.0001) %MON ad_exf_adprecip_del2         =   9.2495200801325E+10
(PID.TID 0000.0001) %MON ad_exf_adswflux_max          =   0.0000000000000E+00
(PID.TID 0000.0001) %MON ad_exf_adswflux_min          =   0.0000000000000E+00
(PID.TID 0000.0001) %MON ad_exf_adswflux_mean         =   0.0000000000000E+00
(PID.TID 0000.0001) %MON ad_exf_adswflux_sd           =   0.0000000000000E+00
(PID.TID 0000.0001) %MON ad_exf_adswflux_del2         =   0.0000000000000E+00
(PID.TID 0000.0001) %MON ad_exf_adswdown_max          =  -1.8074568327557E+02
(PID.TID 0000.0001) %MON ad_exf_adswdown_min          =  -1.8074568327557E+02
(PID.TID 0000.0001) %MON ad_exf_adswdown_mean         =  -1.8074568327557E+02
(PID.TID 0000.0001) %MON ad_exf_adswdown_sd           =   0.0000000000000E+00
(PID.TID 0000.0001) %MON ad_exf_adswdown_del2         =   5.1122599325740E+02
(PID.TID 0000.0001) %MON ad_exf_adlwdown_max          =  -2.6097375713810E+02
(PID.TID 0000.0001) %MON ad_exf_adlwdown_min          =  -2.6097375713810E+02
(PID.TID 0000.0001) %MON ad_exf_adlwdown_mean         =  -2.6097375713810E+02
(PID.TID 0000.0001) %MON ad_exf_adlwdown_sd           =   0.0000000000000E+00
(PID.TID 0000.0001) %MON ad_exf_adlwdown_del2         =   7.3814525353634E+02
(PID.TID 0000.0001) %MON ad_exf_adrunoff_max          =   3.3836106289236E+10
(PID.TID 0000.0001) %MON ad_exf_adrunoff_min          =   3.3836106289236E+10
(PID.TID 0000.0001) %MON ad_exf_adrunoff_mean         =   3.3836106289236E+10
(PID.TID 0000.0001) %MON ad_exf_adrunoff_sd           =   0.0000000000000E+00
(PID.TID 0000.0001) %MON ad_exf_adrunoff_del2         =   9.5702960824271E+10
(PID.TID 0000.0001) // =======================================================
(PID.TID 0000.0001) // End AD_MONITOR EXF statistics for iwhen =  2
(PID.TID 0000.0001) // =======================================================
(PID.TID 0000.0001) // =======================================================
(PID.TID 0000.0001) // Begin AD_MONITOR dynamic field statistics
(PID.TID 0000.0001) // =======================================================
(PID.TID 0000.0001) %MON ad_time_tsnumber             =                     5
(PID.TID 0000.0001) %MON ad_time_secondsf             =   1.8000000000000E+04
(PID.TID 0000.0001) %MON ad_dynstat_adeta_max         =  -6.8561173975531E-09
(PID.TID 0000.0001) %MON ad_dynstat_adeta_min         =  -6.8561173975531E-09
(PID.TID 0000.0001) %MON ad_dynstat_adeta_mean        =  -6.8561173975531E-09
(PID.TID 0000.0001) %MON ad_dynstat_adeta_sd          =   0.0000000000000E+00
(PID.TID 0000.0001) %MON ad_dynstat_adeta_del2        =   1.9392028417683E-08
(PID.TID 0000.0001) %MON ad_dynstat_aduvel_max        =   3.5728512538419E+03
(PID.TID 0000.0001) %MON ad_dynstat_aduvel_min        =  -4.0431214690832E+03
(PID.TID 0000.0001) %MON ad_dynstat_aduvel_mean       =  -3.8336884886943E-10
(PID.TID 0000.0001) %MON ad_dynstat_aduvel_sd         =   7.7892887238951E+02
(PID.TID 0000.0001) %MON ad_dynstat_aduvel_del2       =   6.8625207294775E+02
(PID.TID 0000.0001) %MON ad_dynstat_advvel_max        =   2.2578568860530E+03
(PID.TID 0000.0001) %MON ad_dynstat_advvel_min        =  -2.1330851974636E+03
(PID.TID 0000.0001) %MON ad_dynstat_advvel_mean       =  -1.2198829578414E-09
(PID.TID 0000.0001) %MON ad_dynstat_advvel_sd         =   4.5784453833417E+02
(PID.TID 0000.0001) %MON ad_dynstat_advvel_del2       =   4.0337028791316E+02
(PID.TID 0000.0001) %MON ad_dynstat_adwvel_max        =   2.2141453103182E+03
(PID.TID 0000.0001) %MON ad_dynstat_adwvel_min        =  -1.1173963327595E+03
(PID.TID 0000.0001) %MON ad_dynstat_adwvel_mean       =   2.6528858310265E+01
(PID.TID 0000.0001) %MON ad_dynstat_adwvel_sd         =   3.5948716557190E+02
(PID.TID 0000.0001) %MON ad_dynstat_adwvel_del2       =   3.0630419703391E+02
(PID.TID 0000.0001) %MON ad_dynstat_adtheta_max       =   2.3354506842154E+03
(PID.TID 0000.0001) %MON ad_dynstat_adtheta_min       =  -3.5012310179326E+03
(PID.TID 0000.0001) %MON ad_dynstat_adtheta_mean      =  -3.7871360756264E+00
(PID.TID 0000.0001) %MON ad_dynstat_adtheta_sd        =   6.2553514329259E+02
(PID.TID 0000.0001) %MON ad_dynstat_adtheta_del2      =   5.5111919867886E+02
(PID.TID 0000.0001) %MON ad_dynstat_adsalt_max        =   2.0440495633400E+05
(PID.TID 0000.0001) %MON ad_dynstat_adsalt_min        =  -2.4809069283668E+05
(PID.TID 0000.0001) %MON ad_dynstat_adsalt_mean       =  -1.4983678605793E+01
(PID.TID 0000.0001) %MON ad_dynstat_adsalt_sd         =   4.7161001002126E+04
(PID.TID 0000.0001) %MON ad_dynstat_adsalt_del2       =   4.1549796753807E+04
(PID.TID 0000.0001) %MON ad_dynstat_adsst_max         =  -5.6085592757499E+02
(PID.TID 0000.0001) %MON ad_dynstat_adsst_min         =  -5.6085592757499E+02
(PID.TID 0000.0001) %MON ad_dynstat_adsst_mean        =  -5.6085592757499E+02
(PID.TID 0000.0001) %MON ad_dynstat_adsst_sd          =   0.0000000000000E+00
(PID.TID 0000.0001) %MON ad_dynstat_adsst_del2        =   1.5863401186278E+03
(PID.TID 0000.0001) %MON ad_dynstat_adsss_max         =  -2.4809069283668E+05
(PID.TID 0000.0001) %MON ad_dynstat_adsss_min         =  -2.4809069283668E+05
(PID.TID 0000.0001) %MON ad_dynstat_adsss_mean        =  -2.4809069283668E+05
(PID.TID 0000.0001) %MON ad_dynstat_adsss_sd          =   0.0000000000000E+00
(PID.TID 0000.0001) %MON ad_dynstat_adsss_del2        =   7.0170644501635E+05
(PID.TID 0000.0001) %MON ad_forcing_adqnet_max        =   0.0000000000000E+00
(PID.TID 0000.0001) %MON ad_forcing_adqnet_min        =   0.0000000000000E+00
(PID.TID 0000.0001) %MON ad_forcing_adqnet_mean       =   0.0000000000000E+00
(PID.TID 0000.0001) %MON ad_forcing_adqnet_sd         =   0.0000000000000E+00
(PID.TID 0000.0001) %MON ad_forcing_adqnet_del2       =   0.0000000000000E+00
(PID.TID 0000.0001) %MON ad_forcing_adqsw_max         =   0.0000000000000E+00
(PID.TID 0000.0001) %MON ad_forcing_adqsw_min         =   0.0000000000000E+00
(PID.TID 0000.0001) %MON ad_forcing_adqsw_mean        =   0.0000000000000E+00
(PID.TID 0000.0001) %MON ad_forcing_adqsw_sd          =   0.0000000000000E+00
(PID.TID 0000.0001) %MON ad_forcing_adqsw_del2        =   0.0000000000000E+00
(PID.TID 0000.0001) %MON ad_forcing_adempmr_max       =   0.0000000000000E+00
(PID.TID 0000.0001) %MON ad_forcing_adempmr_min       =   0.0000000000000E+00
(PID.TID 0000.0001) %MON ad_forcing_adempmr_mean      =   0.0000000000000E+00
(PID.TID 0000.0001) %MON ad_forcing_adempmr_sd        =   0.0000000000000E+00
(PID.TID 0000.0001) %MON ad_forcing_adempmr_del2      =   0.0000000000000E+00
(PID.TID 0000.0001) %MON ad_forcing_adfu_max          =   0.0000000000000E+00
(PID.TID 0000.0001) %MON ad_forcing_adfu_min          =   0.0000000000000E+00
(PID.TID 0000.0001) %MON ad_forcing_adfu_mean         =   0.0000000000000E+00
(PID.TID 0000.0001) %MON ad_forcing_adfu_sd           =   0.0000000000000E+00
(PID.TID 0000.0001) %MON ad_forcing_adfu_del2         =   0.0000000000000E+00
(PID.TID 0000.0001) %MON ad_forcing_adfv_max          =   0.0000000000000E+00
(PID.TID 0000.0001) %MON ad_forcing_adfv_min          =   0.0000000000000E+00
(PID.TID 0000.0001) %MON ad_forcing_adfv_mean         =   0.0000000000000E+00
(PID.TID 0000.0001) %MON ad_forcing_adfv_sd           =   0.0000000000000E+00
(PID.TID 0000.0001) %MON ad_forcing_adfv_del2         =   0.0000000000000E+00
(PID.TID 0000.0001) // =======================================================
(PID.TID 0000.0001) // End AD_MONITOR dynamic field statistics
(PID.TID 0000.0001) // =======================================================
(PID.TID 0000.0001) // =======================================================
(PID.TID 0000.0001) // Begin AD_MONITOR SEAICE statistics
(PID.TID 0000.0001) // =======================================================
(PID.TID 0000.0001) %MON ad_seaice_tsnumber           =                     5
(PID.TID 0000.0001) %MON ad_seaice_time_sec           =   1.8000000000000E+04
(PID.TID 0000.0001) %MON ad_seaice_aduice_max         =   8.4221421773732E+05
(PID.TID 0000.0001) %MON ad_seaice_aduice_min         =   8.4221421773732E+05
(PID.TID 0000.0001) %MON ad_seaice_aduice_mean        =   8.4221421773732E+05
(PID.TID 0000.0001) %MON ad_seaice_aduice_sd          =   0.0000000000000E+00
(PID.TID 0000.0001) %MON ad_seaice_aduice_del2        =   3.0366465469767E+06
(PID.TID 0000.0001) %MON ad_seaice_advice_max         =   8.4221421773732E+05
(PID.TID 0000.0001) %MON ad_seaice_advice_min         =   8.4221421773732E+05
(PID.TID 0000.0001) %MON ad_seaice_advice_mean        =   8.4221421773732E+05
(PID.TID 0000.0001) %MON ad_seaice_advice_sd          =   0.0000000000000E+00
(PID.TID 0000.0001) %MON ad_seaice_advice_del2        =   3.0366465469767E+06
(PID.TID 0000.0001) %MON ad_seaice_adarea_max         =   1.1872653283620E+07
(PID.TID 0000.0001) %MON ad_seaice_adarea_min         =   1.1872653283620E+07
(PID.TID 0000.0001) %MON ad_seaice_adarea_mean        =   1.1872653283620E+07
(PID.TID 0000.0001) %MON ad_seaice_adarea_sd          =   0.0000000000000E+00
(PID.TID 0000.0001) %MON ad_seaice_adarea_del2        =   3.3581031224277E+07
(PID.TID 0000.0001) %MON ad_seaice_adheff_max         =   1.2315038988148E+04
(PID.TID 0000.0001) %MON ad_seaice_adheff_min         =   1.2315038988148E+04
(PID.TID 0000.0001) %MON ad_seaice_adheff_mean        =   1.2315038988148E+04
(PID.TID 0000.0001) %MON ad_seaice_adheff_sd          =   0.0000000000000E+00
(PID.TID 0000.0001) %MON ad_seaice_adheff_del2        =   3.4832190316386E+04
(PID.TID 0000.0001) %MON ad_seaice_adhsnow_max        =   3.8616803404179E+04
(PID.TID 0000.0001) %MON ad_seaice_adhsnow_min        =   3.8616803404179E+04
(PID.TID 0000.0001) %MON ad_seaice_adhsnow_mean       =   3.8616803404179E+04
(PID.TID 0000.0001) %MON ad_seaice_adhsnow_sd         =   0.0000000000000E+00
(PID.TID 0000.0001) %MON ad_seaice_adhsnow_del2       =   1.0922481421937E+05
(PID.TID 0000.0001) %MON ad_seaice_adhsalt_max        =   0.0000000000000E+00
(PID.TID 0000.0001) %MON ad_seaice_adhsalt_min        =   0.0000000000000E+00
(PID.TID 0000.0001) %MON ad_seaice_adhsalt_mean       =   0.0000000000000E+00
(PID.TID 0000.0001) %MON ad_seaice_adhsalt_sd         =   0.0000000000000E+00
(PID.TID 0000.0001) %MON ad_seaice_adhsalt_del2       =   0.0000000000000E+00
(PID.TID 0000.0001) // =======================================================
(PID.TID 0000.0001) // End AD_MONITOR SEAICE statistics
(PID.TID 0000.0001) // =======================================================
 cg2d: Sum(rhs),rhsMax =  -1.00000000000000E+00  3.62904794690986E-12
(PID.TID 0000.0001) // =======================================================
(PID.TID 0000.0001) // Begin AD_MONITOR EXF statistics for iwhen =  3
(PID.TID 0000.0001) // =======================================================
(PID.TID 0000.0001) %MON ad_exf_tsnumber              =                     4
(PID.TID 0000.0001) %MON ad_exf_time_sec              =   1.4400000000000E+04
(PID.TID 0000.0001) %MON ad_exf_adfu_max              =   1.4898663258145E+04
(PID.TID 0000.0001) %MON ad_exf_adfu_min              =   1.4898663258145E+04
(PID.TID 0000.0001) %MON ad_exf_adfu_mean             =   1.4898663258145E+04
(PID.TID 0000.0001) %MON ad_exf_adfu_sd               =   0.0000000000000E+00
(PID.TID 0000.0001) %MON ad_exf_adfu_del2             =   3.2808410123224E+04
(PID.TID 0000.0001) %MON ad_exf_adfv_max              =   1.5303768706219E+04
(PID.TID 0000.0001) %MON ad_exf_adfv_min              =   1.5303768706219E+04
(PID.TID 0000.0001) %MON ad_exf_adfv_mean             =   1.5303768706219E+04
(PID.TID 0000.0001) %MON ad_exf_adfv_sd               =   1.8189894035459E-12
(PID.TID 0000.0001) %MON ad_exf_adfv_del2             =   3.3885648597382E+04
(PID.TID 0000.0001) %MON ad_exf_adqnet_max            =  -8.6683191455372E-01
(PID.TID 0000.0001) %MON ad_exf_adqnet_min            =  -8.6683191455372E-01
(PID.TID 0000.0001) %MON ad_exf_adqnet_mean           =  -8.6683191455372E-01
(PID.TID 0000.0001) %MON ad_exf_adqnet_sd             =   0.0000000000000E+00
(PID.TID 0000.0001) %MON ad_exf_adqnet_del2           =   2.4517708997194E+00
(PID.TID 0000.0001) %MON ad_exf_adempmr_max           =  -1.0920160862270E+07
(PID.TID 0000.0001) %MON ad_exf_adempmr_min           =  -1.0920160862270E+07
(PID.TID 0000.0001) %MON ad_exf_adempmr_mean          =  -1.0920160862270E+07
(PID.TID 0000.0001) %MON ad_exf_adempmr_sd            =   0.0000000000000E+00
(PID.TID 0000.0001) %MON ad_exf_adempmr_del2          =   3.0886879189437E+07
(PID.TID 0000.0001) // =======================================================
(PID.TID 0000.0001) // End AD_MONITOR EXF statistics for iwhen =  3
(PID.TID 0000.0001) // =======================================================
(PID.TID 0000.0001) // =======================================================
(PID.TID 0000.0001) // Begin AD_MONITOR EXF statistics for iwhen =  1
(PID.TID 0000.0001) // =======================================================
(PID.TID 0000.0001) %MON ad_exf_tsnumber              =                     4
(PID.TID 0000.0001) %MON ad_exf_time_sec              =   1.4400000000000E+04
(PID.TID 0000.0001) %MON ad_exf_adustress_max         =   1.5172990436787E+04
(PID.TID 0000.0001) %MON ad_exf_adustress_min         =   1.5172990436787E+04
(PID.TID 0000.0001) %MON ad_exf_adustress_mean        =   1.5172990436787E+04
(PID.TID 0000.0001) %MON ad_exf_adustress_sd          =   0.0000000000000E+00
(PID.TID 0000.0001) %MON ad_exf_adustress_del2        =   3.3927838038609E+04
(PID.TID 0000.0001) %MON ad_exf_advstress_max         =   1.5371487180328E+04
(PID.TID 0000.0001) %MON ad_exf_advstress_min         =   1.5371487180328E+04
(PID.TID 0000.0001) %MON ad_exf_advstress_mean        =   1.5371487180328E+04
(PID.TID 0000.0001) %MON ad_exf_advstress_sd          =   0.0000000000000E+00
(PID.TID 0000.0001) %MON ad_exf_advstress_del2        =   3.4371690250481E+04
(PID.TID 0000.0001) %MON ad_exf_adhflux_max           =   0.0000000000000E+00
(PID.TID 0000.0001) %MON ad_exf_adhflux_min           =   0.0000000000000E+00
(PID.TID 0000.0001) %MON ad_exf_adhflux_mean          =   0.0000000000000E+00
(PID.TID 0000.0001) %MON ad_exf_adhflux_sd            =   0.0000000000000E+00
(PID.TID 0000.0001) %MON ad_exf_adhflux_del2          =   0.0000000000000E+00
(PID.TID 0000.0001) %MON ad_exf_adsflux_max           =   0.0000000000000E+00
(PID.TID 0000.0001) %MON ad_exf_adsflux_min           =   0.0000000000000E+00
(PID.TID 0000.0001) %MON ad_exf_adsflux_mean          =   0.0000000000000E+00
(PID.TID 0000.0001) %MON ad_exf_adsflux_sd            =   0.0000000000000E+00
(PID.TID 0000.0001) %MON ad_exf_adsflux_del2          =   0.0000000000000E+00
(PID.TID 0000.0001) %MON ad_exf_adwspeed_max          =  -1.1551577626952E+01
(PID.TID 0000.0001) %MON ad_exf_adwspeed_min          =  -1.1551577626952E+01
(PID.TID 0000.0001) %MON ad_exf_adwspeed_mean         =  -1.1551577626952E+01
(PID.TID 0000.0001) %MON ad_exf_adwspeed_sd           =   0.0000000000000E+00
(PID.TID 0000.0001) %MON ad_exf_adwspeed_del2         =   3.2672795493683E+01
(PID.TID 0000.0001) // =======================================================
(PID.TID 0000.0001) // End AD_MONITOR EXF statistics for iwhen =  1
(PID.TID 0000.0001) // =======================================================
(PID.TID 0000.0001) // =======================================================
(PID.TID 0000.0001) // Begin AD_MONITOR EXF statistics for iwhen =  2
(PID.TID 0000.0001) // =======================================================
(PID.TID 0000.0001) %MON ad_exf_tsnumber              =                     4
(PID.TID 0000.0001) %MON ad_exf_time_sec              =   1.4400000000000E+04
(PID.TID 0000.0001) %MON ad_exf_aduwind_max           =   6.8695826793833E+03
(PID.TID 0000.0001) %MON ad_exf_aduwind_min           =   6.8695826793833E+03
(PID.TID 0000.0001) %MON ad_exf_aduwind_mean          =   6.8695826793833E+03
(PID.TID 0000.0001) %MON ad_exf_aduwind_sd            =   9.0949470177293E-13
(PID.TID 0000.0001) %MON ad_exf_aduwind_del2          =   1.9430113986054E+04
(PID.TID 0000.0001) %MON ad_exf_advwind_max           =   6.8719456272668E+03
(PID.TID 0000.0001) %MON ad_exf_advwind_min           =   6.8719456272668E+03
(PID.TID 0000.0001) %MON ad_exf_advwind_mean          =   6.8719456272668E+03
(PID.TID 0000.0001) %MON ad_exf_advwind_sd            =   0.0000000000000E+00
(PID.TID 0000.0001) %MON ad_exf_advwind_del2          =   1.9436797411942E+04
(PID.TID 0000.0001) %MON ad_exf_adatemp_max           =  -2.2267374572039E+03
(PID.TID 0000.0001) %MON ad_exf_adatemp_min           =  -2.2267374572039E+03
(PID.TID 0000.0001) %MON ad_exf_adatemp_mean          =  -2.2267374572039E+03
(PID.TID 0000.0001) %MON ad_exf_adatemp_sd            =   0.0000000000000E+00
(PID.TID 0000.0001) %MON ad_exf_adatemp_del2          =   6.2981646236438E+03
(PID.TID 0000.0001) %MON ad_exf_adaqh_max             =  -1.6149120226454E+07
(PID.TID 0000.0001) %MON ad_exf_adaqh_min             =  -1.6149120226454E+07
(PID.TID 0000.0001) %MON ad_exf_adaqh_mean            =  -1.6149120226454E+07
(PID.TID 0000.0001) %MON ad_exf_adaqh_sd              =   0.0000000000000E+00
(PID.TID 0000.0001) %MON ad_exf_adaqh_del2            =   4.5676609689290E+07
(PID.TID 0000.0001) %MON ad_exf_adlwflux_max          =   0.0000000000000E+00
(PID.TID 0000.0001) %MON ad_exf_adlwflux_min          =   0.0000000000000E+00
(PID.TID 0000.0001) %MON ad_exf_adlwflux_mean         =   0.0000000000000E+00
(PID.TID 0000.0001) %MON ad_exf_adlwflux_sd           =   0.0000000000000E+00
(PID.TID 0000.0001) %MON ad_exf_adlwflux_del2         =   0.0000000000000E+00
(PID.TID 0000.0001) %MON ad_exf_adprecip_max          =   4.3409777671360E+10
(PID.TID 0000.0001) %MON ad_exf_adprecip_min          =   4.3409777671360E+10
(PID.TID 0000.0001) %MON ad_exf_adprecip_mean         =   4.3409777671360E+10
(PID.TID 0000.0001) %MON ad_exf_adprecip_sd           =   0.0000000000000E+00
(PID.TID 0000.0001) %MON ad_exf_adprecip_del2         =   1.2278139264488E+11
(PID.TID 0000.0001) %MON ad_exf_adswflux_max          =   0.0000000000000E+00
(PID.TID 0000.0001) %MON ad_exf_adswflux_min          =   0.0000000000000E+00
(PID.TID 0000.0001) %MON ad_exf_adswflux_mean         =   0.0000000000000E+00
(PID.TID 0000.0001) %MON ad_exf_adswflux_sd           =   0.0000000000000E+00
(PID.TID 0000.0001) %MON ad_exf_adswflux_del2         =   0.0000000000000E+00
(PID.TID 0000.0001) %MON ad_exf_adswdown_max          =  -2.1545642741073E+02
(PID.TID 0000.0001) %MON ad_exf_adswdown_min          =  -2.1545642741073E+02
(PID.TID 0000.0001) %MON ad_exf_adswdown_mean         =  -2.1545642741073E+02
(PID.TID 0000.0001) %MON ad_exf_adswdown_sd           =   0.0000000000000E+00
(PID.TID 0000.0001) %MON ad_exf_adswdown_del2         =   6.0940280348943E+02
(PID.TID 0000.0001) %MON ad_exf_adlwdown_max          =  -3.1105197505578E+02
(PID.TID 0000.0001) %MON ad_exf_adlwdown_min          =  -3.1105197505578E+02
(PID.TID 0000.0001) %MON ad_exf_adlwdown_mean         =  -3.1105197505578E+02
(PID.TID 0000.0001) %MON ad_exf_adlwdown_sd           =   0.0000000000000E+00
(PID.TID 0000.0001) %MON ad_exf_adlwdown_del2         =   8.7978784345364E+02
(PID.TID 0000.0001) %MON ad_exf_adrunoff_max          =   4.4754083119334E+10
(PID.TID 0000.0001) %MON ad_exf_adrunoff_min          =   4.4754083119334E+10
(PID.TID 0000.0001) %MON ad_exf_adrunoff_mean         =   4.4754083119334E+10
(PID.TID 0000.0001) %MON ad_exf_adrunoff_sd           =   0.0000000000000E+00
(PID.TID 0000.0001) %MON ad_exf_adrunoff_del2         =   1.2658366263787E+11
(PID.TID 0000.0001) // =======================================================
(PID.TID 0000.0001) // End AD_MONITOR EXF statistics for iwhen =  2
(PID.TID 0000.0001) // =======================================================
(PID.TID 0000.0001) // =======================================================
(PID.TID 0000.0001) // Begin AD_MONITOR dynamic field statistics
(PID.TID 0000.0001) // =======================================================
(PID.TID 0000.0001) %MON ad_time_tsnumber             =                     4
(PID.TID 0000.0001) %MON ad_time_secondsf             =   1.4400000000000E+04
(PID.TID 0000.0001) %MON ad_dynstat_adeta_max         =  -1.8282979726808E-08
(PID.TID 0000.0001) %MON ad_dynstat_adeta_min         =  -1.8282979726808E-08
(PID.TID 0000.0001) %MON ad_dynstat_adeta_mean        =  -1.8282979726808E-08
(PID.TID 0000.0001) %MON ad_dynstat_adeta_sd          =   0.0000000000000E+00
(PID.TID 0000.0001) %MON ad_dynstat_adeta_del2        =   5.1712075780489E-08
(PID.TID 0000.0001) %MON ad_dynstat_aduvel_max        =   3.9355355809063E+03
(PID.TID 0000.0001) %MON ad_dynstat_aduvel_min        =  -4.7546235818426E+03
(PID.TID 0000.0001) %MON ad_dynstat_aduvel_mean       =   3.8607540850572E-10
(PID.TID 0000.0001) %MON ad_dynstat_aduvel_sd         =   8.9409264372847E+02
(PID.TID 0000.0001) %MON ad_dynstat_aduvel_del2       =   7.8771368210264E+02
(PID.TID 0000.0001) %MON ad_dynstat_advvel_max        =   3.8439757492777E+03
(PID.TID 0000.0001) %MON ad_dynstat_advvel_min        =  -3.4909627195316E+03
(PID.TID 0000.0001) %MON ad_dynstat_advvel_mean       =  -2.3396148289425E-09
(PID.TID 0000.0001) %MON ad_dynstat_advvel_sd         =   7.5781362877254E+02
(PID.TID 0000.0001) %MON ad_dynstat_advvel_del2       =   6.6764911673881E+02
(PID.TID 0000.0001) %MON ad_dynstat_adwvel_max        =   2.6440651292998E+03
(PID.TID 0000.0001) %MON ad_dynstat_adwvel_min        =  -1.2379000866518E+03
(PID.TID 0000.0001) %MON ad_dynstat_adwvel_mean       =   3.2200536352613E+01
(PID.TID 0000.0001) %MON ad_dynstat_adwvel_sd         =   4.2220897804479E+02
(PID.TID 0000.0001) %MON ad_dynstat_adwvel_del2       =   3.5981318355786E+02
(PID.TID 0000.0001) %MON ad_dynstat_adtheta_max       =   2.3750075910797E+04
(PID.TID 0000.0001) %MON ad_dynstat_adtheta_min       =  -4.9258504483985E+03
(PID.TID 0000.0001) %MON ad_dynstat_adtheta_mean      =   3.9799957521510E+02
(PID.TID 0000.0001) %MON ad_dynstat_adtheta_sd        =   3.3668443860607E+03
(PID.TID 0000.0001) %MON ad_dynstat_adtheta_del2      =   2.9869111887495E+03
(PID.TID 0000.0001) %MON ad_dynstat_adsalt_max        =   2.8336194809634E+05
(PID.TID 0000.0001) %MON ad_dynstat_adsalt_min        =  -3.4900582216808E+05
(PID.TID 0000.0001) %MON ad_dynstat_adsalt_mean       =  -2.1266991124254E+01
(PID.TID 0000.0001) %MON ad_dynstat_adsalt_sd         =   6.6037693049406E+04
(PID.TID 0000.0001) %MON ad_dynstat_adsalt_del2       =   5.8180544725286E+04
(PID.TID 0000.0001) %MON ad_dynstat_adsst_max         =   2.3750075910797E+04
(PID.TID 0000.0001) %MON ad_dynstat_adsst_min         =   2.3750075910797E+04
(PID.TID 0000.0001) %MON ad_dynstat_adsst_mean        =   2.3750075910797E+04
(PID.TID 0000.0001) %MON ad_dynstat_adsst_sd          =   0.0000000000000E+00
(PID.TID 0000.0001) %MON ad_dynstat_adsst_del2        =   6.7175358920880E+04
(PID.TID 0000.0001) %MON ad_dynstat_adsss_max         =  -3.4900582216808E+05
(PID.TID 0000.0001) %MON ad_dynstat_adsss_min         =  -3.4900582216808E+05
(PID.TID 0000.0001) %MON ad_dynstat_adsss_mean        =  -3.4900582216808E+05
(PID.TID 0000.0001) %MON ad_dynstat_adsss_sd          =   0.0000000000000E+00
(PID.TID 0000.0001) %MON ad_dynstat_adsss_del2        =   9.8713753411453E+05
(PID.TID 0000.0001) %MON ad_forcing_adqnet_max        =   0.0000000000000E+00
(PID.TID 0000.0001) %MON ad_forcing_adqnet_min        =   0.0000000000000E+00
(PID.TID 0000.0001) %MON ad_forcing_adqnet_mean       =   0.0000000000000E+00
(PID.TID 0000.0001) %MON ad_forcing_adqnet_sd         =   0.0000000000000E+00
(PID.TID 0000.0001) %MON ad_forcing_adqnet_del2       =   0.0000000000000E+00
(PID.TID 0000.0001) %MON ad_forcing_adqsw_max         =   0.0000000000000E+00
(PID.TID 0000.0001) %MON ad_forcing_adqsw_min         =   0.0000000000000E+00
(PID.TID 0000.0001) %MON ad_forcing_adqsw_mean        =   0.0000000000000E+00
(PID.TID 0000.0001) %MON ad_forcing_adqsw_sd          =   0.0000000000000E+00
(PID.TID 0000.0001) %MON ad_forcing_adqsw_del2        =   0.0000000000000E+00
(PID.TID 0000.0001) %MON ad_forcing_adempmr_max       =   0.0000000000000E+00
(PID.TID 0000.0001) %MON ad_forcing_adempmr_min       =   0.0000000000000E+00
(PID.TID 0000.0001) %MON ad_forcing_adempmr_mean      =   0.0000000000000E+00
(PID.TID 0000.0001) %MON ad_forcing_adempmr_sd        =   0.0000000000000E+00
(PID.TID 0000.0001) %MON ad_forcing_adempmr_del2      =   0.0000000000000E+00
(PID.TID 0000.0001) %MON ad_forcing_adfu_max          =   0.0000000000000E+00
(PID.TID 0000.0001) %MON ad_forcing_adfu_min          =   0.0000000000000E+00
(PID.TID 0000.0001) %MON ad_forcing_adfu_mean         =   0.0000000000000E+00
(PID.TID 0000.0001) %MON ad_forcing_adfu_sd           =   0.0000000000000E+00
(PID.TID 0000.0001) %MON ad_forcing_adfu_del2         =   0.0000000000000E+00
(PID.TID 0000.0001) %MON ad_forcing_adfv_max          =   0.0000000000000E+00
(PID.TID 0000.0001) %MON ad_forcing_adfv_min          =   0.0000000000000E+00
(PID.TID 0000.0001) %MON ad_forcing_adfv_mean         =   0.0000000000000E+00
(PID.TID 0000.0001) %MON ad_forcing_adfv_sd           =   0.0000000000000E+00
(PID.TID 0000.0001) %MON ad_forcing_adfv_del2         =   0.0000000000000E+00
(PID.TID 0000.0001) // =======================================================
(PID.TID 0000.0001) // End AD_MONITOR dynamic field statistics
(PID.TID 0000.0001) // =======================================================
(PID.TID 0000.0001) // =======================================================
(PID.TID 0000.0001) // Begin AD_MONITOR SEAICE statistics
(PID.TID 0000.0001) // =======================================================
(PID.TID 0000.0001) %MON ad_seaice_tsnumber           =                     4
(PID.TID 0000.0001) %MON ad_seaice_time_sec           =   1.4400000000000E+04
(PID.TID 0000.0001) %MON ad_seaice_aduice_max         =   1.0462376509856E+06
(PID.TID 0000.0001) %MON ad_seaice_aduice_min         =   1.0462376509856E+06
(PID.TID 0000.0001) %MON ad_seaice_aduice_mean        =   1.0462376509856E+06
(PID.TID 0000.0001) %MON ad_seaice_aduice_sd          =   0.0000000000000E+00
(PID.TID 0000.0001) %MON ad_seaice_aduice_del2        =   3.7722634969497E+06
(PID.TID 0000.0001) %MON ad_seaice_advice_max         =   1.0462376509856E+06
(PID.TID 0000.0001) %MON ad_seaice_advice_min         =   1.0462376509856E+06
(PID.TID 0000.0001) %MON ad_seaice_advice_mean        =   1.0462376509856E+06
(PID.TID 0000.0001) %MON ad_seaice_advice_sd          =   0.0000000000000E+00
(PID.TID 0000.0001) %MON ad_seaice_advice_del2        =   3.7722634969497E+06
(PID.TID 0000.0001) %MON ad_seaice_adarea_max         =   1.4147035301063E+07
(PID.TID 0000.0001) %MON ad_seaice_adarea_min         =   1.4147035301063E+07
(PID.TID 0000.0001) %MON ad_seaice_adarea_mean        =   1.4147035301063E+07
(PID.TID 0000.0001) %MON ad_seaice_adarea_sd          =   0.0000000000000E+00
(PID.TID 0000.0001) %MON ad_seaice_adarea_del2        =   4.0013989561943E+07
(PID.TID 0000.0001) %MON ad_seaice_adheff_max         =   1.4254127981328E+04
(PID.TID 0000.0001) %MON ad_seaice_adheff_min         =   1.4254127981328E+04
(PID.TID 0000.0001) %MON ad_seaice_adheff_mean        =   1.4254127981328E+04
(PID.TID 0000.0001) %MON ad_seaice_adheff_sd          =   0.0000000000000E+00
(PID.TID 0000.0001) %MON ad_seaice_adheff_del2        =   4.0316762221992E+04
(PID.TID 0000.0001) %MON ad_seaice_adhsnow_max        =   4.6230921139242E+04
(PID.TID 0000.0001) %MON ad_seaice_adhsnow_min        =   4.6230921139242E+04
(PID.TID 0000.0001) %MON ad_seaice_adhsnow_mean       =   4.6230921139242E+04
(PID.TID 0000.0001) %MON ad_seaice_adhsnow_sd         =   0.0000000000000E+00
(PID.TID 0000.0001) %MON ad_seaice_adhsnow_del2       =   1.3076079135223E+05
(PID.TID 0000.0001) %MON ad_seaice_adhsalt_max        =   0.0000000000000E+00
(PID.TID 0000.0001) %MON ad_seaice_adhsalt_min        =   0.0000000000000E+00
(PID.TID 0000.0001) %MON ad_seaice_adhsalt_mean       =   0.0000000000000E+00
(PID.TID 0000.0001) %MON ad_seaice_adhsalt_sd         =   0.0000000000000E+00
(PID.TID 0000.0001) %MON ad_seaice_adhsalt_del2       =   0.0000000000000E+00
(PID.TID 0000.0001) // =======================================================
(PID.TID 0000.0001) // End AD_MONITOR SEAICE statistics
(PID.TID 0000.0001) // =======================================================
 cg2d: Sum(rhs),rhsMax =  -1.00000000000000E+00  7.25809589381973E-12
(PID.TID 0000.0001) // =======================================================
(PID.TID 0000.0001) // Begin AD_MONITOR EXF statistics for iwhen =  3
(PID.TID 0000.0001) // =======================================================
(PID.TID 0000.0001) %MON ad_exf_tsnumber              =                     3
(PID.TID 0000.0001) %MON ad_exf_time_sec              =   1.0800000000000E+04
(PID.TID 0000.0001) %MON ad_exf_adfu_max              =   1.4539498172424E+04
(PID.TID 0000.0001) %MON ad_exf_adfu_min              =   1.4539498172424E+04
(PID.TID 0000.0001) %MON ad_exf_adfu_mean             =   1.4539498172424E+04
(PID.TID 0000.0001) %MON ad_exf_adfu_sd               =   0.0000000000000E+00
(PID.TID 0000.0001) %MON ad_exf_adfu_del2             =   3.1948751028192E+04
(PID.TID 0000.0001) %MON ad_exf_adfv_max              =   1.4673286139352E+04
(PID.TID 0000.0001) %MON ad_exf_adfv_min              =   1.4673286139352E+04
(PID.TID 0000.0001) %MON ad_exf_adfv_mean             =   1.4673286139352E+04
(PID.TID 0000.0001) %MON ad_exf_adfv_sd               =   0.0000000000000E+00
(PID.TID 0000.0001) %MON ad_exf_adfv_del2             =   3.2303400475885E+04
(PID.TID 0000.0001) %MON ad_exf_adqnet_max            =  -1.1917417668458E+00
(PID.TID 0000.0001) %MON ad_exf_adqnet_min            =  -1.1917417668458E+00
(PID.TID 0000.0001) %MON ad_exf_adqnet_mean           =  -1.1917417668458E+00
(PID.TID 0000.0001) %MON ad_exf_adqnet_sd             =   0.0000000000000E+00
(PID.TID 0000.0001) %MON ad_exf_adqnet_del2           =   3.3707547390396E+00
(PID.TID 0000.0001) %MON ad_exf_adempmr_max           =  -1.0901319908715E+07
(PID.TID 0000.0001) %MON ad_exf_adempmr_min           =  -1.0901319908715E+07
(PID.TID 0000.0001) %MON ad_exf_adempmr_mean          =  -1.0901319908715E+07
(PID.TID 0000.0001) %MON ad_exf_adempmr_sd            =   0.0000000000000E+00
(PID.TID 0000.0001) %MON ad_exf_adempmr_del2          =   3.0833588925345E+07
(PID.TID 0000.0001) // =======================================================
(PID.TID 0000.0001) // End AD_MONITOR EXF statistics for iwhen =  3
(PID.TID 0000.0001) // =======================================================
(PID.TID 0000.0001) // =======================================================
(PID.TID 0000.0001) // Begin AD_MONITOR EXF statistics for iwhen =  1
(PID.TID 0000.0001) // =======================================================
(PID.TID 0000.0001) %MON ad_exf_tsnumber              =                     3
(PID.TID 0000.0001) %MON ad_exf_time_sec              =   1.0800000000000E+04
(PID.TID 0000.0001) %MON ad_exf_adustress_max         =   1.4971998665120E+04
(PID.TID 0000.0001) %MON ad_exf_adustress_min         =   1.4971998665120E+04
(PID.TID 0000.0001) %MON ad_exf_adustress_mean        =   1.4971998665120E+04
(PID.TID 0000.0001) %MON ad_exf_adustress_sd          =   0.0000000000000E+00
(PID.TID 0000.0001) %MON ad_exf_adustress_del2        =   3.3478406774245E+04
(PID.TID 0000.0001) %MON ad_exf_advstress_max         =   1.5037922522064E+04
(PID.TID 0000.0001) %MON ad_exf_advstress_min         =   1.5037922522064E+04
(PID.TID 0000.0001) %MON ad_exf_advstress_mean        =   1.5037922522064E+04
(PID.TID 0000.0001) %MON ad_exf_advstress_sd          =   0.0000000000000E+00
(PID.TID 0000.0001) %MON ad_exf_advstress_del2        =   3.3625816999709E+04
(PID.TID 0000.0001) %MON ad_exf_adhflux_max           =   0.0000000000000E+00
(PID.TID 0000.0001) %MON ad_exf_adhflux_min           =   0.0000000000000E+00
(PID.TID 0000.0001) %MON ad_exf_adhflux_mean          =   0.0000000000000E+00
(PID.TID 0000.0001) %MON ad_exf_adhflux_sd            =   0.0000000000000E+00
(PID.TID 0000.0001) %MON ad_exf_adhflux_del2          =   0.0000000000000E+00
(PID.TID 0000.0001) %MON ad_exf_adsflux_max           =   0.0000000000000E+00
(PID.TID 0000.0001) %MON ad_exf_adsflux_min           =   0.0000000000000E+00
(PID.TID 0000.0001) %MON ad_exf_adsflux_mean          =   0.0000000000000E+00
(PID.TID 0000.0001) %MON ad_exf_adsflux_sd            =   0.0000000000000E+00
(PID.TID 0000.0001) %MON ad_exf_adsflux_del2          =   0.0000000000000E+00
(PID.TID 0000.0001) %MON ad_exf_adwspeed_max          =  -8.4539248638747E+00
(PID.TID 0000.0001) %MON ad_exf_adwspeed_min          =  -8.4539248638747E+00
(PID.TID 0000.0001) %MON ad_exf_adwspeed_mean         =  -8.4539248638747E+00
(PID.TID 0000.0001) %MON ad_exf_adwspeed_sd           =   0.0000000000000E+00
(PID.TID 0000.0001) %MON ad_exf_adwspeed_del2         =   2.3911310395549E+01
(PID.TID 0000.0001) // =======================================================
(PID.TID 0000.0001) // End AD_MONITOR EXF statistics for iwhen =  1
(PID.TID 0000.0001) // =======================================================
(PID.TID 0000.0001) // =======================================================
(PID.TID 0000.0001) // Begin AD_MONITOR EXF statistics for iwhen =  2
(PID.TID 0000.0001) // =======================================================
(PID.TID 0000.0001) %MON ad_exf_tsnumber              =                     3
(PID.TID 0000.0001) %MON ad_exf_time_sec              =   1.0800000000000E+04
(PID.TID 0000.0001) %MON ad_exf_aduwind_max           =   8.0582144949889E+03
(PID.TID 0000.0001) %MON ad_exf_aduwind_min           =   8.0582144949889E+03
(PID.TID 0000.0001) %MON ad_exf_aduwind_mean          =   8.0582144949889E+03
(PID.TID 0000.0001) %MON ad_exf_aduwind_sd            =   0.0000000000000E+00
(PID.TID 0000.0001) %MON ad_exf_aduwind_del2          =   2.2792072454649E+04
(PID.TID 0000.0001) %MON ad_exf_advwind_max           =   8.0589992614788E+03
(PID.TID 0000.0001) %MON ad_exf_advwind_min           =   8.0589992614788E+03
(PID.TID 0000.0001) %MON ad_exf_advwind_mean          =   8.0589992614788E+03
(PID.TID 0000.0001) %MON ad_exf_advwind_sd            =   0.0000000000000E+00
(PID.TID 0000.0001) %MON ad_exf_advwind_del2          =   2.2794292109476E+04
(PID.TID 0000.0001) %MON ad_exf_adatemp_max           =  -2.6196579859313E+03
(PID.TID 0000.0001) %MON ad_exf_adatemp_min           =  -2.6196579859313E+03
(PID.TID 0000.0001) %MON ad_exf_adatemp_mean          =  -2.6196579859313E+03
(PID.TID 0000.0001) %MON ad_exf_adatemp_sd            =   0.0000000000000E+00
(PID.TID 0000.0001) %MON ad_exf_adatemp_del2          =   7.4095117049661E+03
(PID.TID 0000.0001) %MON ad_exf_adaqh_max             =  -2.1639944884322E+07
(PID.TID 0000.0001) %MON ad_exf_adaqh_min             =  -2.1639944884322E+07
(PID.TID 0000.0001) %MON ad_exf_adaqh_mean            =  -2.1639944884322E+07
(PID.TID 0000.0001) %MON ad_exf_adaqh_sd              =   0.0000000000000E+00
(PID.TID 0000.0001) %MON ad_exf_adaqh_del2            =   6.1207007088830E+07
(PID.TID 0000.0001) %MON ad_exf_adlwflux_max          =   0.0000000000000E+00
(PID.TID 0000.0001) %MON ad_exf_adlwflux_min          =   0.0000000000000E+00
(PID.TID 0000.0001) %MON ad_exf_adlwflux_mean         =   0.0000000000000E+00
(PID.TID 0000.0001) %MON ad_exf_adlwflux_sd           =   0.0000000000000E+00
(PID.TID 0000.0001) %MON ad_exf_adlwflux_del2         =   0.0000000000000E+00
(PID.TID 0000.0001) %MON ad_exf_adprecip_max          =   5.4158165772455E+10
(PID.TID 0000.0001) %MON ad_exf_adprecip_min          =   5.4158165772455E+10
(PID.TID 0000.0001) %MON ad_exf_adprecip_mean         =   5.4158165772455E+10
(PID.TID 0000.0001) %MON ad_exf_adprecip_sd           =   0.0000000000000E+00
(PID.TID 0000.0001) %MON ad_exf_adprecip_del2         =   1.5318242509731E+11
(PID.TID 0000.0001) %MON ad_exf_adswflux_max          =   0.0000000000000E+00
(PID.TID 0000.0001) %MON ad_exf_adswflux_min          =   0.0000000000000E+00
(PID.TID 0000.0001) %MON ad_exf_adswflux_mean         =   0.0000000000000E+00
(PID.TID 0000.0001) %MON ad_exf_adswflux_sd           =   0.0000000000000E+00
(PID.TID 0000.0001) %MON ad_exf_adswflux_del2         =   0.0000000000000E+00
(PID.TID 0000.0001) %MON ad_exf_adswdown_max          =  -2.5358385389234E+02
(PID.TID 0000.0001) %MON ad_exf_adswdown_min          =  -2.5358385389234E+02
(PID.TID 0000.0001) %MON ad_exf_adswdown_mean         =  -2.5358385389234E+02
(PID.TID 0000.0001) %MON ad_exf_adswdown_sd           =   0.0000000000000E+00
(PID.TID 0000.0001) %MON ad_exf_adswdown_del2         =   7.1724345074677E+02
(PID.TID 0000.0001) %MON ad_exf_adlwdown_max          =  -3.6604859156647E+02
(PID.TID 0000.0001) %MON ad_exf_adlwdown_min          =  -3.6604859156647E+02
(PID.TID 0000.0001) %MON ad_exf_adlwdown_mean         =  -3.6604859156647E+02
(PID.TID 0000.0001) %MON ad_exf_adlwdown_sd           =   0.0000000000000E+00
(PID.TID 0000.0001) %MON ad_exf_adlwdown_del2         =   1.0353417653617E+03
(PID.TID 0000.0001) %MON ad_exf_adrunoff_max          =   5.5653222764067E+10
(PID.TID 0000.0001) %MON ad_exf_adrunoff_min          =   5.5653222764067E+10
(PID.TID 0000.0001) %MON ad_exf_adrunoff_mean         =   5.5653222764067E+10
(PID.TID 0000.0001) %MON ad_exf_adrunoff_sd           =   0.0000000000000E+00
(PID.TID 0000.0001) %MON ad_exf_adrunoff_del2         =   1.5741108484543E+11
(PID.TID 0000.0001) // =======================================================
(PID.TID 0000.0001) // End AD_MONITOR EXF statistics for iwhen =  2
(PID.TID 0000.0001) // =======================================================
(PID.TID 0000.0001) // =======================================================
(PID.TID 0000.0001) // Begin AD_MONITOR dynamic field statistics
(PID.TID 0000.0001) // =======================================================
(PID.TID 0000.0001) %MON ad_time_tsnumber             =                     3
(PID.TID 0000.0001) %MON ad_time_secondsf             =   1.0800000000000E+04
(PID.TID 0000.0001) %MON ad_dynstat_adeta_max         =  -3.6565959453617E-08
(PID.TID 0000.0001) %MON ad_dynstat_adeta_min         =  -3.6565959453617E-08
(PID.TID 0000.0001) %MON ad_dynstat_adeta_mean        =  -3.6565959453617E-08
(PID.TID 0000.0001) %MON ad_dynstat_adeta_sd          =   0.0000000000000E+00
(PID.TID 0000.0001) %MON ad_dynstat_adeta_del2        =   1.0342415156098E-07
(PID.TID 0000.0001) %MON ad_dynstat_aduvel_max        =   3.5483004243149E+03
(PID.TID 0000.0001) %MON ad_dynstat_aduvel_min        =  -4.4882351869046E+03
(PID.TID 0000.0001) %MON ad_dynstat_aduvel_mean       =   1.0541038901892E-09
(PID.TID 0000.0001) %MON ad_dynstat_aduvel_sd         =   8.3196562230318E+02
(PID.TID 0000.0001) %MON ad_dynstat_aduvel_del2       =   7.3297852110086E+02
(PID.TID 0000.0001) %MON ad_dynstat_advvel_max        =   5.7066988030764E+03
(PID.TID 0000.0001) %MON ad_dynstat_advvel_min        =  -4.9415478962007E+03
(PID.TID 0000.0001) %MON ad_dynstat_advvel_mean       =  -2.2058136459542E-09
(PID.TID 0000.0001) %MON ad_dynstat_advvel_sd         =   1.0953287268575E+03
(PID.TID 0000.0001) %MON ad_dynstat_advvel_del2       =   9.6500673682733E+02
(PID.TID 0000.0001) %MON ad_dynstat_adwvel_max        =   3.0132976649831E+03
(PID.TID 0000.0001) %MON ad_dynstat_adwvel_min        =  -1.1687804196183E+03
(PID.TID 0000.0001) %MON ad_dynstat_adwvel_mean       =   4.1616030861740E+01
(PID.TID 0000.0001) %MON ad_dynstat_adwvel_sd         =   4.6671729483897E+02
(PID.TID 0000.0001) %MON ad_dynstat_adwvel_del2       =   3.9816563526357E+02
(PID.TID 0000.0001) %MON ad_dynstat_adtheta_max       =   4.7221107904544E+04
(PID.TID 0000.0001) %MON ad_dynstat_adtheta_min       =  -6.4402379271974E+03
(PID.TID 0000.0001) %MON ad_dynstat_adtheta_mean      =   9.7641901521853E+02
(PID.TID 0000.0001) %MON ad_dynstat_adtheta_sd        =   6.6604721230199E+03
(PID.TID 0000.0001) %MON ad_dynstat_adtheta_del2      =   5.9307308545136E+03
(PID.TID 0000.0001) %MON ad_dynstat_adsalt_max        =   3.7044105314679E+05
(PID.TID 0000.0001) %MON ad_dynstat_adsalt_min        =  -4.2721133909022E+05
(PID.TID 0000.0001) %MON ad_dynstat_adsalt_mean       =  -2.8500142470786E+01
(PID.TID 0000.0001) %MON ad_dynstat_adsalt_sd         =   8.2681127766737E+04
(PID.TID 0000.0001) %MON ad_dynstat_adsalt_del2       =   7.2843748262130E+04
(PID.TID 0000.0001) %MON ad_dynstat_adsst_max         =   4.7221107904544E+04
(PID.TID 0000.0001) %MON ad_dynstat_adsst_min         =   4.7221107904544E+04
(PID.TID 0000.0001) %MON ad_dynstat_adsst_mean        =   4.7221107904544E+04
(PID.TID 0000.0001) %MON ad_dynstat_adsst_sd          =   0.0000000000000E+00
(PID.TID 0000.0001) %MON ad_dynstat_adsst_del2        =   1.3356146245778E+05
(PID.TID 0000.0001) %MON ad_dynstat_adsss_max         =  -4.2721133909022E+05
(PID.TID 0000.0001) %MON ad_dynstat_adsss_min         =  -4.2721133909022E+05
(PID.TID 0000.0001) %MON ad_dynstat_adsss_mean        =  -4.2721133909022E+05
(PID.TID 0000.0001) %MON ad_dynstat_adsss_sd          =   0.0000000000000E+00
(PID.TID 0000.0001) %MON ad_dynstat_adsss_del2        =   1.2083361394819E+06
(PID.TID 0000.0001) %MON ad_forcing_adqnet_max        =   0.0000000000000E+00
(PID.TID 0000.0001) %MON ad_forcing_adqnet_min        =   0.0000000000000E+00
(PID.TID 0000.0001) %MON ad_forcing_adqnet_mean       =   0.0000000000000E+00
(PID.TID 0000.0001) %MON ad_forcing_adqnet_sd         =   0.0000000000000E+00
(PID.TID 0000.0001) %MON ad_forcing_adqnet_del2       =   0.0000000000000E+00
(PID.TID 0000.0001) %MON ad_forcing_adqsw_max         =   0.0000000000000E+00
(PID.TID 0000.0001) %MON ad_forcing_adqsw_min         =   0.0000000000000E+00
(PID.TID 0000.0001) %MON ad_forcing_adqsw_mean        =   0.0000000000000E+00
(PID.TID 0000.0001) %MON ad_forcing_adqsw_sd          =   0.0000000000000E+00
(PID.TID 0000.0001) %MON ad_forcing_adqsw_del2        =   0.0000000000000E+00
(PID.TID 0000.0001) %MON ad_forcing_adempmr_max       =   0.0000000000000E+00
(PID.TID 0000.0001) %MON ad_forcing_adempmr_min       =   0.0000000000000E+00
(PID.TID 0000.0001) %MON ad_forcing_adempmr_mean      =   0.0000000000000E+00
(PID.TID 0000.0001) %MON ad_forcing_adempmr_sd        =   0.0000000000000E+00
(PID.TID 0000.0001) %MON ad_forcing_adempmr_del2      =   0.0000000000000E+00
(PID.TID 0000.0001) %MON ad_forcing_adfu_max          =   0.0000000000000E+00
(PID.TID 0000.0001) %MON ad_forcing_adfu_min          =   0.0000000000000E+00
(PID.TID 0000.0001) %MON ad_forcing_adfu_mean         =   0.0000000000000E+00
(PID.TID 0000.0001) %MON ad_forcing_adfu_sd           =   0.0000000000000E+00
(PID.TID 0000.0001) %MON ad_forcing_adfu_del2         =   0.0000000000000E+00
(PID.TID 0000.0001) %MON ad_forcing_adfv_max          =   0.0000000000000E+00
(PID.TID 0000.0001) %MON ad_forcing_adfv_min          =   0.0000000000000E+00
(PID.TID 0000.0001) %MON ad_forcing_adfv_mean         =   0.0000000000000E+00
(PID.TID 0000.0001) %MON ad_forcing_adfv_sd           =   0.0000000000000E+00
(PID.TID 0000.0001) %MON ad_forcing_adfv_del2         =   0.0000000000000E+00
(PID.TID 0000.0001) // =======================================================
(PID.TID 0000.0001) // End AD_MONITOR dynamic field statistics
(PID.TID 0000.0001) // =======================================================
(PID.TID 0000.0001) // =======================================================
(PID.TID 0000.0001) // Begin AD_MONITOR SEAICE statistics
(PID.TID 0000.0001) // =======================================================
(PID.TID 0000.0001) %MON ad_seaice_tsnumber           =                     3
(PID.TID 0000.0001) %MON ad_seaice_time_sec           =   1.0800000000000E+04
(PID.TID 0000.0001) %MON ad_seaice_aduice_max         =   1.2175641472001E+06
(PID.TID 0000.0001) %MON ad_seaice_aduice_min         =   1.2175641472001E+06
(PID.TID 0000.0001) %MON ad_seaice_aduice_mean        =   1.2175641472001E+06
(PID.TID 0000.0001) %MON ad_seaice_aduice_sd          =   0.0000000000000E+00
(PID.TID 0000.0001) %MON ad_seaice_aduice_del2        =   4.3899899638967E+06
(PID.TID 0000.0001) %MON ad_seaice_advice_max         =   1.2175641472001E+06
(PID.TID 0000.0001) %MON ad_seaice_advice_min         =   1.2175641472001E+06
(PID.TID 0000.0001) %MON ad_seaice_advice_mean        =   1.2175641472001E+06
(PID.TID 0000.0001) %MON ad_seaice_advice_sd          =   0.0000000000000E+00
(PID.TID 0000.0001) %MON ad_seaice_advice_del2        =   4.3899899638967E+06
(PID.TID 0000.0001) %MON ad_seaice_adarea_max         =   1.6402968635751E+07
(PID.TID 0000.0001) %MON ad_seaice_adarea_min         =   1.6402968635751E+07
(PID.TID 0000.0001) %MON ad_seaice_adarea_mean        =   1.6402968635751E+07
(PID.TID 0000.0001) %MON ad_seaice_adarea_sd          =   0.0000000000000E+00
(PID.TID 0000.0001) %MON ad_seaice_adarea_del2        =   4.6394729578568E+07
(PID.TID 0000.0001) %MON ad_seaice_adheff_max         =   1.5429492747052E+04
(PID.TID 0000.0001) %MON ad_seaice_adheff_min         =   1.5429492747052E+04
(PID.TID 0000.0001) %MON ad_seaice_adheff_mean        =   1.5429492747052E+04
(PID.TID 0000.0001) %MON ad_seaice_adheff_sd          =   0.0000000000000E+00
(PID.TID 0000.0001) %MON ad_seaice_adheff_del2        =   4.3641195806838E+04
(PID.TID 0000.0001) %MON ad_seaice_adhsnow_max        =   5.1825915368273E+04
(PID.TID 0000.0001) %MON ad_seaice_adhsnow_min        =   5.1825915368273E+04
(PID.TID 0000.0001) %MON ad_seaice_adhsnow_mean       =   5.1825915368273E+04
(PID.TID 0000.0001) %MON ad_seaice_adhsnow_sd         =   0.0000000000000E+00
(PID.TID 0000.0001) %MON ad_seaice_adhsnow_del2       =   1.4658582479242E+05
(PID.TID 0000.0001) %MON ad_seaice_adhsalt_max        =   0.0000000000000E+00
(PID.TID 0000.0001) %MON ad_seaice_adhsalt_min        =   0.0000000000000E+00
(PID.TID 0000.0001) %MON ad_seaice_adhsalt_mean       =   0.0000000000000E+00
(PID.TID 0000.0001) %MON ad_seaice_adhsalt_sd         =   0.0000000000000E+00
(PID.TID 0000.0001) %MON ad_seaice_adhsalt_del2       =   0.0000000000000E+00
(PID.TID 0000.0001) // =======================================================
(PID.TID 0000.0001) // End AD_MONITOR SEAICE statistics
(PID.TID 0000.0001) // =======================================================
 cg2d: Sum(rhs),rhsMax =  -1.00000000000000E+00  7.25809589381973E-12
(PID.TID 0000.0001) // =======================================================
(PID.TID 0000.0001) // Begin AD_MONITOR EXF statistics for iwhen =  3
(PID.TID 0000.0001) // =======================================================
(PID.TID 0000.0001) %MON ad_exf_tsnumber              =                     2
(PID.TID 0000.0001) %MON ad_exf_time_sec              =   7.2000000000000E+03
(PID.TID 0000.0001) %MON ad_exf_adfu_max              =   1.2069433267744E+04
(PID.TID 0000.0001) %MON ad_exf_adfu_min              =   1.2069433267744E+04
(PID.TID 0000.0001) %MON ad_exf_adfu_mean             =   1.2069433267744E+04
(PID.TID 0000.0001) %MON ad_exf_adfu_sd               =   0.0000000000000E+00
(PID.TID 0000.0001) %MON ad_exf_adfu_del2             =   2.6532572451188E+04
(PID.TID 0000.0001) %MON ad_exf_adfv_max              =   1.1561063524156E+04
(PID.TID 0000.0001) %MON ad_exf_adfv_min              =   1.1561063524156E+04
(PID.TID 0000.0001) %MON ad_exf_adfv_mean             =   1.1561063524156E+04
(PID.TID 0000.0001) %MON ad_exf_adfv_sd               =   0.0000000000000E+00
(PID.TID 0000.0001) %MON ad_exf_adfv_del2             =   2.5190548844939E+04
(PID.TID 0000.0001) %MON ad_exf_adqnet_max            =  -1.6981408241850E+00
(PID.TID 0000.0001) %MON ad_exf_adqnet_min            =  -1.6981408241850E+00
(PID.TID 0000.0001) %MON ad_exf_adqnet_mean           =  -1.6981408241850E+00
(PID.TID 0000.0001) %MON ad_exf_adqnet_sd             =   0.0000000000000E+00
(PID.TID 0000.0001) %MON ad_exf_adqnet_del2           =   4.8030675687638E+00
(PID.TID 0000.0001) %MON ad_exf_adempmr_max           =  -9.2539021134588E+06
(PID.TID 0000.0001) %MON ad_exf_adempmr_min           =  -9.2539021134588E+06
(PID.TID 0000.0001) %MON ad_exf_adempmr_mean          =  -9.2539021134588E+06
(PID.TID 0000.0001) %MON ad_exf_adempmr_sd            =   0.0000000000000E+00
(PID.TID 0000.0001) %MON ad_exf_adempmr_del2          =   2.6173987747453E+07
(PID.TID 0000.0001) // =======================================================
(PID.TID 0000.0001) // End AD_MONITOR EXF statistics for iwhen =  3
(PID.TID 0000.0001) // =======================================================
(PID.TID 0000.0001) // =======================================================
(PID.TID 0000.0001) // Begin AD_MONITOR EXF statistics for iwhen =  1
(PID.TID 0000.0001) // =======================================================
(PID.TID 0000.0001) %MON ad_exf_tsnumber              =                     2
(PID.TID 0000.0001) %MON ad_exf_time_sec              =   7.2000000000000E+03
(PID.TID 0000.0001) %MON ad_exf_adustress_max         =   1.2485546002076E+04
(PID.TID 0000.0001) %MON ad_exf_adustress_min         =   1.2485546002076E+04
(PID.TID 0000.0001) %MON ad_exf_adustress_mean        =   1.2485546002076E+04
(PID.TID 0000.0001) %MON ad_exf_adustress_sd          =   0.0000000000000E+00
(PID.TID 0000.0001) %MON ad_exf_adustress_del2        =   2.7918529596843E+04
(PID.TID 0000.0001) %MON ad_exf_advstress_max         =   1.2233620184718E+04
(PID.TID 0000.0001) %MON ad_exf_advstress_min         =   1.2233620184718E+04
(PID.TID 0000.0001) %MON ad_exf_advstress_mean        =   1.2233620184718E+04
(PID.TID 0000.0001) %MON ad_exf_advstress_sd          =   0.0000000000000E+00
(PID.TID 0000.0001) %MON ad_exf_advstress_del2        =   2.7355206343943E+04
(PID.TID 0000.0001) %MON ad_exf_adhflux_max           =   0.0000000000000E+00
(PID.TID 0000.0001) %MON ad_exf_adhflux_min           =   0.0000000000000E+00
(PID.TID 0000.0001) %MON ad_exf_adhflux_mean          =   0.0000000000000E+00
(PID.TID 0000.0001) %MON ad_exf_adhflux_sd            =   0.0000000000000E+00
(PID.TID 0000.0001) %MON ad_exf_adhflux_del2          =   0.0000000000000E+00
(PID.TID 0000.0001) %MON ad_exf_adsflux_max           =   0.0000000000000E+00
(PID.TID 0000.0001) %MON ad_exf_adsflux_min           =   0.0000000000000E+00
(PID.TID 0000.0001) %MON ad_exf_adsflux_mean          =   0.0000000000000E+00
(PID.TID 0000.0001) %MON ad_exf_adsflux_sd            =   0.0000000000000E+00
(PID.TID 0000.0001) %MON ad_exf_adsflux_del2          =   0.0000000000000E+00
(PID.TID 0000.0001) %MON ad_exf_adwspeed_max          =  -4.4459987128636E+00
(PID.TID 0000.0001) %MON ad_exf_adwspeed_min          =  -4.4459987128636E+00
(PID.TID 0000.0001) %MON ad_exf_adwspeed_mean         =  -4.4459987128636E+00
(PID.TID 0000.0001) %MON ad_exf_adwspeed_sd           =   0.0000000000000E+00
(PID.TID 0000.0001) %MON ad_exf_adwspeed_del2         =   1.2575183356050E+01
(PID.TID 0000.0001) // =======================================================
(PID.TID 0000.0001) // End AD_MONITOR EXF statistics for iwhen =  1
(PID.TID 0000.0001) // =======================================================
(PID.TID 0000.0001) // =======================================================
(PID.TID 0000.0001) // Begin AD_MONITOR EXF statistics for iwhen =  2
(PID.TID 0000.0001) // =======================================================
(PID.TID 0000.0001) %MON ad_exf_tsnumber              =                     2
(PID.TID 0000.0001) %MON ad_exf_time_sec              =   7.2000000000000E+03
(PID.TID 0000.0001) %MON ad_exf_aduwind_max           =   9.3047884129655E+03
(PID.TID 0000.0001) %MON ad_exf_aduwind_min           =   9.3047884129655E+03
(PID.TID 0000.0001) %MON ad_exf_aduwind_mean          =   9.3047884129655E+03
(PID.TID 0000.0001) %MON ad_exf_aduwind_sd            =   1.8189894035459E-12
(PID.TID 0000.0001) %MON ad_exf_aduwind_del2          =   2.6317915937256E+04
(PID.TID 0000.0001) %MON ad_exf_advwind_max           =   9.3017894835215E+03
(PID.TID 0000.0001) %MON ad_exf_advwind_min           =   9.3017894835215E+03
(PID.TID 0000.0001) %MON ad_exf_advwind_mean          =   9.3017894835215E+03
(PID.TID 0000.0001) %MON ad_exf_advwind_sd            =   0.0000000000000E+00
(PID.TID 0000.0001) %MON ad_exf_advwind_del2          =   2.6309433683871E+04
(PID.TID 0000.0001) %MON ad_exf_adatemp_max           =  -3.0381290048837E+03
(PID.TID 0000.0001) %MON ad_exf_adatemp_min           =  -3.0381290048837E+03
(PID.TID 0000.0001) %MON ad_exf_adatemp_mean          =  -3.0381290048837E+03
(PID.TID 0000.0001) %MON ad_exf_adatemp_sd            =   0.0000000000000E+00
(PID.TID 0000.0001) %MON ad_exf_adatemp_del2          =   8.5931264858912E+03
(PID.TID 0000.0001) %MON ad_exf_adaqh_max             =  -2.8028257662151E+07
(PID.TID 0000.0001) %MON ad_exf_adaqh_min             =  -2.8028257662151E+07
(PID.TID 0000.0001) %MON ad_exf_adaqh_mean            =  -2.8028257662151E+07
(PID.TID 0000.0001) %MON ad_exf_adaqh_sd              =   0.0000000000000E+00
(PID.TID 0000.0001) %MON ad_exf_adaqh_del2            =   7.9275884231004E+07
(PID.TID 0000.0001) %MON ad_exf_adlwflux_max          =   0.0000000000000E+00
(PID.TID 0000.0001) %MON ad_exf_adlwflux_min          =   0.0000000000000E+00
(PID.TID 0000.0001) %MON ad_exf_adlwflux_mean         =   0.0000000000000E+00
(PID.TID 0000.0001) %MON ad_exf_adlwflux_sd           =   0.0000000000000E+00
(PID.TID 0000.0001) %MON ad_exf_adlwflux_del2         =   0.0000000000000E+00
(PID.TID 0000.0001) %MON ad_exf_adprecip_max          =   6.3333013717587E+10
(PID.TID 0000.0001) %MON ad_exf_adprecip_min          =   6.3333013717587E+10
(PID.TID 0000.0001) %MON ad_exf_adprecip_mean         =   6.3333013717587E+10
(PID.TID 0000.0001) %MON ad_exf_adprecip_sd           =   0.0000000000000E+00
(PID.TID 0000.0001) %MON ad_exf_adprecip_del2         =   1.7913281389075E+11
(PID.TID 0000.0001) %MON ad_exf_adswflux_max          =   0.0000000000000E+00
(PID.TID 0000.0001) %MON ad_exf_adswflux_min          =   0.0000000000000E+00
(PID.TID 0000.0001) %MON ad_exf_adswflux_mean         =   0.0000000000000E+00
(PID.TID 0000.0001) %MON ad_exf_adswflux_sd           =   0.0000000000000E+00
(PID.TID 0000.0001) %MON ad_exf_adswflux_del2         =   0.0000000000000E+00
(PID.TID 0000.0001) %MON ad_exf_adswdown_max          =  -2.9414106296256E+02
(PID.TID 0000.0001) %MON ad_exf_adswdown_min          =  -2.9414106296256E+02
(PID.TID 0000.0001) %MON ad_exf_adswdown_mean         =  -2.9414106296256E+02
(PID.TID 0000.0001) %MON ad_exf_adswdown_sd           =   0.0000000000000E+00
(PID.TID 0000.0001) %MON ad_exf_adswdown_del2         =   8.3195656098498E+02
(PID.TID 0000.0001) %MON ad_exf_adlwdown_max          =  -4.2464540858785E+02
(PID.TID 0000.0001) %MON ad_exf_adlwdown_min          =  -4.2464540858785E+02
(PID.TID 0000.0001) %MON ad_exf_adlwdown_mean         =  -4.2464540858785E+02
(PID.TID 0000.0001) %MON ad_exf_adlwdown_sd           =   0.0000000000000E+00
(PID.TID 0000.0001) %MON ad_exf_adlwdown_del2         =   1.2010785920488E+03
(PID.TID 0000.0001) %MON ad_exf_adrunoff_max          =   6.4905274097103E+10
(PID.TID 0000.0001) %MON ad_exf_adrunoff_min          =   6.4905274097103E+10
(PID.TID 0000.0001) %MON ad_exf_adrunoff_mean         =   6.4905274097103E+10
(PID.TID 0000.0001) %MON ad_exf_adrunoff_sd           =   0.0000000000000E+00
(PID.TID 0000.0001) %MON ad_exf_adrunoff_del2         =   1.8357983779533E+11
(PID.TID 0000.0001) // =======================================================
(PID.TID 0000.0001) // End AD_MONITOR EXF statistics for iwhen =  2
(PID.TID 0000.0001) // =======================================================
(PID.TID 0000.0001) // =======================================================
(PID.TID 0000.0001) // Begin AD_MONITOR dynamic field statistics
(PID.TID 0000.0001) // =======================================================
(PID.TID 0000.0001) %MON ad_time_tsnumber             =                     2
(PID.TID 0000.0001) %MON ad_time_secondsf             =   7.2000000000000E+03
(PID.TID 0000.0001) %MON ad_dynstat_adeta_max         =  -3.6565959453617E-08
(PID.TID 0000.0001) %MON ad_dynstat_adeta_min         =  -3.6565959453617E-08
(PID.TID 0000.0001) %MON ad_dynstat_adeta_mean        =  -3.6565959453617E-08
(PID.TID 0000.0001) %MON ad_dynstat_adeta_sd          =   0.0000000000000E+00
(PID.TID 0000.0001) %MON ad_dynstat_adeta_del2        =   1.0342415156098E-07
(PID.TID 0000.0001) %MON ad_dynstat_aduvel_max        =   1.9700885580367E+03
(PID.TID 0000.0001) %MON ad_dynstat_aduvel_min        =  -2.9671361148282E+03
(PID.TID 0000.0001) %MON ad_dynstat_aduvel_mean       =   1.9012413205066E-09
(PID.TID 0000.0001) %MON ad_dynstat_aduvel_sd         =   5.2776270490602E+02
(PID.TID 0000.0001) %MON ad_dynstat_aduvel_del2       =   4.6496960519029E+02
(PID.TID 0000.0001) %MON ad_dynstat_advvel_max        =   7.2463127820352E+03
(PID.TID 0000.0001) %MON ad_dynstat_advvel_min        =  -5.7680335313581E+03
(PID.TID 0000.0001) %MON ad_dynstat_advvel_mean       =  -1.2539174167187E-09
(PID.TID 0000.0001) %MON ad_dynstat_advvel_sd         =   1.3413487273470E+03
(PID.TID 0000.0001) %MON ad_dynstat_advvel_del2       =   1.1817553274972E+03
(PID.TID 0000.0001) %MON ad_dynstat_adwvel_max        =   2.7463843092857E+03
(PID.TID 0000.0001) %MON ad_dynstat_adwvel_min        =  -7.3067273801420E+02
(PID.TID 0000.0001) %MON ad_dynstat_adwvel_mean       =   4.6427103083973E+01
(PID.TID 0000.0001) %MON ad_dynstat_adwvel_sd         =   4.0995801997888E+02
(PID.TID 0000.0001) %MON ad_dynstat_adwvel_del2       =   3.5058783296115E+02
(PID.TID 0000.0001) %MON ad_dynstat_adtheta_max       =   6.4842160617848E+04
(PID.TID 0000.0001) %MON ad_dynstat_adtheta_min       =  -7.4452432603098E+03
(PID.TID 0000.0001) %MON ad_dynstat_adtheta_mean      =   1.6017074410047E+03
(PID.TID 0000.0001) %MON ad_dynstat_adtheta_sd        =   9.3356433601795E+03
(PID.TID 0000.0001) %MON ad_dynstat_adtheta_del2      =   8.3450661296436E+03
(PID.TID 0000.0001) %MON ad_dynstat_adsalt_max        =   4.4442449045441E+05
(PID.TID 0000.0001) %MON ad_dynstat_adsalt_min        =  -4.5755265539382E+05
(PID.TID 0000.0001) %MON ad_dynstat_adsalt_mean       =  -3.5377629009336E+01
(PID.TID 0000.0001) %MON ad_dynstat_adsalt_sd         =   9.2690664594785E+04
(PID.TID 0000.0001) %MON ad_dynstat_adsalt_del2       =   8.1662354046627E+04
(PID.TID 0000.0001) %MON ad_dynstat_adsst_max         =   6.4842160617848E+04
(PID.TID 0000.0001) %MON ad_dynstat_adsst_min         =   6.4842160617848E+04
(PID.TID 0000.0001) %MON ad_dynstat_adsst_mean        =   6.4842160617848E+04
(PID.TID 0000.0001) %MON ad_dynstat_adsst_sd          =   0.0000000000000E+00
(PID.TID 0000.0001) %MON ad_dynstat_adsst_del2        =   1.8340132591867E+05
(PID.TID 0000.0001) %MON ad_dynstat_adsss_max         =  -4.5755265539382E+05
(PID.TID 0000.0001) %MON ad_dynstat_adsss_min         =  -4.5755265539382E+05
(PID.TID 0000.0001) %MON ad_dynstat_adsss_mean        =  -4.5755265539382E+05
(PID.TID 0000.0001) %MON ad_dynstat_adsss_sd          =   0.0000000000000E+00
(PID.TID 0000.0001) %MON ad_dynstat_adsss_del2        =   1.2941543415155E+06
(PID.TID 0000.0001) %MON ad_forcing_adqnet_max        =   0.0000000000000E+00
(PID.TID 0000.0001) %MON ad_forcing_adqnet_min        =   0.0000000000000E+00
(PID.TID 0000.0001) %MON ad_forcing_adqnet_mean       =   0.0000000000000E+00
(PID.TID 0000.0001) %MON ad_forcing_adqnet_sd         =   0.0000000000000E+00
(PID.TID 0000.0001) %MON ad_forcing_adqnet_del2       =   0.0000000000000E+00
(PID.TID 0000.0001) %MON ad_forcing_adqsw_max         =   0.0000000000000E+00
(PID.TID 0000.0001) %MON ad_forcing_adqsw_min         =   0.0000000000000E+00
(PID.TID 0000.0001) %MON ad_forcing_adqsw_mean        =   0.0000000000000E+00
(PID.TID 0000.0001) %MON ad_forcing_adqsw_sd          =   0.0000000000000E+00
(PID.TID 0000.0001) %MON ad_forcing_adqsw_del2        =   0.0000000000000E+00
(PID.TID 0000.0001) %MON ad_forcing_adempmr_max       =   0.0000000000000E+00
(PID.TID 0000.0001) %MON ad_forcing_adempmr_min       =   0.0000000000000E+00
(PID.TID 0000.0001) %MON ad_forcing_adempmr_mean      =   0.0000000000000E+00
(PID.TID 0000.0001) %MON ad_forcing_adempmr_sd        =   0.0000000000000E+00
(PID.TID 0000.0001) %MON ad_forcing_adempmr_del2      =   0.0000000000000E+00
(PID.TID 0000.0001) %MON ad_forcing_adfu_max          =   0.0000000000000E+00
(PID.TID 0000.0001) %MON ad_forcing_adfu_min          =   0.0000000000000E+00
(PID.TID 0000.0001) %MON ad_forcing_adfu_mean         =   0.0000000000000E+00
(PID.TID 0000.0001) %MON ad_forcing_adfu_sd           =   0.0000000000000E+00
(PID.TID 0000.0001) %MON ad_forcing_adfu_del2         =   0.0000000000000E+00
(PID.TID 0000.0001) %MON ad_forcing_adfv_max          =   0.0000000000000E+00
(PID.TID 0000.0001) %MON ad_forcing_adfv_min          =   0.0000000000000E+00
(PID.TID 0000.0001) %MON ad_forcing_adfv_mean         =   0.0000000000000E+00
(PID.TID 0000.0001) %MON ad_forcing_adfv_sd           =   0.0000000000000E+00
(PID.TID 0000.0001) %MON ad_forcing_adfv_del2         =   0.0000000000000E+00
(PID.TID 0000.0001) // =======================================================
(PID.TID 0000.0001) // End AD_MONITOR dynamic field statistics
(PID.TID 0000.0001) // =======================================================
(PID.TID 0000.0001) // =======================================================
(PID.TID 0000.0001) // Begin AD_MONITOR SEAICE statistics
(PID.TID 0000.0001) // =======================================================
(PID.TID 0000.0001) %MON ad_seaice_tsnumber           =                     2
(PID.TID 0000.0001) %MON ad_seaice_time_sec           =   7.2000000000000E+03
(PID.TID 0000.0001) %MON ad_seaice_aduice_max         =   1.3369246586665E+06
(PID.TID 0000.0001) %MON ad_seaice_aduice_min         =   1.3369246586665E+06
(PID.TID 0000.0001) %MON ad_seaice_aduice_mean        =   1.3369246586665E+06
(PID.TID 0000.0001) %MON ad_seaice_aduice_sd          =   0.0000000000000E+00
(PID.TID 0000.0001) %MON ad_seaice_aduice_del2        =   4.8203504082542E+06
(PID.TID 0000.0001) %MON ad_seaice_advice_max         =   1.3369246586665E+06
(PID.TID 0000.0001) %MON ad_seaice_advice_min         =   1.3369246586665E+06
(PID.TID 0000.0001) %MON ad_seaice_advice_mean        =   1.3369246586665E+06
(PID.TID 0000.0001) %MON ad_seaice_advice_sd          =   0.0000000000000E+00
(PID.TID 0000.0001) %MON ad_seaice_advice_del2        =   4.8203504082542E+06
(PID.TID 0000.0001) %MON ad_seaice_adarea_max         =   1.8647413580180E+07
(PID.TID 0000.0001) %MON ad_seaice_adarea_min         =   1.8647413580180E+07
(PID.TID 0000.0001) %MON ad_seaice_adarea_mean        =   1.8647413580180E+07
(PID.TID 0000.0001) %MON ad_seaice_adarea_sd          =   3.7252902984619E-09
(PID.TID 0000.0001) %MON ad_seaice_adarea_del2        =   5.2742955345145E+07
(PID.TID 0000.0001) %MON ad_seaice_adheff_max         =   1.5921997040850E+04
(PID.TID 0000.0001) %MON ad_seaice_adheff_min         =   1.5921997040850E+04
(PID.TID 0000.0001) %MON ad_seaice_adheff_mean        =   1.5921997040850E+04
(PID.TID 0000.0001) %MON ad_seaice_adheff_sd          =   0.0000000000000E+00
(PID.TID 0000.0001) %MON ad_seaice_adheff_del2        =   4.5034208310469E+04
(PID.TID 0000.0001) %MON ad_seaice_adhsnow_max        =   5.4776636827356E+04
(PID.TID 0000.0001) %MON ad_seaice_adhsnow_min        =   5.4776636827356E+04
(PID.TID 0000.0001) %MON ad_seaice_adhsnow_mean       =   5.4776636827356E+04
(PID.TID 0000.0001) %MON ad_seaice_adhsnow_sd         =   0.0000000000000E+00
(PID.TID 0000.0001) %MON ad_seaice_adhsnow_del2       =   1.5493172540486E+05
(PID.TID 0000.0001) %MON ad_seaice_adhsalt_max        =   0.0000000000000E+00
(PID.TID 0000.0001) %MON ad_seaice_adhsalt_min        =   0.0000000000000E+00
(PID.TID 0000.0001) %MON ad_seaice_adhsalt_mean       =   0.0000000000000E+00
(PID.TID 0000.0001) %MON ad_seaice_adhsalt_sd         =   0.0000000000000E+00
(PID.TID 0000.0001) %MON ad_seaice_adhsalt_del2       =   0.0000000000000E+00
(PID.TID 0000.0001) // =======================================================
(PID.TID 0000.0001) // End AD_MONITOR SEAICE statistics
(PID.TID 0000.0001) // =======================================================
 cg2d: Sum(rhs),rhsMax =  -1.00000000000000E+00  7.25809589381973E-12
(PID.TID 0000.0001) // =======================================================
(PID.TID 0000.0001) // Begin AD_MONITOR EXF statistics for iwhen =  3
(PID.TID 0000.0001) // =======================================================
(PID.TID 0000.0001) %MON ad_exf_tsnumber              =                     1
(PID.TID 0000.0001) %MON ad_exf_time_sec              =   3.6000000000000E+03
(PID.TID 0000.0001) %MON ad_exf_adfu_max              =   9.1698153788687E+03
(PID.TID 0000.0001) %MON ad_exf_adfu_min              =   9.1698153788687E+03
(PID.TID 0000.0001) %MON ad_exf_adfu_mean             =   9.1698153788687E+03
(PID.TID 0000.0001) %MON ad_exf_adfu_sd               =   1.8189894035459E-12
(PID.TID 0000.0001) %MON ad_exf_adfu_del2             =   2.0304593833739E+04
(PID.TID 0000.0001) %MON ad_exf_adfv_max              =   7.9165235970861E+03
(PID.TID 0000.0001) %MON ad_exf_adfv_min              =   7.9165235970861E+03
(PID.TID 0000.0001) %MON ad_exf_adfv_mean             =   7.9165235970861E+03
(PID.TID 0000.0001) %MON ad_exf_adfv_sd               =   0.0000000000000E+00
(PID.TID 0000.0001) %MON ad_exf_adfv_del2             =   1.7006407190913E+04
(PID.TID 0000.0001) %MON ad_exf_adqnet_max            =  -2.3285132023375E+00
(PID.TID 0000.0001) %MON ad_exf_adqnet_min            =  -2.3285132023375E+00
(PID.TID 0000.0001) %MON ad_exf_adqnet_mean           =  -2.3285132023375E+00
(PID.TID 0000.0001) %MON ad_exf_adqnet_sd             =   0.0000000000000E+00
(PID.TID 0000.0001) %MON ad_exf_adqnet_del2           =   6.5860299018211E+00
(PID.TID 0000.0001) %MON ad_exf_adempmr_max           =  -7.0968901770721E+06
(PID.TID 0000.0001) %MON ad_exf_adempmr_min           =  -7.0968901770721E+06
(PID.TID 0000.0001) %MON ad_exf_adempmr_mean          =  -7.0968901770721E+06
(PID.TID 0000.0001) %MON ad_exf_adempmr_sd            =   0.0000000000000E+00
(PID.TID 0000.0001) %MON ad_exf_adempmr_del2          =   2.0073036678176E+07
(PID.TID 0000.0001) // =======================================================
(PID.TID 0000.0001) // End AD_MONITOR EXF statistics for iwhen =  3
(PID.TID 0000.0001) // =======================================================
(PID.TID 0000.0001) // =======================================================
(PID.TID 0000.0001) // Begin AD_MONITOR EXF statistics for iwhen =  1
(PID.TID 0000.0001) // =======================================================
(PID.TID 0000.0001) %MON ad_exf_tsnumber              =                     1
(PID.TID 0000.0001) %MON ad_exf_time_sec              =   3.6000000000000E+03
(PID.TID 0000.0001) %MON ad_exf_adustress_max         =   9.3677096617046E+03
(PID.TID 0000.0001) %MON ad_exf_adustress_min         =   9.3677096617046E+03
(PID.TID 0000.0001) %MON ad_exf_adustress_mean        =   9.3677096617046E+03
(PID.TID 0000.0001) %MON ad_exf_adustress_sd          =   0.0000000000000E+00
(PID.TID 0000.0001) %MON ad_exf_adustress_del2        =   2.0946835597053E+04
(PID.TID 0000.0001) %MON ad_exf_advstress_max         =   8.7430637893236E+03
(PID.TID 0000.0001) %MON ad_exf_advstress_min         =   8.7430637893236E+03
(PID.TID 0000.0001) %MON ad_exf_advstress_mean        =   8.7430637893236E+03
(PID.TID 0000.0001) %MON ad_exf_advstress_sd          =   0.0000000000000E+00
(PID.TID 0000.0001) %MON ad_exf_advstress_del2        =   1.9550084964544E+04
(PID.TID 0000.0001) %MON ad_exf_adhflux_max           =   0.0000000000000E+00
(PID.TID 0000.0001) %MON ad_exf_adhflux_min           =   0.0000000000000E+00
(PID.TID 0000.0001) %MON ad_exf_adhflux_mean          =   0.0000000000000E+00
(PID.TID 0000.0001) %MON ad_exf_adhflux_sd            =   0.0000000000000E+00
(PID.TID 0000.0001) %MON ad_exf_adhflux_del2          =   0.0000000000000E+00
(PID.TID 0000.0001) %MON ad_exf_adsflux_max           =   0.0000000000000E+00
(PID.TID 0000.0001) %MON ad_exf_adsflux_min           =   0.0000000000000E+00
(PID.TID 0000.0001) %MON ad_exf_adsflux_mean          =   0.0000000000000E+00
(PID.TID 0000.0001) %MON ad_exf_adsflux_sd            =   0.0000000000000E+00
(PID.TID 0000.0001) %MON ad_exf_adsflux_del2          =   0.0000000000000E+00
(PID.TID 0000.0001) %MON ad_exf_adwspeed_max          =  -1.2371636208967E+00
(PID.TID 0000.0001) %MON ad_exf_adwspeed_min          =  -1.2371636208967E+00
(PID.TID 0000.0001) %MON ad_exf_adwspeed_mean         =  -1.2371636208967E+00
(PID.TID 0000.0001) %MON ad_exf_adwspeed_sd           =   0.0000000000000E+00
(PID.TID 0000.0001) %MON ad_exf_adwspeed_del2         =   3.4992271430935E+00
(PID.TID 0000.0001) // =======================================================
(PID.TID 0000.0001) // End AD_MONITOR EXF statistics for iwhen =  1
(PID.TID 0000.0001) // =======================================================
(PID.TID 0000.0001) // =======================================================
(PID.TID 0000.0001) // Begin AD_MONITOR EXF statistics for iwhen =  2
(PID.TID 0000.0001) // =======================================================
(PID.TID 0000.0001) %MON ad_exf_tsnumber              =                     1
(PID.TID 0000.0001) %MON ad_exf_time_sec              =   3.6000000000000E+03
(PID.TID 0000.0001) %MON ad_exf_aduwind_max           =   1.0577317282595E+04
(PID.TID 0000.0001) %MON ad_exf_aduwind_min           =   1.0577317282595E+04
(PID.TID 0000.0001) %MON ad_exf_aduwind_mean          =   1.0577317282595E+04
(PID.TID 0000.0001) %MON ad_exf_aduwind_sd            =   0.0000000000000E+00
(PID.TID 0000.0001) %MON ad_exf_aduwind_del2          =   2.9917171109138E+04
(PID.TID 0000.0001) %MON ad_exf_advwind_max           =   1.0569881513902E+04
(PID.TID 0000.0001) %MON ad_exf_advwind_min           =   1.0569881513902E+04
(PID.TID 0000.0001) %MON ad_exf_advwind_mean          =   1.0569881513902E+04
(PID.TID 0000.0001) %MON ad_exf_advwind_sd            =   0.0000000000000E+00
(PID.TID 0000.0001) %MON ad_exf_advwind_del2          =   2.9896139579275E+04
(PID.TID 0000.0001) %MON ad_exf_adatemp_max           =  -3.4670124434143E+03
(PID.TID 0000.0001) %MON ad_exf_adatemp_min           =  -3.4670124434143E+03
(PID.TID 0000.0001) %MON ad_exf_adatemp_mean          =  -3.4670124434143E+03
(PID.TID 0000.0001) %MON ad_exf_adatemp_sd            =   0.0000000000000E+00
(PID.TID 0000.0001) %MON ad_exf_adatemp_del2          =   9.8061920367856E+03
(PID.TID 0000.0001) %MON ad_exf_adaqh_max             =  -3.5339244218781E+07
(PID.TID 0000.0001) %MON ad_exf_adaqh_min             =  -3.5339244218781E+07
(PID.TID 0000.0001) %MON ad_exf_adaqh_mean            =  -3.5339244218781E+07
(PID.TID 0000.0001) %MON ad_exf_adaqh_sd              =   0.0000000000000E+00
(PID.TID 0000.0001) %MON ad_exf_adaqh_del2            =   9.9954476916431E+07
(PID.TID 0000.0001) %MON ad_exf_adlwflux_max          =   0.0000000000000E+00
(PID.TID 0000.0001) %MON ad_exf_adlwflux_min          =   0.0000000000000E+00
(PID.TID 0000.0001) %MON ad_exf_adlwflux_mean         =   0.0000000000000E+00
(PID.TID 0000.0001) %MON ad_exf_adlwflux_sd           =   0.0000000000000E+00
(PID.TID 0000.0001) %MON ad_exf_adlwflux_del2         =   0.0000000000000E+00
(PID.TID 0000.0001) %MON ad_exf_adprecip_max          =   7.0407745253077E+10
(PID.TID 0000.0001) %MON ad_exf_adprecip_min          =   7.0407745253077E+10
(PID.TID 0000.0001) %MON ad_exf_adprecip_mean         =   7.0407745253077E+10
(PID.TID 0000.0001) %MON ad_exf_adprecip_sd           =   0.0000000000000E+00
(PID.TID 0000.0001) %MON ad_exf_adprecip_del2         =   1.9914317646602E+11
(PID.TID 0000.0001) %MON ad_exf_adswflux_max          =   0.0000000000000E+00
(PID.TID 0000.0001) %MON ad_exf_adswflux_min          =   0.0000000000000E+00
(PID.TID 0000.0001) %MON ad_exf_adswflux_mean         =   0.0000000000000E+00
(PID.TID 0000.0001) %MON ad_exf_adswflux_sd           =   0.0000000000000E+00
(PID.TID 0000.0001) %MON ad_exf_adswflux_del2         =   0.0000000000000E+00
(PID.TID 0000.0001) %MON ad_exf_adswdown_max          =  -3.3564221758508E+02
(PID.TID 0000.0001) %MON ad_exf_adswdown_min          =  -3.3564221758508E+02
(PID.TID 0000.0001) %MON ad_exf_adswdown_mean         =  -3.3564221758508E+02
(PID.TID 0000.0001) %MON ad_exf_adswdown_sd           =   0.0000000000000E+00
(PID.TID 0000.0001) %MON ad_exf_adswdown_del2         =   9.4933955242761E+02
(PID.TID 0000.0001) %MON ad_exf_adlwdown_max          =  -4.8468377766687E+02
(PID.TID 0000.0001) %MON ad_exf_adlwdown_min          =  -4.8468377766687E+02
(PID.TID 0000.0001) %MON ad_exf_adlwdown_mean         =  -4.8468377766687E+02
(PID.TID 0000.0001) %MON ad_exf_adlwdown_sd           =   5.6843418860808E-14
(PID.TID 0000.0001) %MON ad_exf_adlwdown_del2         =   1.3708927436774E+03
(PID.TID 0000.0001) %MON ad_exf_adrunoff_max          =   7.2000744896140E+10
(PID.TID 0000.0001) %MON ad_exf_adrunoff_min          =   7.2000744896140E+10
(PID.TID 0000.0001) %MON ad_exf_adrunoff_mean         =   7.2000744896140E+10
(PID.TID 0000.0001) %MON ad_exf_adrunoff_sd           =   0.0000000000000E+00
(PID.TID 0000.0001) %MON ad_exf_adrunoff_del2         =   2.0364885986617E+11
(PID.TID 0000.0001) // =======================================================
(PID.TID 0000.0001) // End AD_MONITOR EXF statistics for iwhen =  2
(PID.TID 0000.0001) // =======================================================
(PID.TID 0000.0001) // =======================================================
(PID.TID 0000.0001) // Begin AD_MONITOR dynamic field statistics
(PID.TID 0000.0001) // =======================================================
(PID.TID 0000.0001) %MON ad_time_tsnumber             =                     1
(PID.TID 0000.0001) %MON ad_time_secondsf             =   3.6000000000000E+03
(PID.TID 0000.0001) %MON ad_dynstat_adeta_max         =  -3.6565959453617E-08
(PID.TID 0000.0001) %MON ad_dynstat_adeta_min         =  -3.6565959453617E-08
(PID.TID 0000.0001) %MON ad_dynstat_adeta_mean        =  -3.6565959453617E-08
(PID.TID 0000.0001) %MON ad_dynstat_adeta_sd          =   0.0000000000000E+00
(PID.TID 0000.0001) %MON ad_dynstat_adeta_del2        =   1.0342415156098E-07
(PID.TID 0000.0001) %MON ad_dynstat_aduvel_max        =   9.1258239983366E+02
(PID.TID 0000.0001) %MON ad_dynstat_aduvel_min        =  -7.2988961428052E+02
(PID.TID 0000.0001) %MON ad_dynstat_aduvel_mean       =   3.9402924369763E-10
(PID.TID 0000.0001) %MON ad_dynstat_aduvel_sd         =   1.9319246670221E+02
(PID.TID 0000.0001) %MON ad_dynstat_aduvel_del2       =   1.7020646615085E+02
(PID.TID 0000.0001) %MON ad_dynstat_advvel_max        =   7.7250737582407E+03
(PID.TID 0000.0001) %MON ad_dynstat_advvel_min        =  -5.4612478560376E+03
(PID.TID 0000.0001) %MON ad_dynstat_advvel_mean       =  -2.1327493030553E-10
(PID.TID 0000.0001) %MON ad_dynstat_advvel_sd         =   1.3733805109518E+03
(PID.TID 0000.0001) %MON ad_dynstat_advvel_del2       =   1.2099759759777E+03
(PID.TID 0000.0001) %MON ad_dynstat_adwvel_max        =   1.6521351564497E+03
(PID.TID 0000.0001) %MON ad_dynstat_adwvel_min        =  -2.3551861672655E+02
(PID.TID 0000.0001) %MON ad_dynstat_adwvel_mean       =   3.3020811779935E+01
(PID.TID 0000.0001) %MON ad_dynstat_adwvel_sd         =   2.4045337513362E+02
(PID.TID 0000.0001) %MON ad_dynstat_adwvel_del2       =   2.0624245857546E+02
(PID.TID 0000.0001) %MON ad_dynstat_adtheta_max       =   8.1826048210430E+04
(PID.TID 0000.0001) %MON ad_dynstat_adtheta_min       =  -7.5797215907469E+03
(PID.TID 0000.0001) %MON ad_dynstat_adtheta_mean      =   2.3072042490447E+03
(PID.TID 0000.0001) %MON ad_dynstat_adtheta_sd        =   1.2100088344159E+04
(PID.TID 0000.0001) %MON ad_dynstat_adtheta_del2      =   1.0852485722893E+04
(PID.TID 0000.0001) %MON ad_dynstat_adsalt_max        =   4.9308762417844E+05
(PID.TID 0000.0001) %MON ad_dynstat_adsalt_min        =  -4.3943200929034E+05
(PID.TID 0000.0001) %MON ad_dynstat_adsalt_mean       =  -4.0977679308140E+01
(PID.TID 0000.0001) %MON ad_dynstat_adsalt_sd         =   9.5515457053761E+04
(PID.TID 0000.0001) %MON ad_dynstat_adsalt_del2       =   8.4151055067200E+04
(PID.TID 0000.0001) %MON ad_dynstat_adsst_max         =   8.1826048210430E+04
(PID.TID 0000.0001) %MON ad_dynstat_adsst_min         =   8.1826048210430E+04
(PID.TID 0000.0001) %MON ad_dynstat_adsst_mean        =   8.1826048210430E+04
(PID.TID 0000.0001) %MON ad_dynstat_adsst_sd          =   0.0000000000000E+00
(PID.TID 0000.0001) %MON ad_dynstat_adsst_del2        =   2.3143901426917E+05
(PID.TID 0000.0001) %MON ad_dynstat_adsss_max         =  -4.3943200929034E+05
(PID.TID 0000.0001) %MON ad_dynstat_adsss_min         =  -4.3943200929034E+05
(PID.TID 0000.0001) %MON ad_dynstat_adsss_mean        =  -4.3943200929034E+05
(PID.TID 0000.0001) %MON ad_dynstat_adsss_sd          =   0.0000000000000E+00
(PID.TID 0000.0001) %MON ad_dynstat_adsss_del2        =   1.2429014145585E+06
(PID.TID 0000.0001) %MON ad_forcing_adqnet_max        =   0.0000000000000E+00
(PID.TID 0000.0001) %MON ad_forcing_adqnet_min        =   0.0000000000000E+00
(PID.TID 0000.0001) %MON ad_forcing_adqnet_mean       =   0.0000000000000E+00
(PID.TID 0000.0001) %MON ad_forcing_adqnet_sd         =   0.0000000000000E+00
(PID.TID 0000.0001) %MON ad_forcing_adqnet_del2       =   0.0000000000000E+00
(PID.TID 0000.0001) %MON ad_forcing_adqsw_max         =   0.0000000000000E+00
(PID.TID 0000.0001) %MON ad_forcing_adqsw_min         =   0.0000000000000E+00
(PID.TID 0000.0001) %MON ad_forcing_adqsw_mean        =   0.0000000000000E+00
(PID.TID 0000.0001) %MON ad_forcing_adqsw_sd          =   0.0000000000000E+00
(PID.TID 0000.0001) %MON ad_forcing_adqsw_del2        =   0.0000000000000E+00
(PID.TID 0000.0001) %MON ad_forcing_adempmr_max       =   0.0000000000000E+00
(PID.TID 0000.0001) %MON ad_forcing_adempmr_min       =   0.0000000000000E+00
(PID.TID 0000.0001) %MON ad_forcing_adempmr_mean      =   0.0000000000000E+00
(PID.TID 0000.0001) %MON ad_forcing_adempmr_sd        =   0.0000000000000E+00
(PID.TID 0000.0001) %MON ad_forcing_adempmr_del2      =   0.0000000000000E+00
(PID.TID 0000.0001) %MON ad_forcing_adfu_max          =   0.0000000000000E+00
(PID.TID 0000.0001) %MON ad_forcing_adfu_min          =   0.0000000000000E+00
(PID.TID 0000.0001) %MON ad_forcing_adfu_mean         =   0.0000000000000E+00
(PID.TID 0000.0001) %MON ad_forcing_adfu_sd           =   0.0000000000000E+00
(PID.TID 0000.0001) %MON ad_forcing_adfu_del2         =   0.0000000000000E+00
(PID.TID 0000.0001) %MON ad_forcing_adfv_max          =   0.0000000000000E+00
(PID.TID 0000.0001) %MON ad_forcing_adfv_min          =   0.0000000000000E+00
(PID.TID 0000.0001) %MON ad_forcing_adfv_mean         =   0.0000000000000E+00
(PID.TID 0000.0001) %MON ad_forcing_adfv_sd           =   0.0000000000000E+00
(PID.TID 0000.0001) %MON ad_forcing_adfv_del2         =   0.0000000000000E+00
(PID.TID 0000.0001) // =======================================================
(PID.TID 0000.0001) // End AD_MONITOR dynamic field statistics
(PID.TID 0000.0001) // =======================================================
(PID.TID 0000.0001) // =======================================================
(PID.TID 0000.0001) // Begin AD_MONITOR SEAICE statistics
(PID.TID 0000.0001) // =======================================================
(PID.TID 0000.0001) %MON ad_seaice_tsnumber           =                     1
(PID.TID 0000.0001) %MON ad_seaice_time_sec           =   3.6000000000000E+03
(PID.TID 0000.0001) %MON ad_seaice_aduice_max         =   1.3849304062175E+06
(PID.TID 0000.0001) %MON ad_seaice_aduice_min         =   1.3849304062175E+06
(PID.TID 0000.0001) %MON ad_seaice_aduice_mean        =   1.3849304062175E+06
(PID.TID 0000.0001) %MON ad_seaice_aduice_sd          =   0.0000000000000E+00
(PID.TID 0000.0001) %MON ad_seaice_aduice_del2        =   4.9934375925662E+06
(PID.TID 0000.0001) %MON ad_seaice_advice_max         =   1.3849304062175E+06
(PID.TID 0000.0001) %MON ad_seaice_advice_min         =   1.3849304062175E+06
(PID.TID 0000.0001) %MON ad_seaice_advice_mean        =   1.3849304062175E+06
(PID.TID 0000.0001) %MON ad_seaice_advice_sd          =   0.0000000000000E+00
(PID.TID 0000.0001) %MON ad_seaice_advice_del2        =   4.9934375925662E+06
(PID.TID 0000.0001) %MON ad_seaice_adarea_max         =   2.0882392130876E+07
(PID.TID 0000.0001) %MON ad_seaice_adarea_min         =   2.0882392130876E+07
(PID.TID 0000.0001) %MON ad_seaice_adarea_mean        =   2.0882392130876E+07
(PID.TID 0000.0001) %MON ad_seaice_adarea_sd          =   0.0000000000000E+00
(PID.TID 0000.0001) %MON ad_seaice_adarea_del2        =   5.9064400799252E+07
(PID.TID 0000.0001) %MON ad_seaice_adheff_max         =   1.6007826769356E+04
(PID.TID 0000.0001) %MON ad_seaice_adheff_min         =   1.6007826769356E+04
(PID.TID 0000.0001) %MON ad_seaice_adheff_mean        =   1.6007826769356E+04
(PID.TID 0000.0001) %MON ad_seaice_adheff_sd          =   0.0000000000000E+00
(PID.TID 0000.0001) %MON ad_seaice_adheff_del2        =   4.5276971442684E+04
(PID.TID 0000.0001) %MON ad_seaice_adhsnow_max        =   5.5589993721607E+04
(PID.TID 0000.0001) %MON ad_seaice_adhsnow_min        =   5.5589993721607E+04
(PID.TID 0000.0001) %MON ad_seaice_adhsnow_mean       =   5.5589993721607E+04
(PID.TID 0000.0001) %MON ad_seaice_adhsnow_sd         =   0.0000000000000E+00
(PID.TID 0000.0001) %MON ad_seaice_adhsnow_del2       =   1.5723224610666E+05
(PID.TID 0000.0001) %MON ad_seaice_adhsalt_max        =   0.0000000000000E+00
(PID.TID 0000.0001) %MON ad_seaice_adhsalt_min        =   0.0000000000000E+00
(PID.TID 0000.0001) %MON ad_seaice_adhsalt_mean       =   0.0000000000000E+00
(PID.TID 0000.0001) %MON ad_seaice_adhsalt_sd         =   0.0000000000000E+00
(PID.TID 0000.0001) %MON ad_seaice_adhsalt_del2       =   0.0000000000000E+00
(PID.TID 0000.0001) // =======================================================
(PID.TID 0000.0001) // End AD_MONITOR SEAICE statistics
(PID.TID 0000.0001) // =======================================================
 cg2d: Sum(rhs),rhsMax =   0.00000000000000E+00  0.00000000000000E+00
(PID.TID 0000.0001) // =======================================================
(PID.TID 0000.0001) // Begin AD_MONITOR EXF statistics for iwhen =  3
(PID.TID 0000.0001) // =======================================================
(PID.TID 0000.0001) %MON ad_exf_tsnumber              =                     0
(PID.TID 0000.0001) %MON ad_exf_time_sec              =   0.0000000000000E+00
(PID.TID 0000.0001) %MON ad_exf_adfu_max              =   6.6754139854261E+03
(PID.TID 0000.0001) %MON ad_exf_adfu_min              =   6.6754139854261E+03
(PID.TID 0000.0001) %MON ad_exf_adfu_mean             =   6.6754139854261E+03
(PID.TID 0000.0001) %MON ad_exf_adfu_sd               =   0.0000000000000E+00
(PID.TID 0000.0001) %MON ad_exf_adfu_del2             =   1.5068319488502E+04
(PID.TID 0000.0001) %MON ad_exf_adfv_max              =   5.7781550598062E+03
(PID.TID 0000.0001) %MON ad_exf_adfv_min              =   5.7781550598062E+03
(PID.TID 0000.0001) %MON ad_exf_adfv_mean             =   5.7781550598062E+03
(PID.TID 0000.0001) %MON ad_exf_adfv_sd               =   0.0000000000000E+00
(PID.TID 0000.0001) %MON ad_exf_adfv_del2             =   1.2669010995121E+04
(PID.TID 0000.0001) %MON ad_exf_adqnet_max            =  -3.1005642957482E+00
(PID.TID 0000.0001) %MON ad_exf_adqnet_min            =  -3.1005642957482E+00
(PID.TID 0000.0001) %MON ad_exf_adqnet_mean           =  -3.1005642957482E+00
(PID.TID 0000.0001) %MON ad_exf_adqnet_sd             =   0.0000000000000E+00
(PID.TID 0000.0001) %MON ad_exf_adqnet_del2           =   8.7697201561136E+00
(PID.TID 0000.0001) %MON ad_exf_adempmr_max           =  -5.0924348188132E+06
(PID.TID 0000.0001) %MON ad_exf_adempmr_min           =  -5.0924348188132E+06
(PID.TID 0000.0001) %MON ad_exf_adempmr_mean          =  -5.0924348188132E+06
(PID.TID 0000.0001) %MON ad_exf_adempmr_sd            =   0.0000000000000E+00
(PID.TID 0000.0001) %MON ad_exf_adempmr_del2          =   1.4403580772533E+07
(PID.TID 0000.0001) // =======================================================
(PID.TID 0000.0001) // End AD_MONITOR EXF statistics for iwhen =  3
(PID.TID 0000.0001) // =======================================================
(PID.TID 0000.0001) // =======================================================
(PID.TID 0000.0001) // Begin AD_MONITOR EXF statistics for iwhen =  1
(PID.TID 0000.0001) // =======================================================
(PID.TID 0000.0001) %MON ad_exf_tsnumber              =                     0
(PID.TID 0000.0001) %MON ad_exf_time_sec              =   0.0000000000000E+00
(PID.TID 0000.0001) %MON ad_exf_adustress_max         =   6.5199259971703E+03
(PID.TID 0000.0001) %MON ad_exf_adustress_min         =   6.5199259971703E+03
(PID.TID 0000.0001) %MON ad_exf_adustress_mean        =   6.5199259971703E+03
(PID.TID 0000.0001) %MON ad_exf_adustress_sd          =   0.0000000000000E+00
(PID.TID 0000.0001) %MON ad_exf_adustress_del2        =   1.4578997737941E+04
(PID.TID 0000.0001) %MON ad_exf_advstress_max         =   6.0712965343603E+03
(PID.TID 0000.0001) %MON ad_exf_advstress_min         =   6.0712965343603E+03
(PID.TID 0000.0001) %MON ad_exf_advstress_mean        =   6.0712965343603E+03
(PID.TID 0000.0001) %MON ad_exf_advstress_sd          =   0.0000000000000E+00
(PID.TID 0000.0001) %MON ad_exf_advstress_del2        =   1.3575831762389E+04
(PID.TID 0000.0001) %MON ad_exf_adhflux_max           =   0.0000000000000E+00
(PID.TID 0000.0001) %MON ad_exf_adhflux_min           =   0.0000000000000E+00
(PID.TID 0000.0001) %MON ad_exf_adhflux_mean          =   0.0000000000000E+00
(PID.TID 0000.0001) %MON ad_exf_adhflux_sd            =   0.0000000000000E+00
(PID.TID 0000.0001) %MON ad_exf_adhflux_del2          =   0.0000000000000E+00
(PID.TID 0000.0001) %MON ad_exf_adsflux_max           =   0.0000000000000E+00
(PID.TID 0000.0001) %MON ad_exf_adsflux_min           =   0.0000000000000E+00
(PID.TID 0000.0001) %MON ad_exf_adsflux_mean          =   0.0000000000000E+00
(PID.TID 0000.0001) %MON ad_exf_adsflux_sd            =   0.0000000000000E+00
(PID.TID 0000.0001) %MON ad_exf_adsflux_del2          =   0.0000000000000E+00
(PID.TID 0000.0001) %MON ad_exf_adwspeed_max          =   0.0000000000000E+00
(PID.TID 0000.0001) %MON ad_exf_adwspeed_min          =   0.0000000000000E+00
(PID.TID 0000.0001) %MON ad_exf_adwspeed_mean         =   0.0000000000000E+00
(PID.TID 0000.0001) %MON ad_exf_adwspeed_sd           =   0.0000000000000E+00
(PID.TID 0000.0001) %MON ad_exf_adwspeed_del2         =   0.0000000000000E+00
(PID.TID 0000.0001) // =======================================================
(PID.TID 0000.0001) // End AD_MONITOR EXF statistics for iwhen =  1
(PID.TID 0000.0001) // =======================================================
(PID.TID 0000.0001) // =======================================================
(PID.TID 0000.0001) // Begin AD_MONITOR EXF statistics for iwhen =  2
(PID.TID 0000.0001) // =======================================================
(PID.TID 0000.0001) %MON ad_exf_tsnumber              =                     0
(PID.TID 0000.0001) %MON ad_exf_time_sec              =   0.0000000000000E+00
(PID.TID 0000.0001) %MON ad_exf_aduwind_max           =   1.1824895941238E+04
(PID.TID 0000.0001) %MON ad_exf_aduwind_min           =   1.1824895941238E+04
(PID.TID 0000.0001) %MON ad_exf_aduwind_mean          =   1.1824895941238E+04
(PID.TID 0000.0001) %MON ad_exf_aduwind_sd            =   0.0000000000000E+00
(PID.TID 0000.0001) %MON ad_exf_aduwind_del2          =   3.3445856427499E+04
(PID.TID 0000.0001) %MON ad_exf_advwind_max           =   1.1819555372805E+04
(PID.TID 0000.0001) %MON ad_exf_advwind_min           =   1.1819555372805E+04
(PID.TID 0000.0001) %MON ad_exf_advwind_mean          =   1.1819555372805E+04
(PID.TID 0000.0001) %MON ad_exf_advwind_sd            =   0.0000000000000E+00
(PID.TID 0000.0001) %MON ad_exf_advwind_del2          =   3.3430751018881E+04
(PID.TID 0000.0001) %MON ad_exf_adatemp_max           =  -3.8869815268587E+03
(PID.TID 0000.0001) %MON ad_exf_adatemp_min           =  -3.8869815268587E+03
(PID.TID 0000.0001) %MON ad_exf_adatemp_mean          =  -3.8869815268587E+03
(PID.TID 0000.0001) %MON ad_exf_adatemp_sd            =   0.0000000000000E+00
(PID.TID 0000.0001) %MON ad_exf_adatemp_del2          =   1.0994043983954E+04
(PID.TID 0000.0001) %MON ad_exf_adaqh_max             =  -4.3553003039473E+07
(PID.TID 0000.0001) %MON ad_exf_adaqh_min             =  -4.3553003039473E+07
(PID.TID 0000.0001) %MON ad_exf_adaqh_mean            =  -4.3553003039473E+07
(PID.TID 0000.0001) %MON ad_exf_adaqh_sd              =   0.0000000000000E+00
(PID.TID 0000.0001) %MON ad_exf_adaqh_del2            =   1.2318649516100E+08
(PID.TID 0000.0001) %MON ad_exf_adlwflux_max          =   0.0000000000000E+00
(PID.TID 0000.0001) %MON ad_exf_adlwflux_min          =   0.0000000000000E+00
(PID.TID 0000.0001) %MON ad_exf_adlwflux_mean         =   0.0000000000000E+00
(PID.TID 0000.0001) %MON ad_exf_adlwflux_sd           =   0.0000000000000E+00
(PID.TID 0000.0001) %MON ad_exf_adlwflux_del2         =   0.0000000000000E+00
(PID.TID 0000.0001) %MON ad_exf_adprecip_max          =   7.5499161584926E+10
(PID.TID 0000.0001) %MON ad_exf_adprecip_min          =   7.5499161584926E+10
(PID.TID 0000.0001) %MON ad_exf_adprecip_mean         =   7.5499161584926E+10
(PID.TID 0000.0001) %MON ad_exf_adprecip_sd           =   0.0000000000000E+00
(PID.TID 0000.0001) %MON ad_exf_adprecip_del2         =   2.1354387652240E+11
(PID.TID 0000.0001) %MON ad_exf_adswflux_max          =   0.0000000000000E+00
(PID.TID 0000.0001) %MON ad_exf_adswflux_min          =   0.0000000000000E+00
(PID.TID 0000.0001) %MON ad_exf_adswflux_mean         =   0.0000000000000E+00
(PID.TID 0000.0001) %MON ad_exf_adswflux_sd           =   0.0000000000000E+00
(PID.TID 0000.0001) %MON ad_exf_adswflux_del2         =   0.0000000000000E+00
(PID.TID 0000.0001) %MON ad_exf_adswdown_max          =  -3.7623779077637E+02
(PID.TID 0000.0001) %MON ad_exf_adswdown_min          =  -3.7623779077637E+02
(PID.TID 0000.0001) %MON ad_exf_adswdown_mean         =  -3.7623779077637E+02
(PID.TID 0000.0001) %MON ad_exf_adswdown_sd           =   0.0000000000000E+00
(PID.TID 0000.0001) %MON ad_exf_adswdown_del2         =   1.0641611727865E+03
(PID.TID 0000.0001) %MON ad_exf_adlwdown_max          =  -5.4341545023119E+02
(PID.TID 0000.0001) %MON ad_exf_adlwdown_min          =  -5.4341545023119E+02
(PID.TID 0000.0001) %MON ad_exf_adlwdown_mean         =  -5.4341545023119E+02
(PID.TID 0000.0001) %MON ad_exf_adlwdown_sd           =   0.0000000000000E+00
(PID.TID 0000.0001) %MON ad_exf_adlwdown_del2         =   1.5370109994401E+03
(PID.TID 0000.0001) %MON ad_exf_adrunoff_max          =   7.7092161227990E+10
(PID.TID 0000.0001) %MON ad_exf_adrunoff_min          =   7.7092161227990E+10
(PID.TID 0000.0001) %MON ad_exf_adrunoff_mean         =   7.7092161227990E+10
(PID.TID 0000.0001) %MON ad_exf_adrunoff_sd           =   0.0000000000000E+00
(PID.TID 0000.0001) %MON ad_exf_adrunoff_del2         =   2.1804955992255E+11
(PID.TID 0000.0001) // =======================================================
(PID.TID 0000.0001) // End AD_MONITOR EXF statistics for iwhen =  2
(PID.TID 0000.0001) // =======================================================
(PID.TID 0000.0001) Start initial hydrostatic pressure computation
(PID.TID 0000.0001) Pressure is predetermined for buoyancyRelation OCEANIC
(PID.TID 0000.0001) 
(PID.TID 0000.0001) // =======================================================
(PID.TID 0000.0001) // Begin AD_MONITOR dynamic field statistics
(PID.TID 0000.0001) // =======================================================
(PID.TID 0000.0001) %MON ad_time_tsnumber             =                     0
(PID.TID 0000.0001) %MON ad_time_secondsf             =   0.0000000000000E+00
(PID.TID 0000.0001) %MON ad_dynstat_adeta_max         =   0.0000000000000E+00
(PID.TID 0000.0001) %MON ad_dynstat_adeta_min         =   0.0000000000000E+00
(PID.TID 0000.0001) %MON ad_dynstat_adeta_mean        =   0.0000000000000E+00
(PID.TID 0000.0001) %MON ad_dynstat_adeta_sd          =   0.0000000000000E+00
(PID.TID 0000.0001) %MON ad_dynstat_adeta_del2        =   0.0000000000000E+00
(PID.TID 0000.0001) %MON ad_dynstat_aduvel_max        =   8.3167641053337E+02
(PID.TID 0000.0001) %MON ad_dynstat_aduvel_min        =  -1.7469938018303E+03
(PID.TID 0000.0001) %MON ad_dynstat_aduvel_mean       =  -2.8284246239371E-10
(PID.TID 0000.0001) %MON ad_dynstat_aduvel_sd         =   2.8825844486297E+02
(PID.TID 0000.0001) %MON ad_dynstat_aduvel_del2       =   2.5396151348847E+02
(PID.TID 0000.0001) %MON ad_dynstat_advvel_max        =   6.8785046914784E+03
(PID.TID 0000.0001) %MON ad_dynstat_advvel_min        =  -4.0726768649437E+03
(PID.TID 0000.0001) %MON ad_dynstat_advvel_mean       =  -5.0898315531960E-10
(PID.TID 0000.0001) %MON ad_dynstat_advvel_sd         =   1.1710076930510E+03
(PID.TID 0000.0001) %MON ad_dynstat_advvel_del2       =   1.0316814349541E+03
(PID.TID 0000.0001) %MON ad_dynstat_adwvel_max        =   0.0000000000000E+00
(PID.TID 0000.0001) %MON ad_dynstat_adwvel_min        =   0.0000000000000E+00
(PID.TID 0000.0001) %MON ad_dynstat_adwvel_mean       =   0.0000000000000E+00
(PID.TID 0000.0001) %MON ad_dynstat_adwvel_sd         =   0.0000000000000E+00
(PID.TID 0000.0001) %MON ad_dynstat_adwvel_del2       =   0.0000000000000E+00
(PID.TID 0000.0001) %MON ad_dynstat_adtheta_max       =   4.0012040598997E+04
(PID.TID 0000.0001) %MON ad_dynstat_adtheta_min       =  -1.8912711858098E+06
(PID.TID 0000.0001) %MON ad_dynstat_adtheta_mean      =  -3.5685854773914E+04
(PID.TID 0000.0001) %MON ad_dynstat_adtheta_sd        =   2.6165189816671E+05
(PID.TID 0000.0001) %MON ad_dynstat_adtheta_del2      =   2.3265472676490E+05
(PID.TID 0000.0001) %MON ad_dynstat_adsalt_max        =   5.1374894114299E+05
(PID.TID 0000.0001) %MON ad_dynstat_adsalt_min        =  -3.8549304139206E+05
(PID.TID 0000.0001) %MON ad_dynstat_adsalt_mean       =  -4.4890064901917E+01
(PID.TID 0000.0001) %MON ad_dynstat_adsalt_sd         =   9.2814776865934E+04
(PID.TID 0000.0001) %MON ad_dynstat_adsalt_del2       =   8.1771703080802E+04
(PID.TID 0000.0001) %MON ad_dynstat_adsst_max         =  -1.8912711858098E+06
(PID.TID 0000.0001) %MON ad_dynstat_adsst_min         =  -1.8912711858098E+06
(PID.TID 0000.0001) %MON ad_dynstat_adsst_mean        =  -1.8912711858098E+06
(PID.TID 0000.0001) %MON ad_dynstat_adsst_sd          =   0.0000000000000E+00
(PID.TID 0000.0001) %MON ad_dynstat_adsst_del2        =   5.3493227221953E+06
(PID.TID 0000.0001) %MON ad_dynstat_adsss_max         =  -3.8549304139206E+05
(PID.TID 0000.0001) %MON ad_dynstat_adsss_min         =  -3.8549304139206E+05
(PID.TID 0000.0001) %MON ad_dynstat_adsss_mean        =  -3.8549304139206E+05
(PID.TID 0000.0001) %MON ad_dynstat_adsss_sd          =   0.0000000000000E+00
(PID.TID 0000.0001) %MON ad_dynstat_adsss_del2        =   1.0903389746742E+06
(PID.TID 0000.0001) %MON ad_forcing_adqnet_max        =   0.0000000000000E+00
(PID.TID 0000.0001) %MON ad_forcing_adqnet_min        =   0.0000000000000E+00
(PID.TID 0000.0001) %MON ad_forcing_adqnet_mean       =   0.0000000000000E+00
(PID.TID 0000.0001) %MON ad_forcing_adqnet_sd         =   0.0000000000000E+00
(PID.TID 0000.0001) %MON ad_forcing_adqnet_del2       =   0.0000000000000E+00
(PID.TID 0000.0001) %MON ad_forcing_adqsw_max         =   0.0000000000000E+00
(PID.TID 0000.0001) %MON ad_forcing_adqsw_min         =   0.0000000000000E+00
(PID.TID 0000.0001) %MON ad_forcing_adqsw_mean        =   0.0000000000000E+00
(PID.TID 0000.0001) %MON ad_forcing_adqsw_sd          =   0.0000000000000E+00
(PID.TID 0000.0001) %MON ad_forcing_adqsw_del2        =   0.0000000000000E+00
(PID.TID 0000.0001) %MON ad_forcing_adempmr_max       =   0.0000000000000E+00
(PID.TID 0000.0001) %MON ad_forcing_adempmr_min       =   0.0000000000000E+00
(PID.TID 0000.0001) %MON ad_forcing_adempmr_mean      =   0.0000000000000E+00
(PID.TID 0000.0001) %MON ad_forcing_adempmr_sd        =   0.0000000000000E+00
(PID.TID 0000.0001) %MON ad_forcing_adempmr_del2      =   0.0000000000000E+00
(PID.TID 0000.0001) %MON ad_forcing_adfu_max          =   0.0000000000000E+00
(PID.TID 0000.0001) %MON ad_forcing_adfu_min          =   0.0000000000000E+00
(PID.TID 0000.0001) %MON ad_forcing_adfu_mean         =   0.0000000000000E+00
(PID.TID 0000.0001) %MON ad_forcing_adfu_sd           =   0.0000000000000E+00
(PID.TID 0000.0001) %MON ad_forcing_adfu_del2         =   0.0000000000000E+00
(PID.TID 0000.0001) %MON ad_forcing_adfv_max          =   0.0000000000000E+00
(PID.TID 0000.0001) %MON ad_forcing_adfv_min          =   0.0000000000000E+00
(PID.TID 0000.0001) %MON ad_forcing_adfv_mean         =   0.0000000000000E+00
(PID.TID 0000.0001) %MON ad_forcing_adfv_sd           =   0.0000000000000E+00
(PID.TID 0000.0001) %MON ad_forcing_adfv_del2         =   0.0000000000000E+00
(PID.TID 0000.0001) // =======================================================
(PID.TID 0000.0001) // End AD_MONITOR dynamic field statistics
(PID.TID 0000.0001) // =======================================================
(PID.TID 0000.0001) // =======================================================
(PID.TID 0000.0001) // Begin AD_MONITOR SEAICE statistics
(PID.TID 0000.0001) // =======================================================
(PID.TID 0000.0001) %MON ad_seaice_tsnumber           =                     0
(PID.TID 0000.0001) %MON ad_seaice_time_sec           =   0.0000000000000E+00
(PID.TID 0000.0001) %MON ad_seaice_aduice_max         =   1.3849304062175E+06
(PID.TID 0000.0001) %MON ad_seaice_aduice_min         =   1.3849304062175E+06
(PID.TID 0000.0001) %MON ad_seaice_aduice_mean        =   1.3849304062175E+06
(PID.TID 0000.0001) %MON ad_seaice_aduice_sd          =   0.0000000000000E+00
(PID.TID 0000.0001) %MON ad_seaice_aduice_del2        =   4.9934375925662E+06
(PID.TID 0000.0001) %MON ad_seaice_advice_max         =   1.3849304062175E+06
(PID.TID 0000.0001) %MON ad_seaice_advice_min         =   1.3849304062175E+06
(PID.TID 0000.0001) %MON ad_seaice_advice_mean        =   1.3849304062175E+06
(PID.TID 0000.0001) %MON ad_seaice_advice_sd          =   0.0000000000000E+00
(PID.TID 0000.0001) %MON ad_seaice_advice_del2        =   4.9934375925662E+06
(PID.TID 0000.0001) %MON ad_seaice_adarea_max         =  -7.4944125564832E+01
(PID.TID 0000.0001) %MON ad_seaice_adarea_min         =  -7.4944125564832E+01
(PID.TID 0000.0001) %MON ad_seaice_adarea_mean        =  -7.4944125564832E+01
(PID.TID 0000.0001) %MON ad_seaice_adarea_sd          =   0.0000000000000E+00
(PID.TID 0000.0001) %MON ad_seaice_adarea_del2        =   1.5899171051959E+02
(PID.TID 0000.0001) %MON ad_seaice_adheff_max         =   1.0254806036306E+06
(PID.TID 0000.0001) %MON ad_seaice_adheff_min         =   1.0254806036306E+06
(PID.TID 0000.0001) %MON ad_seaice_adheff_mean        =   1.0254806036306E+06
(PID.TID 0000.0001) %MON ad_seaice_adheff_sd          =   0.0000000000000E+00
(PID.TID 0000.0001) %MON ad_seaice_adheff_del2        =   2.9004971552100E+06
(PID.TID 0000.0001) %MON ad_seaice_adhsnow_max        =   3.7187758153638E+05
(PID.TID 0000.0001) %MON ad_seaice_adhsnow_min        =   3.7187758153638E+05
(PID.TID 0000.0001) %MON ad_seaice_adhsnow_mean       =   3.7187758153638E+05
(PID.TID 0000.0001) %MON ad_seaice_adhsnow_sd         =   0.0000000000000E+00
(PID.TID 0000.0001) %MON ad_seaice_adhsnow_del2       =   1.0518286387025E+06
(PID.TID 0000.0001) %MON ad_seaice_adhsalt_max        =   0.0000000000000E+00
(PID.TID 0000.0001) %MON ad_seaice_adhsalt_min        =   0.0000000000000E+00
(PID.TID 0000.0001) %MON ad_seaice_adhsalt_mean       =   0.0000000000000E+00
(PID.TID 0000.0001) %MON ad_seaice_adhsalt_sd         =   0.0000000000000E+00
(PID.TID 0000.0001) %MON ad_seaice_adhsalt_del2       =   0.0000000000000E+00
(PID.TID 0000.0001) // =======================================================
(PID.TID 0000.0001) // End AD_MONITOR SEAICE statistics
(PID.TID 0000.0001) // =======================================================
 ph-pack: packing ecco_cost
 ph-pack: packing ecco_ctrl
(PID.TID 0000.0001) // =======================================================
(PID.TID 0000.0001) // Gradient-check starts (grdchk_main)
(PID.TID 0000.0001) // =======================================================
(PID.TID 0000.0001) grdchk reference fc: fcref       =  6.91935671103431E+05
grad-res -------------------------------
 grad-res  proc    #    i    j    k   bi   bj iobc       fc ref            fc + eps           fc - eps
 grad-res  proc    #    i    j    k   bi   bj iobc      adj grad            fd grad          1 - fd/adj
 grad-res exact position met: 
 grad-res     0    1    1    1    1    1    1
(PID.TID 0000.0001) ====== Starts gradient-check number   1 (=ichknum) =======
 ph-test icomp, ncvarcomp, ichknum            1          23           1
 ph-grd _loc: bi, bj, icomptest, ichknum            1           1           0           1
 ph-grd -->hit<--            1           1           1           1
(PID.TID 0000.0001) grdchk pos: i,j,k=    1    1    1 ; bi,bj=   1   1 ; iobc=  1 ; rec=   1
(PID.TID 0000.0001) Start initial hydrostatic pressure computation
(PID.TID 0000.0001) Pressure is predetermined for buoyancyRelation OCEANIC
(PID.TID 0000.0001) 
(PID.TID 0000.0001) // =======================================================
(PID.TID 0000.0001) // Model current state
(PID.TID 0000.0001) // =======================================================
(PID.TID 0000.0001) 
 ph-ice B            0  -1.9299998999999999       3.19161626135042609E-003  1.59580813067521305E-003
 ph-ice C            0   7978.8190195144125     
(PID.TID 0000.0001) SOLVE_FOR_PRESSURE: putPmEinXvector =    F
 cg2d: Sum(rhs),rhsMax =   1.00000000000000E+00  5.58643959870524E-06
 ph-ice B            1  -1.9277413953424842       8.88743809632741404E-003  3.09503701610683215E-003
 ph-ice C            1   30196.797094275316     
 cg2d: Sum(rhs),rhsMax =   1.00000000000000E+00  1.08504193337708E-05
 ph-ice B            2  -1.9227439937105379       1.45024398590970702E-002  4.38365832334863034E-003
 ph-ice C            2   66451.889656113490     
 cg2d: Sum(rhs),rhsMax =   1.00000000000000E+00  1.54115815854817E-05
 ph-ice B            3  -1.9169503983101601       2.00243116953589158E-002  5.43052631205891926E-003
 ph-ice C            3   116511.27835593579     
 cg2d: Sum(rhs),rhsMax =   1.00000000000000E+00  1.91662434679885E-05
 ph-ice B            4  -1.9115570745763115       2.54432224317699233E-002  6.25461635597669534E-003
 ph-ice C            4   180117.56759399289     
 cg2d: Sum(rhs),rhsMax =   1.00000000000000E+00  2.21776120085284E-05
 ph-ice B            5  -1.9071999935479269       3.07544671499782353E-002  6.90084987693805746E-003
 ph-ice C            5   257001.59980137716     
 cg2d: Sum(rhs),rhsMax =   1.00000000000000E+00  2.45952885913405E-05
 ph-ice B            6  -1.9040029624148269       3.59579635735914546E-002  7.41854995172956146E-003
 ph-ice C            6   346894.01172391349     
 cg2d: Sum(rhs),rhsMax =   1.00000000000000E+00  2.65835319464707E-05
 ph-ice B            7  -1.9016149294529638       4.10551493303545414E-002  7.84196028398911546E-003
 ph-ice C            7   449529.03407695668     
 cg2d: Sum(rhs),rhsMax =   1.00000000000000E+00  2.82563915778187E-05
 ph-ice B            8  -1.8993859387065588       4.60449224232379051E-002  8.17839657687643648E-003
 ph-ice C            8   564638.14265981305     
 cg2d: Sum(rhs),rhsMax =   1.00000000000000E+00  2.96382553674266E-05
 ph-ice B            9  -1.8965939043404876       5.09203501414473986E-002  8.40585505262446755E-003
 ph-ice C            9   691935.48197622830     
 cg2d: Sum(rhs),rhsMax =   1.00000000000000E+00  3.06558874204471E-05
(PID.TID 0000.0001) Did not write pickup because writePickupAtEnd = FALSE
(PID.TID 0000.0001) ph-cost call cost_theta0
(PID.TID 0000.0001) ph-cost call cost_salt0
(PID.TID 0000.0001) ph-cost call cost_theta
(PID.TID 0000.0001) ph-cost call cost_salt
(PID.TID 0000.0001) ph-cost call cost_smrarea
  SICD cost smrarea/sst/sss    0.0000000000000000        0.0000000000000000        0.0000000000000000     
  SICD num points smrarea/sst/sss    0.0000000000000000        0.0000000000000000        0.0000000000000000     
 --> f_ice     = 0.691935481976228D+06
 --> f_smrarea = 0.000000000000000D+00
 --> f_smrarea = 0.000000000000000D+00
 --> f_smrarea = 0.000000000000000D+00
 --> f_temp    = 0.000000000000000D+00
 --> f_salt    = 0.000000000000000D+00
 --> f_temp0   = 0.924200717024491D-14
 --> f_salt0   = 0.000000000000000D+00
 --> f_temp0smoo = 0.000000000000000D+00
 --> f_salt0smoo = 0.000000000000000D+00
 --> f_etan0   = 0.000000000000000D+00
 --> f_uvel0   = 0.000000000000000D+00
 --> f_vvel0   = 0.000000000000000D+00
 --> f_sst     = 0.000000000000000D+00
 --> f_tmi     = 0.000000000000000D+00
 --> f_sss     = 0.000000000000000D+00
 --> f_bp      = 0.000000000000000D+00
 --> f_ies      = 0.000000000000000D+00
 --> f_ssh       = 0.000000000000000D+00
 --> f_tp        = 0.000000000000000D+00
 --> f_ers       = 0.000000000000000D+00
 --> f_gfo       = 0.000000000000000D+00
 --> f_tauu    = 0.000000000000000D+00
 --> f_tauum   = 0.000000000000000D+00
 --> f_tauusmoo = 0.000000000000000D+00
 --> f_tauv    = 0.000000000000000D+00
 --> f_tauvm   = 0.000000000000000D+00
 --> f_tauvsmoo = 0.000000000000000D+00
 --> f_hflux   = 0.000000000000000D+00
 --> f_hfluxmm = 0.000000000000000D+00
 --> f_hfluxsmoo = 0.000000000000000D+00
 --> f_sflux   = 0.000000000000000D+00
 --> f_sfluxmm = 0.000000000000000D+00
 --> f_sfluxsmoo = 0.000000000000000D+00
 --> f_uwind     = 0.000000000000000D+00
 --> f_vwind     = 0.000000000000000D+00
 --> f_atemp     = 0.000000000000000D+00
 --> f_aqh     = 0.000000000000000D+00
 --> f_precip  = 0.000000000000000D+00
 --> f_swflux  = 0.000000000000000D+00
 --> f_swdown  = 0.000000000000000D+00
 --> f_lwflux  = 0.000000000000000D+00
 --> f_lwdown  = 0.000000000000000D+00
 --> f_uwindm     = 0.000000000000000D+00
 --> f_vwindm     = 0.000000000000000D+00
 --> f_atempm     = 0.000000000000000D+00
 --> f_aqhm     = 0.000000000000000D+00
 --> f_precipm  = 0.000000000000000D+00
 --> f_swfluxm  = 0.000000000000000D+00
 --> f_lwfluxm  = 0.000000000000000D+00
 --> f_swdownm  = 0.000000000000000D+00
 --> f_lwdownm  = 0.000000000000000D+00
 --> f_uwindsmoo     = 0.000000000000000D+00
 --> f_vwindsmoo     = 0.000000000000000D+00
 --> f_atempsmoo     = 0.000000000000000D+00
 --> f_aqhsmoo     = 0.000000000000000D+00
 --> f_precipsmoo  = 0.000000000000000D+00
 --> f_swfluxsmoo  = 0.000000000000000D+00
 --> f_lwfluxsmoo  = 0.000000000000000D+00
 --> f_swdownsmoo  = 0.000000000000000D+00
 --> f_lwdownsmoo  = 0.000000000000000D+00
 --> f_atl     = 0.000000000000000D+00
 --> f_ctdt    = 0.000000000000000D+00
 --> f_ctds    = 0.000000000000000D+00
 --> f_ctdtclim= 0.000000000000000D+00
 --> f_ctdsclim= 0.000000000000000D+00
 --> f_xbt     = 0.000000000000000D+00
 --> f_argot   = 0.000000000000000D+00
 --> f_argos   = 0.000000000000000D+00
 --> f_drifter   = 0.000000000000000D+00
 --> f_tdrift  = 0.000000000000000D+00
 --> f_sdrift  = 0.000000000000000D+00
 --> f_wdrift  = 0.000000000000000D+00
 --> f_scatx   = 0.000000000000000D+00
 --> f_scaty   = 0.000000000000000D+00
 --> f_scatxm  = 0.000000000000000D+00
 --> f_scatym  = 0.000000000000000D+00
 --> f_curmtr  = 0.000000000000000D+00
 --> f_kapgm   = 0.000000000000000D+00
 --> f_kapredi   = 0.000000000000000D+00
 --> f_diffkr  = 0.000000000000000D+00
 --> f_eddytau = 0.000000000000000D+00
 --> f_bottomdrag = 0.000000000000000D+00
 --> f_hfluxmm2           = 0.000000000000000D+00
 --> f_sfluxmm2           = 0.000000000000000D+00
 --> f_transp             = 0.000000000000000D+00
 --> objf_hmean           = 0.000000000000000D+00
(PID.TID 0000.0001)  --> fc               = 0.691935481976228D+06
(PID.TID 0000.0001)   early fc =  0.000000000000000D+00
(PID.TID 0000.0001)   local fc =  0.691935481976228D+06
(PID.TID 0000.0001)  global fc =  0.691935481976228D+06
(PID.TID 0000.0001) grdchk perturb(+)fc: fcpertplus  =  6.91935481976228E+05
(PID.TID 0000.0001) Start initial hydrostatic pressure computation
(PID.TID 0000.0001) Pressure is predetermined for buoyancyRelation OCEANIC
(PID.TID 0000.0001) 
(PID.TID 0000.0001) // =======================================================
(PID.TID 0000.0001) // Model current state
(PID.TID 0000.0001) // =======================================================
(PID.TID 0000.0001) 
 ph-ice B            0  -1.9300001000000000       3.19163316025461875E-003  1.59581658012730937E-003
 ph-ice C            0   7978.8612656013920     
(PID.TID 0000.0001) SOLVE_FOR_PRESSURE: putPmEinXvector =    F
 cg2d: Sum(rhs),rhsMax =   1.00000000000000E+00  5.58646773255263E-06
 ph-ice B            1  -1.9277414408707940       8.88745479790586587E-003  3.09504738261979053E-003
 ph-ice C            1   30196.881093148630     
 cg2d: Sum(rhs),rhsMax =   1.00000000000000E+00  1.08504538461901E-05
 ph-ice B            2  -1.9227439479477524       1.45024562660033551E-002  4.38366677446355713E-003
 ph-ice C            2   66452.014671113197     
 cg2d: Sum(rhs),rhsMax =   1.00000000000000E+00  1.54116097157222E-05
 ph-ice B            3  -1.9169503125699463       2.00243276331382239E-002  5.43053119441968928E-003
 ph-ice C            3   116511.44321427701     
 cg2d: Sum(rhs),rhsMax =   1.00000000000000E+00  1.91662597110119E-05
 ph-ice B            4  -1.9115569911182173       2.54432378029155852E-002  6.25461778570544739E-003
 ph-ice C            4   180117.77087913084     
 cg2d: Sum(rhs),rhsMax =   1.00000000000000E+00  2.21776167511203E-05
 ph-ice B            5  -1.9071999379290472       3.07544819962133169E-002  6.90084902294220599E-003
 ph-ice C            5   257001.84020107187     
 cg2d: Sum(rhs),rhsMax =   1.00000000000000E+00  2.45952857257158E-05
 ph-ice B            6  -1.9040029359238895       3.59579780101511939E-002  7.41854802332331687E-003
 ph-ice C            6   346894.28821400506     
 cg2d: Sum(rhs),rhsMax =   1.00000000000000E+00  2.65835254993466E-05
 ph-ice B            7  -1.9016149151826762       4.10551634169856183E-002  7.84195778720161996E-003
 ph-ice C            7   449529.34578264778     
 cg2d: Sum(rhs),rhsMax =   1.00000000000000E+00  2.82563832342424E-05
 ph-ice B            8  -1.8993859142226843       4.60449360650576761E-002  8.17839310061046869E-003
 ph-ice C            8   564638.48846910626     
 cg2d: Sum(rhs),rhsMax =   1.00000000000000E+00  2.96382437586661E-05
 ph-ice B            9  -1.8965938579945254       5.09203631197791828E-002  8.40584971885485928E-003
 ph-ice C            9   691935.86023044970     
 cg2d: Sum(rhs),rhsMax =   1.00000000000000E+00  3.06558696230871E-05
(PID.TID 0000.0001) Did not write pickup because writePickupAtEnd = FALSE
(PID.TID 0000.0001) ph-cost call cost_theta0
(PID.TID 0000.0001) ph-cost call cost_salt0
(PID.TID 0000.0001) ph-cost call cost_theta
(PID.TID 0000.0001) ph-cost call cost_salt
(PID.TID 0000.0001) ph-cost call cost_smrarea
  SICD cost smrarea/sst/sss    0.0000000000000000        0.0000000000000000        0.0000000000000000     
  SICD num points smrarea/sst/sss    0.0000000000000000        0.0000000000000000        0.0000000000000000     
 --> f_ice     = 0.691935860230450D+06
 --> f_smrarea = 0.000000000000000D+00
 --> f_smrarea = 0.000000000000000D+00
 --> f_smrarea = 0.000000000000000D+00
 --> f_temp    = 0.000000000000000D+00
 --> f_salt    = 0.000000000000000D+00
 --> f_temp0   = 0.924200717024491D-14
 --> f_salt0   = 0.000000000000000D+00
 --> f_temp0smoo = 0.000000000000000D+00
 --> f_salt0smoo = 0.000000000000000D+00
 --> f_etan0   = 0.000000000000000D+00
 --> f_uvel0   = 0.000000000000000D+00
 --> f_vvel0   = 0.000000000000000D+00
 --> f_sst     = 0.000000000000000D+00
 --> f_tmi     = 0.000000000000000D+00
 --> f_sss     = 0.000000000000000D+00
 --> f_bp      = 0.000000000000000D+00
 --> f_ies      = 0.000000000000000D+00
 --> f_ssh       = 0.000000000000000D+00
 --> f_tp        = 0.000000000000000D+00
 --> f_ers       = 0.000000000000000D+00
 --> f_gfo       = 0.000000000000000D+00
 --> f_tauu    = 0.000000000000000D+00
 --> f_tauum   = 0.000000000000000D+00
 --> f_tauusmoo = 0.000000000000000D+00
 --> f_tauv    = 0.000000000000000D+00
 --> f_tauvm   = 0.000000000000000D+00
 --> f_tauvsmoo = 0.000000000000000D+00
 --> f_hflux   = 0.000000000000000D+00
 --> f_hfluxmm = 0.000000000000000D+00
 --> f_hfluxsmoo = 0.000000000000000D+00
 --> f_sflux   = 0.000000000000000D+00
 --> f_sfluxmm = 0.000000000000000D+00
 --> f_sfluxsmoo = 0.000000000000000D+00
 --> f_uwind     = 0.000000000000000D+00
 --> f_vwind     = 0.000000000000000D+00
 --> f_atemp     = 0.000000000000000D+00
 --> f_aqh     = 0.000000000000000D+00
 --> f_precip  = 0.000000000000000D+00
 --> f_swflux  = 0.000000000000000D+00
 --> f_swdown  = 0.000000000000000D+00
 --> f_lwflux  = 0.000000000000000D+00
 --> f_lwdown  = 0.000000000000000D+00
 --> f_uwindm     = 0.000000000000000D+00
 --> f_vwindm     = 0.000000000000000D+00
 --> f_atempm     = 0.000000000000000D+00
 --> f_aqhm     = 0.000000000000000D+00
 --> f_precipm  = 0.000000000000000D+00
 --> f_swfluxm  = 0.000000000000000D+00
 --> f_lwfluxm  = 0.000000000000000D+00
 --> f_swdownm  = 0.000000000000000D+00
 --> f_lwdownm  = 0.000000000000000D+00
 --> f_uwindsmoo     = 0.000000000000000D+00
 --> f_vwindsmoo     = 0.000000000000000D+00
 --> f_atempsmoo     = 0.000000000000000D+00
 --> f_aqhsmoo     = 0.000000000000000D+00
 --> f_precipsmoo  = 0.000000000000000D+00
 --> f_swfluxsmoo  = 0.000000000000000D+00
 --> f_lwfluxsmoo  = 0.000000000000000D+00
 --> f_swdownsmoo  = 0.000000000000000D+00
 --> f_lwdownsmoo  = 0.000000000000000D+00
 --> f_atl     = 0.000000000000000D+00
 --> f_ctdt    = 0.000000000000000D+00
 --> f_ctds    = 0.000000000000000D+00
 --> f_ctdtclim= 0.000000000000000D+00
 --> f_ctdsclim= 0.000000000000000D+00
 --> f_xbt     = 0.000000000000000D+00
 --> f_argot   = 0.000000000000000D+00
 --> f_argos   = 0.000000000000000D+00
 --> f_drifter   = 0.000000000000000D+00
 --> f_tdrift  = 0.000000000000000D+00
 --> f_sdrift  = 0.000000000000000D+00
 --> f_wdrift  = 0.000000000000000D+00
 --> f_scatx   = 0.000000000000000D+00
 --> f_scaty   = 0.000000000000000D+00
 --> f_scatxm  = 0.000000000000000D+00
 --> f_scatym  = 0.000000000000000D+00
 --> f_curmtr  = 0.000000000000000D+00
 --> f_kapgm   = 0.000000000000000D+00
 --> f_kapredi   = 0.000000000000000D+00
 --> f_diffkr  = 0.000000000000000D+00
 --> f_eddytau = 0.000000000000000D+00
 --> f_bottomdrag = 0.000000000000000D+00
 --> f_hfluxmm2           = 0.000000000000000D+00
 --> f_sfluxmm2           = 0.000000000000000D+00
 --> f_transp             = 0.000000000000000D+00
 --> objf_hmean           = 0.000000000000000D+00
(PID.TID 0000.0001)  --> fc               = 0.691935860230450D+06
(PID.TID 0000.0001)   early fc =  0.000000000000000D+00
(PID.TID 0000.0001)   local fc =  0.691935860230450D+06
(PID.TID 0000.0001)  global fc =  0.691935860230450D+06
(PID.TID 0000.0001) grdchk perturb(-)fc: fcpertminus =  6.91935860230450E+05
grad-res -------------------------------
 grad-res     0    1    1    1    1    1    1    1   6.91935671103E+05  6.91935481976E+05  6.91935860230E+05
 grad-res     0    1    1    1    0    1    1    1  -1.89127118581E+06 -1.89127110702E+06  4.16622301103E-08
(PID.TID 0000.0001)  ADM  ref_cost_function      =  6.91935671103431E+05
(PID.TID 0000.0001)  ADM  adjoint_gradient       = -1.89127118580978E+06
(PID.TID 0000.0001)  ADM  finite-diff_grad       = -1.89127110701520E+06
(PID.TID 0000.0001) ====== End of gradient-check number   1 (ierr=  0) =======
(PID.TID 0000.0001) ====== Starts gradient-check number   2 (=ichknum) =======
 ph-test icomp, ncvarcomp, ichknum            2          23           2
 ph-grd _loc: bi, bj, icomptest, ichknum            1           1           1           2
 ph-grd _loc: bi, bj, icomptest, ichknum            1           1           1           2
 ph-grd -->hit<--            1           1           2           1
(PID.TID 0000.0001) grdchk pos: i,j,k=    1    1    2 ; bi,bj=   1   1 ; iobc=  1 ; rec=   1
(PID.TID 0000.0001) Start initial hydrostatic pressure computation
(PID.TID 0000.0001) Pressure is predetermined for buoyancyRelation OCEANIC
(PID.TID 0000.0001) 
(PID.TID 0000.0001) // =======================================================
(PID.TID 0000.0001) // Model current state
(PID.TID 0000.0001) // =======================================================
(PID.TID 0000.0001) 
 ph-ice B            0  -1.9299999999999999       3.19162471080251071E-003  1.59581235540125536E-003
 ph-ice C            0   7978.8401425578732     
(PID.TID 0000.0001) SOLVE_FOR_PRESSURE: putPmEinXvector =    F
 cg2d: Sum(rhs),rhsMax =   1.00000000000000E+00  5.58645366562891E-06
 ph-ice B            1  -1.9277413898639790       8.88744643810899029E-003  3.09504100969067945E-003
 ph-ice C            1   30196.839071193444     
 cg2d: Sum(rhs),rhsMax =   1.00000000000000E+00  1.08504326287687E-05
 ph-ice B            2  -1.9227439509638586       1.45024480235437844E-002  4.38366052690089460E-003
 ph-ice C            2   66451.952043581448     
 cg2d: Sum(rhs),rhsMax =   1.00000000000000E+00  1.54115889179987E-05
 ph-ice B            3  -1.9169503552893448       2.00243196252928614E-002  5.43052672517442808E-003
 ph-ice C            3   116511.36056768794     
 cg2d: Sum(rhs),rhsMax =   1.00000000000000E+00  1.91662448367383E-05
 ph-ice B            4  -1.9115570503041917       2.54432301453411218E-002  6.25461576706857775E-003
 ph-ice C            4   180117.66908913737     
 cg2d: Sum(rhs),rhsMax =   1.00000000000000E+00  2.21776100387311E-05
 ph-ice B            5  -1.9071999900105219       3.07544747196436437E-002  6.90084914797227736E-003
 ph-ice C            5   257001.72022015951     
 cg2d: Sum(rhs),rhsMax =   1.00000000000000E+00  2.45952861530873E-05
 ph-ice B            6  -1.9040029688394919       3.59579710534539063E-002  7.41854949329349804E-003
 ph-ice C            6   346894.15084183257     
 cg2d: Sum(rhs),rhsMax =   1.00000000000000E+00  2.65835304069053E-05
 ph-ice B            7  -1.9016149331286818       4.10551567066877385E-002  7.84195998302227200E-003
 ph-ice C            7   449529.19163519656     
 cg2d: Sum(rhs),rhsMax =   1.00000000000000E+00  2.82563905605390E-05
 ph-ice B            8  -1.8993859334259602       4.60449296274565781E-002  8.17839606904007844E-003
 ph-ice C            8   564638.31822809926     
 cg2d: Sum(rhs),rhsMax =   1.00000000000000E+00  2.96382536593174E-05
 ph-ice B            9  -1.8965938987675952       5.09203571656912518E-002  8.40585432785188533E-003
 ph-ice C            9   691935.67510463635     
 cg2d: Sum(rhs),rhsMax =   1.00000000000000E+00  3.06558849880290E-05
(PID.TID 0000.0001) Did not write pickup because writePickupAtEnd = FALSE
(PID.TID 0000.0001) ph-cost call cost_theta0
(PID.TID 0000.0001) ph-cost call cost_salt0
(PID.TID 0000.0001) ph-cost call cost_theta
(PID.TID 0000.0001) ph-cost call cost_salt
(PID.TID 0000.0001) ph-cost call cost_smrarea
  SICD cost smrarea/sst/sss    0.0000000000000000        0.0000000000000000        0.0000000000000000     
  SICD num points smrarea/sst/sss    0.0000000000000000        0.0000000000000000        0.0000000000000000     
 --> f_ice     = 0.691935675104636D+06
 --> f_smrarea = 0.000000000000000D+00
 --> f_smrarea = 0.000000000000000D+00
 --> f_smrarea = 0.000000000000000D+00
 --> f_temp    = 0.000000000000000D+00
 --> f_salt    = 0.000000000000000D+00
 --> f_temp0   = 0.924911914164031D-14
 --> f_salt0   = 0.000000000000000D+00
 --> f_temp0smoo = 0.000000000000000D+00
 --> f_salt0smoo = 0.000000000000000D+00
 --> f_etan0   = 0.000000000000000D+00
 --> f_uvel0   = 0.000000000000000D+00
 --> f_vvel0   = 0.000000000000000D+00
 --> f_sst     = 0.000000000000000D+00
 --> f_tmi     = 0.000000000000000D+00
 --> f_sss     = 0.000000000000000D+00
 --> f_bp      = 0.000000000000000D+00
 --> f_ies      = 0.000000000000000D+00
 --> f_ssh       = 0.000000000000000D+00
 --> f_tp        = 0.000000000000000D+00
 --> f_ers       = 0.000000000000000D+00
 --> f_gfo       = 0.000000000000000D+00
 --> f_tauu    = 0.000000000000000D+00
 --> f_tauum   = 0.000000000000000D+00
 --> f_tauusmoo = 0.000000000000000D+00
 --> f_tauv    = 0.000000000000000D+00
 --> f_tauvm   = 0.000000000000000D+00
 --> f_tauvsmoo = 0.000000000000000D+00
 --> f_hflux   = 0.000000000000000D+00
 --> f_hfluxmm = 0.000000000000000D+00
 --> f_hfluxsmoo = 0.000000000000000D+00
 --> f_sflux   = 0.000000000000000D+00
 --> f_sfluxmm = 0.000000000000000D+00
 --> f_sfluxsmoo = 0.000000000000000D+00
 --> f_uwind     = 0.000000000000000D+00
 --> f_vwind     = 0.000000000000000D+00
 --> f_atemp     = 0.000000000000000D+00
 --> f_aqh     = 0.000000000000000D+00
 --> f_precip  = 0.000000000000000D+00
 --> f_swflux  = 0.000000000000000D+00
 --> f_swdown  = 0.000000000000000D+00
 --> f_lwflux  = 0.000000000000000D+00
 --> f_lwdown  = 0.000000000000000D+00
 --> f_uwindm     = 0.000000000000000D+00
 --> f_vwindm     = 0.000000000000000D+00
 --> f_atempm     = 0.000000000000000D+00
 --> f_aqhm     = 0.000000000000000D+00
 --> f_precipm  = 0.000000000000000D+00
 --> f_swfluxm  = 0.000000000000000D+00
 --> f_lwfluxm  = 0.000000000000000D+00
 --> f_swdownm  = 0.000000000000000D+00
 --> f_lwdownm  = 0.000000000000000D+00
 --> f_uwindsmoo     = 0.000000000000000D+00
 --> f_vwindsmoo     = 0.000000000000000D+00
 --> f_atempsmoo     = 0.000000000000000D+00
 --> f_aqhsmoo     = 0.000000000000000D+00
 --> f_precipsmoo  = 0.000000000000000D+00
 --> f_swfluxsmoo  = 0.000000000000000D+00
 --> f_lwfluxsmoo  = 0.000000000000000D+00
 --> f_swdownsmoo  = 0.000000000000000D+00
 --> f_lwdownsmoo  = 0.000000000000000D+00
 --> f_atl     = 0.000000000000000D+00
 --> f_ctdt    = 0.000000000000000D+00
 --> f_ctds    = 0.000000000000000D+00
 --> f_ctdtclim= 0.000000000000000D+00
 --> f_ctdsclim= 0.000000000000000D+00
 --> f_xbt     = 0.000000000000000D+00
 --> f_argot   = 0.000000000000000D+00
 --> f_argos   = 0.000000000000000D+00
 --> f_drifter   = 0.000000000000000D+00
 --> f_tdrift  = 0.000000000000000D+00
 --> f_sdrift  = 0.000000000000000D+00
 --> f_wdrift  = 0.000000000000000D+00
 --> f_scatx   = 0.000000000000000D+00
 --> f_scaty   = 0.000000000000000D+00
 --> f_scatxm  = 0.000000000000000D+00
 --> f_scatym  = 0.000000000000000D+00
 --> f_curmtr  = 0.000000000000000D+00
 --> f_kapgm   = 0.000000000000000D+00
 --> f_kapredi   = 0.000000000000000D+00
 --> f_diffkr  = 0.000000000000000D+00
 --> f_eddytau = 0.000000000000000D+00
 --> f_bottomdrag = 0.000000000000000D+00
 --> f_hfluxmm2           = 0.000000000000000D+00
 --> f_sfluxmm2           = 0.000000000000000D+00
 --> f_transp             = 0.000000000000000D+00
 --> objf_hmean           = 0.000000000000000D+00
(PID.TID 0000.0001)  --> fc               = 0.691935675104636D+06
(PID.TID 0000.0001)   early fc =  0.000000000000000D+00
(PID.TID 0000.0001)   local fc =  0.691935675104636D+06
(PID.TID 0000.0001)  global fc =  0.691935675104636D+06
(PID.TID 0000.0001) grdchk perturb(+)fc: fcpertplus  =  6.91935675104636E+05
(PID.TID 0000.0001) Start initial hydrostatic pressure computation
(PID.TID 0000.0001) Pressure is predetermined for buoyancyRelation OCEANIC
(PID.TID 0000.0001) 
(PID.TID 0000.0001) // =======================================================
(PID.TID 0000.0001) // Model current state
(PID.TID 0000.0001) // =======================================================
(PID.TID 0000.0001) 
 ph-ice B            0  -1.9299999999999999       3.19162471080251071E-003  1.59581235540125536E-003
 ph-ice C            0   7978.8401425578732     
(PID.TID 0000.0001) SOLVE_FOR_PRESSURE: putPmEinXvector =    F
 cg2d: Sum(rhs),rhsMax =   1.00000000000000E+00  5.58645366562891E-06
 ph-ice B            1  -1.9277414463493985       8.88744645612423584E-003  3.09504338904013692E-003
 ph-ice C            1   30196.839116230309     
 cg2d: Sum(rhs),rhsMax =   1.00000000000000E+00  1.08504405512062E-05
 ph-ice B            2  -1.9227439906945509       1.45024481015568561E-002  4.38366457092047475E-003
 ph-ice C            2   66451.952283645573     
 cg2d: Sum(rhs),rhsMax =   1.00000000000000E+00  1.54116023832332E-05
 ph-ice B            3  -1.9169503555914797       2.00243197032065508E-002  5.43053078134326205E-003
 ph-ice C            3   116511.36100253087     
 cg2d: Sum(rhs),rhsMax =   1.00000000000000E+00  1.91662583424046E-05
 ph-ice B            4  -1.9115570153912933       2.54432300893504305E-002  6.25461837469227545E-003
 ph-ice C            4   180117.66938400746     
 cg2d: Sum(rhs),rhsMax =   1.00000000000000E+00  2.21776187211973E-05
 ph-ice B            5  -1.9071999414672294       3.07544744265577617E-002  6.90084975201872564E-003
 ph-ice C            5   257001.71978233525     
 cg2d: Sum(rhs),rhsMax =   1.00000000000000E+00  2.45952881643441E-05
 ph-ice B            6  -1.9040029294997329       3.59579705303015307E-002  7.41854848189095126E-003
 ph-ice C            6   346894.14909616369     
 cg2d: Sum(rhs),rhsMax =   1.00000000000000E+00  2.65835270393318E-05
 ph-ice B            7  -1.9016149115075565       4.10551560406692689E-002  7.84195808832442547E-003
 ph-ice C            7   449529.18822452775     
 cg2d: Sum(rhs),rhsMax =   1.00000000000000E+00  2.82563842520347E-05
 ph-ice B            8  -1.8993859195015403       4.60449288608417162E-002  8.17839360853189583E-003
 ph-ice C            8   564638.31290094659     
 cg2d: Sum(rhs),rhsMax =   1.00000000000000E+00  2.96382454670537E-05
 ph-ice B            9  -1.8965938635690580       5.09203560955528156E-002  8.40585044377880480E-003
 ph-ice C            9   691935.66710221197     
 cg2d: Sum(rhs),rhsMax =   1.00000000000000E+00  3.06558720559812E-05
(PID.TID 0000.0001) Did not write pickup because writePickupAtEnd = FALSE
(PID.TID 0000.0001) ph-cost call cost_theta0
(PID.TID 0000.0001) ph-cost call cost_salt0
(PID.TID 0000.0001) ph-cost call cost_theta
(PID.TID 0000.0001) ph-cost call cost_salt
(PID.TID 0000.0001) ph-cost call cost_smrarea
  SICD cost smrarea/sst/sss    0.0000000000000000        0.0000000000000000        0.0000000000000000     
  SICD num points smrarea/sst/sss    0.0000000000000000        0.0000000000000000        0.0000000000000000     
 --> f_ice     = 0.691935667102212D+06
 --> f_smrarea = 0.000000000000000D+00
 --> f_smrarea = 0.000000000000000D+00
 --> f_smrarea = 0.000000000000000D+00
 --> f_temp    = 0.000000000000000D+00
 --> f_salt    = 0.000000000000000D+00
 --> f_temp0   = 0.924911914164031D-14
 --> f_salt0   = 0.000000000000000D+00
 --> f_temp0smoo = 0.000000000000000D+00
 --> f_salt0smoo = 0.000000000000000D+00
 --> f_etan0   = 0.000000000000000D+00
 --> f_uvel0   = 0.000000000000000D+00
 --> f_vvel0   = 0.000000000000000D+00
 --> f_sst     = 0.000000000000000D+00
 --> f_tmi     = 0.000000000000000D+00
 --> f_sss     = 0.000000000000000D+00
 --> f_bp      = 0.000000000000000D+00
 --> f_ies      = 0.000000000000000D+00
 --> f_ssh       = 0.000000000000000D+00
 --> f_tp        = 0.000000000000000D+00
 --> f_ers       = 0.000000000000000D+00
 --> f_gfo       = 0.000000000000000D+00
 --> f_tauu    = 0.000000000000000D+00
 --> f_tauum   = 0.000000000000000D+00
 --> f_tauusmoo = 0.000000000000000D+00
 --> f_tauv    = 0.000000000000000D+00
 --> f_tauvm   = 0.000000000000000D+00
 --> f_tauvsmoo = 0.000000000000000D+00
 --> f_hflux   = 0.000000000000000D+00
 --> f_hfluxmm = 0.000000000000000D+00
 --> f_hfluxsmoo = 0.000000000000000D+00
 --> f_sflux   = 0.000000000000000D+00
 --> f_sfluxmm = 0.000000000000000D+00
 --> f_sfluxsmoo = 0.000000000000000D+00
 --> f_uwind     = 0.000000000000000D+00
 --> f_vwind     = 0.000000000000000D+00
 --> f_atemp     = 0.000000000000000D+00
 --> f_aqh     = 0.000000000000000D+00
 --> f_precip  = 0.000000000000000D+00
 --> f_swflux  = 0.000000000000000D+00
 --> f_swdown  = 0.000000000000000D+00
 --> f_lwflux  = 0.000000000000000D+00
 --> f_lwdown  = 0.000000000000000D+00
 --> f_uwindm     = 0.000000000000000D+00
 --> f_vwindm     = 0.000000000000000D+00
 --> f_atempm     = 0.000000000000000D+00
 --> f_aqhm     = 0.000000000000000D+00
 --> f_precipm  = 0.000000000000000D+00
 --> f_swfluxm  = 0.000000000000000D+00
 --> f_lwfluxm  = 0.000000000000000D+00
 --> f_swdownm  = 0.000000000000000D+00
 --> f_lwdownm  = 0.000000000000000D+00
 --> f_uwindsmoo     = 0.000000000000000D+00
 --> f_vwindsmoo     = 0.000000000000000D+00
 --> f_atempsmoo     = 0.000000000000000D+00
 --> f_aqhsmoo     = 0.000000000000000D+00
 --> f_precipsmoo  = 0.000000000000000D+00
 --> f_swfluxsmoo  = 0.000000000000000D+00
 --> f_lwfluxsmoo  = 0.000000000000000D+00
 --> f_swdownsmoo  = 0.000000000000000D+00
 --> f_lwdownsmoo  = 0.000000000000000D+00
 --> f_atl     = 0.000000000000000D+00
 --> f_ctdt    = 0.000000000000000D+00
 --> f_ctds    = 0.000000000000000D+00
 --> f_ctdtclim= 0.000000000000000D+00
 --> f_ctdsclim= 0.000000000000000D+00
 --> f_xbt     = 0.000000000000000D+00
 --> f_argot   = 0.000000000000000D+00
 --> f_argos   = 0.000000000000000D+00
 --> f_drifter   = 0.000000000000000D+00
 --> f_tdrift  = 0.000000000000000D+00
 --> f_sdrift  = 0.000000000000000D+00
 --> f_wdrift  = 0.000000000000000D+00
 --> f_scatx   = 0.000000000000000D+00
 --> f_scaty   = 0.000000000000000D+00
 --> f_scatxm  = 0.000000000000000D+00
 --> f_scatym  = 0.000000000000000D+00
 --> f_curmtr  = 0.000000000000000D+00
 --> f_kapgm   = 0.000000000000000D+00
 --> f_kapredi   = 0.000000000000000D+00
 --> f_diffkr  = 0.000000000000000D+00
 --> f_eddytau = 0.000000000000000D+00
 --> f_bottomdrag = 0.000000000000000D+00
 --> f_hfluxmm2           = 0.000000000000000D+00
 --> f_sfluxmm2           = 0.000000000000000D+00
 --> f_transp             = 0.000000000000000D+00
 --> objf_hmean           = 0.000000000000000D+00
(PID.TID 0000.0001)  --> fc               = 0.691935667102212D+06
(PID.TID 0000.0001)   early fc =  0.000000000000000D+00
(PID.TID 0000.0001)   local fc =  0.691935667102212D+06
(PID.TID 0000.0001)  global fc =  0.691935667102212D+06
(PID.TID 0000.0001) grdchk perturb(-)fc: fcpertminus =  6.91935667102212E+05
grad-res -------------------------------
 grad-res     0    2    1    1    2    1    1    1   6.91935671103E+05  6.91935675105E+05  6.91935667102E+05
 grad-res     0    2    2    2    0    1    1    1   4.00120405990E+04  4.00121218991E+04 -2.03188979220E-06
(PID.TID 0000.0001)  ADM  ref_cost_function      =  6.91935671103431E+05
(PID.TID 0000.0001)  ADM  adjoint_gradient       =  4.00120405989966E+04
(PID.TID 0000.0001)  ADM  finite-diff_grad       =  4.00121218990535E+04
(PID.TID 0000.0001) ====== End of gradient-check number   2 (ierr=  0) =======
(PID.TID 0000.0001) ====== Starts gradient-check number   3 (=ichknum) =======
 ph-test icomp, ncvarcomp, ichknum            3          23           3
 ph-grd _loc: bi, bj, icomptest, ichknum            1           1           2           3
 ph-grd _loc: bi, bj, icomptest, ichknum            1           1           2           3
 ph-grd -->hit<--            1           1           3           1
(PID.TID 0000.0001) grdchk pos: i,j,k=    1    1    3 ; bi,bj=   1   1 ; iobc=  1 ; rec=   1
(PID.TID 0000.0001) Start initial hydrostatic pressure computation
(PID.TID 0000.0001) Pressure is predetermined for buoyancyRelation OCEANIC
(PID.TID 0000.0001) 
(PID.TID 0000.0001) // =======================================================
(PID.TID 0000.0001) // Model current state
(PID.TID 0000.0001) // =======================================================
(PID.TID 0000.0001) 
 ph-ice B            0  -1.9299999999999999       3.19162471080251071E-003  1.59581235540125536E-003
 ph-ice C            0   7978.8401425578732     
(PID.TID 0000.0001) SOLVE_FOR_PRESSURE: putPmEinXvector =    F
 cg2d: Sum(rhs),rhsMax =   1.00000000000000E+00  5.58645366562891E-06
 ph-ice B            1  -1.9277414044432137       8.88744644275882636E-003  3.09504162381542660E-003
 ph-ice C            1   30196.839082817711     
 cg2d: Sum(rhs),rhsMax =   1.00000000000000E+00  1.08504346735986E-05
 ph-ice B            2  -1.9227439540196305       1.45024480327733893E-002  4.38366126903674564E-003
 ph-ice C            2   66451.952078279093     
 cg2d: Sum(rhs),rhsMax =   1.00000000000000E+00  1.54115913890621E-05
 ph-ice B            3  -1.9169503472710256       2.00243196129379457E-002  5.43052713299312963E-003
 ph-ice C            3   116511.36057149916     
 cg2d: Sum(rhs),rhsMax =   1.00000000000000E+00  1.91662461946213E-05
 ph-ice B            4  -1.9115570387532865       2.54432300891775931E-002  6.25461569579497528E-003
 ph-ice C            4   180117.66895254367     
 cg2d: Sum(rhs),rhsMax =   1.00000000000000E+00  2.21776098013861E-05
 ph-ice B            5  -1.9071999821133734       3.07544746255943476E-002  6.90084875085073164E-003
 ph-ice C            5   257001.71984844911     
 cg2d: Sum(rhs),rhsMax =   1.00000000000000E+00  2.45952848308121E-05
 ph-ice B            6  -1.9040029669674490       3.59579709497078043E-002  7.41854901937745795E-003
 ph-ice C            6   346894.15021076414     
 cg2d: Sum(rhs),rhsMax =   1.00000000000000E+00  2.65835288289835E-05
 ph-ice B            7  -1.9016149347336069       4.10551566158344483E-002  7.84195957476910635E-003
 ph-ice C            7   449529.19077700120     
 cg2d: Sum(rhs),rhsMax =   1.00000000000000E+00  2.82563892012716E-05
 ph-ice B            8  -1.8993859336600867       4.60449295399152636E-002  8.17839567041216478E-003
 ph-ice C            8   564638.31715105672     
 cg2d: Sum(rhs),rhsMax =   1.00000000000000E+00  2.96382523321241E-05
 ph-ice B            9  -1.8965938939053082       5.09203570358628677E-002  8.40585373262826493E-003
 ph-ice C            9   691935.67370303185     
 cg2d: Sum(rhs),rhsMax =   1.00000000000000E+00  3.06558830062778E-05
(PID.TID 0000.0001) Did not write pickup because writePickupAtEnd = FALSE
(PID.TID 0000.0001) ph-cost call cost_theta0
(PID.TID 0000.0001) ph-cost call cost_salt0
(PID.TID 0000.0001) ph-cost call cost_theta
(PID.TID 0000.0001) ph-cost call cost_salt
(PID.TID 0000.0001) ph-cost call cost_smrarea
  SICD cost smrarea/sst/sss    0.0000000000000000        0.0000000000000000        0.0000000000000000     
  SICD num points smrarea/sst/sss    0.0000000000000000        0.0000000000000000        0.0000000000000000     
 --> f_ice     = 0.691935673703032D+06
 --> f_smrarea = 0.000000000000000D+00
 --> f_smrarea = 0.000000000000000D+00
 --> f_smrarea = 0.000000000000000D+00
 --> f_temp    = 0.000000000000000D+00
 --> f_salt    = 0.000000000000000D+00
 --> f_temp0   = 0.924200717024491D-14
 --> f_salt0   = 0.000000000000000D+00
 --> f_temp0smoo = 0.000000000000000D+00
 --> f_salt0smoo = 0.000000000000000D+00
 --> f_etan0   = 0.000000000000000D+00
 --> f_uvel0   = 0.000000000000000D+00
 --> f_vvel0   = 0.000000000000000D+00
 --> f_sst     = 0.000000000000000D+00
 --> f_tmi     = 0.000000000000000D+00
 --> f_sss     = 0.000000000000000D+00
 --> f_bp      = 0.000000000000000D+00
 --> f_ies      = 0.000000000000000D+00
 --> f_ssh       = 0.000000000000000D+00
 --> f_tp        = 0.000000000000000D+00
 --> f_ers       = 0.000000000000000D+00
 --> f_gfo       = 0.000000000000000D+00
 --> f_tauu    = 0.000000000000000D+00
 --> f_tauum   = 0.000000000000000D+00
 --> f_tauusmoo = 0.000000000000000D+00
 --> f_tauv    = 0.000000000000000D+00
 --> f_tauvm   = 0.000000000000000D+00
 --> f_tauvsmoo = 0.000000000000000D+00
 --> f_hflux   = 0.000000000000000D+00
 --> f_hfluxmm = 0.000000000000000D+00
 --> f_hfluxsmoo = 0.000000000000000D+00
 --> f_sflux   = 0.000000000000000D+00
 --> f_sfluxmm = 0.000000000000000D+00
 --> f_sfluxsmoo = 0.000000000000000D+00
 --> f_uwind     = 0.000000000000000D+00
 --> f_vwind     = 0.000000000000000D+00
 --> f_atemp     = 0.000000000000000D+00
 --> f_aqh     = 0.000000000000000D+00
 --> f_precip  = 0.000000000000000D+00
 --> f_swflux  = 0.000000000000000D+00
 --> f_swdown  = 0.000000000000000D+00
 --> f_lwflux  = 0.000000000000000D+00
 --> f_lwdown  = 0.000000000000000D+00
 --> f_uwindm     = 0.000000000000000D+00
 --> f_vwindm     = 0.000000000000000D+00
 --> f_atempm     = 0.000000000000000D+00
 --> f_aqhm     = 0.000000000000000D+00
 --> f_precipm  = 0.000000000000000D+00
 --> f_swfluxm  = 0.000000000000000D+00
 --> f_lwfluxm  = 0.000000000000000D+00
 --> f_swdownm  = 0.000000000000000D+00
 --> f_lwdownm  = 0.000000000000000D+00
 --> f_uwindsmoo     = 0.000000000000000D+00
 --> f_vwindsmoo     = 0.000000000000000D+00
 --> f_atempsmoo     = 0.000000000000000D+00
 --> f_aqhsmoo     = 0.000000000000000D+00
 --> f_precipsmoo  = 0.000000000000000D+00
 --> f_swfluxsmoo  = 0.000000000000000D+00
 --> f_lwfluxsmoo  = 0.000000000000000D+00
 --> f_swdownsmoo  = 0.000000000000000D+00
 --> f_lwdownsmoo  = 0.000000000000000D+00
 --> f_atl     = 0.000000000000000D+00
 --> f_ctdt    = 0.000000000000000D+00
 --> f_ctds    = 0.000000000000000D+00
 --> f_ctdtclim= 0.000000000000000D+00
 --> f_ctdsclim= 0.000000000000000D+00
 --> f_xbt     = 0.000000000000000D+00
 --> f_argot   = 0.000000000000000D+00
 --> f_argos   = 0.000000000000000D+00
 --> f_drifter   = 0.000000000000000D+00
 --> f_tdrift  = 0.000000000000000D+00
 --> f_sdrift  = 0.000000000000000D+00
 --> f_wdrift  = 0.000000000000000D+00
 --> f_scatx   = 0.000000000000000D+00
 --> f_scaty   = 0.000000000000000D+00
 --> f_scatxm  = 0.000000000000000D+00
 --> f_scatym  = 0.000000000000000D+00
 --> f_curmtr  = 0.000000000000000D+00
 --> f_kapgm   = 0.000000000000000D+00
 --> f_kapredi   = 0.000000000000000D+00
 --> f_diffkr  = 0.000000000000000D+00
 --> f_eddytau = 0.000000000000000D+00
 --> f_bottomdrag = 0.000000000000000D+00
 --> f_hfluxmm2           = 0.000000000000000D+00
 --> f_sfluxmm2           = 0.000000000000000D+00
 --> f_transp             = 0.000000000000000D+00
 --> objf_hmean           = 0.000000000000000D+00
(PID.TID 0000.0001)  --> fc               = 0.691935673703032D+06
(PID.TID 0000.0001)   early fc =  0.000000000000000D+00
(PID.TID 0000.0001)   local fc =  0.691935673703032D+06
(PID.TID 0000.0001)  global fc =  0.691935673703032D+06
(PID.TID 0000.0001) grdchk perturb(+)fc: fcpertplus  =  6.91935673703032E+05
(PID.TID 0000.0001) Start initial hydrostatic pressure computation
(PID.TID 0000.0001) Pressure is predetermined for buoyancyRelation OCEANIC
(PID.TID 0000.0001) 
(PID.TID 0000.0001) // =======================================================
(PID.TID 0000.0001) // Model current state
(PID.TID 0000.0001) // =======================================================
(PID.TID 0000.0001) 
 ph-ice B            0  -1.9299999999999999       3.19162471080251071E-003  1.59581235540125536E-003
 ph-ice C            0   7978.8401425578732     
(PID.TID 0000.0001) SOLVE_FOR_PRESSURE: putPmEinXvector =    F
 cg2d: Sum(rhs),rhsMax =   1.00000000000000E+00  5.58645366562891E-06
 ph-ice B            1  -1.9277414317704449       8.88744645147446222E-003  3.09504277492721842E-003
 ph-ice C            1   30196.839104606195     
 cg2d: Sum(rhs),rhsMax =   1.00000000000000E+00  1.08504385064157E-05
 ph-ice B            2  -1.9227439876390744       1.45024480923277611E-002  4.38366382880882571E-003
 ph-ice C            2   66451.952248949368     
 cg2d: Sum(rhs),rhsMax =   1.00000000000000E+00  1.54115999122492E-05
 ph-ice B            3  -1.9169503636093719       2.00243197155608350E-002  5.43053037353096683E-003
 ph-ice C            3   116511.36099871952     
 cg2d: Sum(rhs),rhsMax =   1.00000000000000E+00  1.91662569845148E-05
 ph-ice B            4  -1.9115570269415176       2.54432301455107257E-002  6.25461844594404383E-003
 ph-ice C            4   180117.66952059296     
 cg2d: Sum(rhs),rhsMax =   1.00000000000000E+00  2.21776189584289E-05
 ph-ice B            5  -1.9071999493639984       3.07544745206020133E-002  6.90085014910278398E-003
 ph-ice C            5   257001.72015402484     
 cg2d: Sum(rhs),rhsMax =   1.00000000000000E+00  2.45952894864505E-05
 ph-ice B            6  -1.9040029313718794       3.59579706340432750E-002  7.41854895577376446E-003
 ph-ice C            6   346894.14972720045     
 cg2d: Sum(rhs),rhsMax =   1.00000000000000E+00  2.65835286171343E-05
 ph-ice B            7  -1.9016149099033273       4.10551561315231212E-002  7.84195849657279287E-003
 ph-ice C            7   449529.18908269284     
 cg2d: Sum(rhs),rhsMax =   1.00000000000000E+00  2.82563856112539E-05
 ph-ice B            8  -1.8993859192680322       4.60449289483885263E-002  8.17839400718015259E-003
 ph-ice C            8   564638.31397797260     
 cg2d: Sum(rhs),rhsMax =   1.00000000000000E+00  2.96382467942861E-05
 ph-ice B            9  -1.8965938684319874       5.09203562253923783E-002  8.40585103904875446E-003
 ph-ice C            9   691935.66850382788     
 cg2d: Sum(rhs),rhsMax =   1.00000000000000E+00  3.06558740378866E-05
(PID.TID 0000.0001) Did not write pickup because writePickupAtEnd = FALSE
(PID.TID 0000.0001) ph-cost call cost_theta0
(PID.TID 0000.0001) ph-cost call cost_salt0
(PID.TID 0000.0001) ph-cost call cost_theta
(PID.TID 0000.0001) ph-cost call cost_salt
(PID.TID 0000.0001) ph-cost call cost_smrarea
  SICD cost smrarea/sst/sss    0.0000000000000000        0.0000000000000000        0.0000000000000000     
  SICD num points smrarea/sst/sss    0.0000000000000000        0.0000000000000000        0.0000000000000000     
 --> f_ice     = 0.691935668503828D+06
 --> f_smrarea = 0.000000000000000D+00
 --> f_smrarea = 0.000000000000000D+00
 --> f_smrarea = 0.000000000000000D+00
 --> f_temp    = 0.000000000000000D+00
 --> f_salt    = 0.000000000000000D+00
 --> f_temp0   = 0.924200717024491D-14
 --> f_salt0   = 0.000000000000000D+00
 --> f_temp0smoo = 0.000000000000000D+00
 --> f_salt0smoo = 0.000000000000000D+00
 --> f_etan0   = 0.000000000000000D+00
 --> f_uvel0   = 0.000000000000000D+00
 --> f_vvel0   = 0.000000000000000D+00
 --> f_sst     = 0.000000000000000D+00
 --> f_tmi     = 0.000000000000000D+00
 --> f_sss     = 0.000000000000000D+00
 --> f_bp      = 0.000000000000000D+00
 --> f_ies      = 0.000000000000000D+00
 --> f_ssh       = 0.000000000000000D+00
 --> f_tp        = 0.000000000000000D+00
 --> f_ers       = 0.000000000000000D+00
 --> f_gfo       = 0.000000000000000D+00
 --> f_tauu    = 0.000000000000000D+00
 --> f_tauum   = 0.000000000000000D+00
 --> f_tauusmoo = 0.000000000000000D+00
 --> f_tauv    = 0.000000000000000D+00
 --> f_tauvm   = 0.000000000000000D+00
 --> f_tauvsmoo = 0.000000000000000D+00
 --> f_hflux   = 0.000000000000000D+00
 --> f_hfluxmm = 0.000000000000000D+00
 --> f_hfluxsmoo = 0.000000000000000D+00
 --> f_sflux   = 0.000000000000000D+00
 --> f_sfluxmm = 0.000000000000000D+00
 --> f_sfluxsmoo = 0.000000000000000D+00
 --> f_uwind     = 0.000000000000000D+00
 --> f_vwind     = 0.000000000000000D+00
 --> f_atemp     = 0.000000000000000D+00
 --> f_aqh     = 0.000000000000000D+00
 --> f_precip  = 0.000000000000000D+00
 --> f_swflux  = 0.000000000000000D+00
 --> f_swdown  = 0.000000000000000D+00
 --> f_lwflux  = 0.000000000000000D+00
 --> f_lwdown  = 0.000000000000000D+00
 --> f_uwindm     = 0.000000000000000D+00
 --> f_vwindm     = 0.000000000000000D+00
 --> f_atempm     = 0.000000000000000D+00
 --> f_aqhm     = 0.000000000000000D+00
 --> f_precipm  = 0.000000000000000D+00
 --> f_swfluxm  = 0.000000000000000D+00
 --> f_lwfluxm  = 0.000000000000000D+00
 --> f_swdownm  = 0.000000000000000D+00
 --> f_lwdownm  = 0.000000000000000D+00
 --> f_uwindsmoo     = 0.000000000000000D+00
 --> f_vwindsmoo     = 0.000000000000000D+00
 --> f_atempsmoo     = 0.000000000000000D+00
 --> f_aqhsmoo     = 0.000000000000000D+00
 --> f_precipsmoo  = 0.000000000000000D+00
 --> f_swfluxsmoo  = 0.000000000000000D+00
 --> f_lwfluxsmoo  = 0.000000000000000D+00
 --> f_swdownsmoo  = 0.000000000000000D+00
 --> f_lwdownsmoo  = 0.000000000000000D+00
 --> f_atl     = 0.000000000000000D+00
 --> f_ctdt    = 0.000000000000000D+00
 --> f_ctds    = 0.000000000000000D+00
 --> f_ctdtclim= 0.000000000000000D+00
 --> f_ctdsclim= 0.000000000000000D+00
 --> f_xbt     = 0.000000000000000D+00
 --> f_argot   = 0.000000000000000D+00
 --> f_argos   = 0.000000000000000D+00
 --> f_drifter   = 0.000000000000000D+00
 --> f_tdrift  = 0.000000000000000D+00
 --> f_sdrift  = 0.000000000000000D+00
 --> f_wdrift  = 0.000000000000000D+00
 --> f_scatx   = 0.000000000000000D+00
 --> f_scaty   = 0.000000000000000D+00
 --> f_scatxm  = 0.000000000000000D+00
 --> f_scatym  = 0.000000000000000D+00
 --> f_curmtr  = 0.000000000000000D+00
 --> f_kapgm   = 0.000000000000000D+00
 --> f_kapredi   = 0.000000000000000D+00
 --> f_diffkr  = 0.000000000000000D+00
 --> f_eddytau = 0.000000000000000D+00
 --> f_bottomdrag = 0.000000000000000D+00
 --> f_hfluxmm2           = 0.000000000000000D+00
 --> f_sfluxmm2           = 0.000000000000000D+00
 --> f_transp             = 0.000000000000000D+00
 --> objf_hmean           = 0.000000000000000D+00
(PID.TID 0000.0001)  --> fc               = 0.691935668503828D+06
(PID.TID 0000.0001)   early fc =  0.000000000000000D+00
(PID.TID 0000.0001)   local fc =  0.691935668503828D+06
(PID.TID 0000.0001)  global fc =  0.691935668503828D+06
(PID.TID 0000.0001) grdchk perturb(-)fc: fcpertminus =  6.91935668503828E+05
grad-res -------------------------------
 grad-res     0    3    1    1    3    1    1    1   6.91935671103E+05  6.91935673703E+05  6.91935668504E+05
 grad-res     0    3    3    3    0    1    1    1   2.59961769383E+04  2.59960198309E+04  6.04348158828E-06
(PID.TID 0000.0001)  ADM  ref_cost_function      =  6.91935671103431E+05
(PID.TID 0000.0001)  ADM  adjoint_gradient       =  2.59961769383439E+04
(PID.TID 0000.0001)  ADM  finite-diff_grad       =  2.59960198309273E+04
(PID.TID 0000.0001) ====== End of gradient-check number   3 (ierr=  0) =======
(PID.TID 0000.0001) ====== Starts gradient-check number   4 (=ichknum) =======
 ph-test icomp, ncvarcomp, ichknum            4          23           4
 ph-grd _loc: bi, bj, icomptest, ichknum            1           1           3           4
 ph-grd _loc: bi, bj, icomptest, ichknum            1           1           3           4
 ph-grd -->hit<--            1           1           4           1
(PID.TID 0000.0001) grdchk pos: i,j,k=    1    1    4 ; bi,bj=   1   1 ; iobc=  1 ; rec=   1
(PID.TID 0000.0001) Start initial hydrostatic pressure computation
(PID.TID 0000.0001) Pressure is predetermined for buoyancyRelation OCEANIC
(PID.TID 0000.0001) 
(PID.TID 0000.0001) // =======================================================
(PID.TID 0000.0001) // Model current state
(PID.TID 0000.0001) // =======================================================
(PID.TID 0000.0001) 
 ph-ice B            0  -1.9299999999999999       3.19162471080251071E-003  1.59581235540125536E-003
 ph-ice C            0   7978.8401425578732     
(PID.TID 0000.0001) SOLVE_FOR_PRESSURE: putPmEinXvector =    F
 cg2d: Sum(rhs),rhsMax =   1.00000000000000E+00  5.58645366562891E-06
 ph-ice B            1  -1.9277414164446949       8.88744644658653535E-003  3.09504212935682050E-003
 ph-ice C            1   30196.839092386719     
 cg2d: Sum(rhs),rhsMax =   1.00000000000000E+00  1.08504363568823E-05
 ph-ice B            2  -1.9227439668983077       1.45024480560708002E-002  4.38366231419353141E-003
 ph-ice C            2   66451.952146090014     
 cg2d: Sum(rhs),rhsMax =   1.00000000000000E+00  1.54115948690815E-05
 ph-ice B            3  -1.9169503500250102       2.00243196433362407E-002  5.43052829283253123E-003
 ph-ice C            3   116511.36071530370     
 cg2d: Sum(rhs),rhsMax =   1.00000000000000E+00  1.91662500565038E-05
 ph-ice B            4  -1.9115570277465075       2.54432300772565560E-002  6.25461639898656878E-003
 ph-ice C            4   180117.66906654646     
 cg2d: Sum(rhs),rhsMax =   1.00000000000000E+00  2.21776121427959E-05
 ph-ice B            5  -1.9071999627229479       3.07544745187368351E-002  6.90084865382073649E-003
 ph-ice C            5   257001.71969531552     
 cg2d: Sum(rhs),rhsMax =   1.00000000000000E+00  2.45952845077596E-05
 ph-ice B            6  -1.9040029487221544       3.59579707355648162E-002  7.41854817327849102E-003
 ph-ice C            6   346894.14952228795     
 cg2d: Sum(rhs),rhsMax =   1.00000000000000E+00  2.65835260117920E-05
 ph-ice B            7  -1.9016149235920246       4.10551563270108721E-002  7.84195827368937802E-003
 ph-ice C            7   449529.18936648616     
 cg2d: Sum(rhs),rhsMax =   1.00000000000000E+00  2.82563848692408E-05
 ph-ice B            8  -1.8993859282514149       4.60449292123235113E-002  8.17839414980237218E-003
 ph-ice C            8   564638.31492158514     
 cg2d: Sum(rhs),rhsMax =   1.00000000000000E+00  2.96382472692378E-05
 ph-ice B            9  -1.8965938834144511       5.09203566192123341E-002  8.40585178805600651E-003
 ph-ice C            9   691935.67043196294     
 cg2d: Sum(rhs),rhsMax =   1.00000000000000E+00  3.06558765318556E-05
(PID.TID 0000.0001) Did not write pickup because writePickupAtEnd = FALSE
(PID.TID 0000.0001) ph-cost call cost_theta0
(PID.TID 0000.0001) ph-cost call cost_salt0
(PID.TID 0000.0001) ph-cost call cost_theta
(PID.TID 0000.0001) ph-cost call cost_salt
(PID.TID 0000.0001) ph-cost call cost_smrarea
  SICD cost smrarea/sst/sss    0.0000000000000000        0.0000000000000000        0.0000000000000000     
  SICD num points smrarea/sst/sss    0.0000000000000000        0.0000000000000000        0.0000000000000000     
 --> f_ice     = 0.691935670431963D+06
 --> f_smrarea = 0.000000000000000D+00
 --> f_smrarea = 0.000000000000000D+00
 --> f_smrarea = 0.000000000000000D+00
 --> f_temp    = 0.000000000000000D+00
 --> f_salt    = 0.000000000000000D+00
 --> f_temp0   = 0.945531200184689D-14
 --> f_salt0   = 0.000000000000000D+00
 --> f_temp0smoo = 0.000000000000000D+00
 --> f_salt0smoo = 0.000000000000000D+00
 --> f_etan0   = 0.000000000000000D+00
 --> f_uvel0   = 0.000000000000000D+00
 --> f_vvel0   = 0.000000000000000D+00
 --> f_sst     = 0.000000000000000D+00
 --> f_tmi     = 0.000000000000000D+00
 --> f_sss     = 0.000000000000000D+00
 --> f_bp      = 0.000000000000000D+00
 --> f_ies      = 0.000000000000000D+00
 --> f_ssh       = 0.000000000000000D+00
 --> f_tp        = 0.000000000000000D+00
 --> f_ers       = 0.000000000000000D+00
 --> f_gfo       = 0.000000000000000D+00
 --> f_tauu    = 0.000000000000000D+00
 --> f_tauum   = 0.000000000000000D+00
 --> f_tauusmoo = 0.000000000000000D+00
 --> f_tauv    = 0.000000000000000D+00
 --> f_tauvm   = 0.000000000000000D+00
 --> f_tauvsmoo = 0.000000000000000D+00
 --> f_hflux   = 0.000000000000000D+00
 --> f_hfluxmm = 0.000000000000000D+00
 --> f_hfluxsmoo = 0.000000000000000D+00
 --> f_sflux   = 0.000000000000000D+00
 --> f_sfluxmm = 0.000000000000000D+00
 --> f_sfluxsmoo = 0.000000000000000D+00
 --> f_uwind     = 0.000000000000000D+00
 --> f_vwind     = 0.000000000000000D+00
 --> f_atemp     = 0.000000000000000D+00
 --> f_aqh     = 0.000000000000000D+00
 --> f_precip  = 0.000000000000000D+00
 --> f_swflux  = 0.000000000000000D+00
 --> f_swdown  = 0.000000000000000D+00
 --> f_lwflux  = 0.000000000000000D+00
 --> f_lwdown  = 0.000000000000000D+00
 --> f_uwindm     = 0.000000000000000D+00
 --> f_vwindm     = 0.000000000000000D+00
 --> f_atempm     = 0.000000000000000D+00
 --> f_aqhm     = 0.000000000000000D+00
 --> f_precipm  = 0.000000000000000D+00
 --> f_swfluxm  = 0.000000000000000D+00
 --> f_lwfluxm  = 0.000000000000000D+00
 --> f_swdownm  = 0.000000000000000D+00
 --> f_lwdownm  = 0.000000000000000D+00
 --> f_uwindsmoo     = 0.000000000000000D+00
 --> f_vwindsmoo     = 0.000000000000000D+00
 --> f_atempsmoo     = 0.000000000000000D+00
 --> f_aqhsmoo     = 0.000000000000000D+00
 --> f_precipsmoo  = 0.000000000000000D+00
 --> f_swfluxsmoo  = 0.000000000000000D+00
 --> f_lwfluxsmoo  = 0.000000000000000D+00
 --> f_swdownsmoo  = 0.000000000000000D+00
 --> f_lwdownsmoo  = 0.000000000000000D+00
 --> f_atl     = 0.000000000000000D+00
 --> f_ctdt    = 0.000000000000000D+00
 --> f_ctds    = 0.000000000000000D+00
 --> f_ctdtclim= 0.000000000000000D+00
 --> f_ctdsclim= 0.000000000000000D+00
 --> f_xbt     = 0.000000000000000D+00
 --> f_argot   = 0.000000000000000D+00
 --> f_argos   = 0.000000000000000D+00
 --> f_drifter   = 0.000000000000000D+00
 --> f_tdrift  = 0.000000000000000D+00
 --> f_sdrift  = 0.000000000000000D+00
 --> f_wdrift  = 0.000000000000000D+00
 --> f_scatx   = 0.000000000000000D+00
 --> f_scaty   = 0.000000000000000D+00
 --> f_scatxm  = 0.000000000000000D+00
 --> f_scatym  = 0.000000000000000D+00
 --> f_curmtr  = 0.000000000000000D+00
 --> f_kapgm   = 0.000000000000000D+00
 --> f_kapredi   = 0.000000000000000D+00
 --> f_diffkr  = 0.000000000000000D+00
 --> f_eddytau = 0.000000000000000D+00
 --> f_bottomdrag = 0.000000000000000D+00
 --> f_hfluxmm2           = 0.000000000000000D+00
 --> f_sfluxmm2           = 0.000000000000000D+00
 --> f_transp             = 0.000000000000000D+00
 --> objf_hmean           = 0.000000000000000D+00
(PID.TID 0000.0001)  --> fc               = 0.691935670431963D+06
(PID.TID 0000.0001)   early fc =  0.000000000000000D+00
(PID.TID 0000.0001)   local fc =  0.691935670431963D+06
(PID.TID 0000.0001)  global fc =  0.691935670431963D+06
(PID.TID 0000.0001) grdchk perturb(+)fc: fcpertplus  =  6.91935670431963E+05
(PID.TID 0000.0001) Start initial hydrostatic pressure computation
(PID.TID 0000.0001) Pressure is predetermined for buoyancyRelation OCEANIC
(PID.TID 0000.0001) 
(PID.TID 0000.0001) // =======================================================
(PID.TID 0000.0001) // Model current state
(PID.TID 0000.0001) // =======================================================
(PID.TID 0000.0001) 
 ph-ice B            0  -1.9299999999999999       3.19162471080251071E-003  1.59581235540125536E-003
 ph-ice C            0   7978.8401425578732     
(PID.TID 0000.0001) SOLVE_FOR_PRESSURE: putPmEinXvector =    F
 cg2d: Sum(rhs),rhsMax =   1.00000000000000E+00  5.58645366562891E-06
 ph-ice B            1  -1.9277414197685627       8.88744644764664395E-003  3.09504226936894089E-003
 ph-ice C            1   30196.839095036918     
 cg2d: Sum(rhs),rhsMax =   1.00000000000000E+00  1.08504368230758E-05
 ph-ice B            2  -1.9227439747600830       1.45024480690297778E-002  4.38366278362199800E-003
 ph-ice C            2   66451.952181136745     
 cg2d: Sum(rhs),rhsMax =   1.00000000000000E+00  1.54115964321312E-05
 ph-ice B            3  -1.9169503608554472       2.00243196851621549E-002  5.43052921366403603E-003
 ph-ice C            3   116511.36085491232     
 cg2d: Sum(rhs),rhsMax =   1.00000000000000E+00  1.91662531225653E-05
 ph-ice B            4  -1.9115570379484903       2.54432301574321271E-002  6.25461774273295724E-003
 ph-ice C            4   180117.66940658842     
 cg2d: Sum(rhs),rhsMax =   1.00000000000000E+00  2.21776166169988E-05
 ph-ice B            5  -1.9071999687544561       3.07544746274600322E-002  6.90085024611461744E-003
 ph-ice C            5   257001.72030715796     
 cg2d: Sum(rhs),rhsMax =   1.00000000000000E+00  2.45952898094995E-05
 ph-ice B            6  -1.9040029496175894       3.59579708481892468E-002  7.41854980187163331E-003
 ph-ice C            6   346894.15041568363     
 cg2d: Sum(rhs),rhsMax =   1.00000000000000E+00  2.65835314343749E-05
 ph-ice B            7  -1.9016149210441200       4.10551564203440883E-002  7.84195979761917288E-003
 ph-ice C            7   449529.19049320836     
 cg2d: Sum(rhs),rhsMax =   1.00000000000000E+00  2.82563899432685E-05
 ph-ice B            8  -1.8993859246767961       4.60449292759784468E-002  8.17839552776035428E-003
 ph-ice C            8   564638.31620744022     
 cg2d: Sum(rhs),rhsMax =   1.00000000000000E+00  2.96382518571715E-05
 ph-ice B            9  -1.8965938789197625       5.09203566420134285E-002  8.40585298346675086E-003
 ph-ice C            9   691935.67177481914     
 cg2d: Sum(rhs),rhsMax =   1.00000000000000E+00  3.06558805119332E-05
(PID.TID 0000.0001) Did not write pickup because writePickupAtEnd = FALSE
(PID.TID 0000.0001) ph-cost call cost_theta0
(PID.TID 0000.0001) ph-cost call cost_salt0
(PID.TID 0000.0001) ph-cost call cost_theta
(PID.TID 0000.0001) ph-cost call cost_salt
(PID.TID 0000.0001) ph-cost call cost_smrarea
  SICD cost smrarea/sst/sss    0.0000000000000000        0.0000000000000000        0.0000000000000000     
  SICD num points smrarea/sst/sss    0.0000000000000000        0.0000000000000000        0.0000000000000000     
 --> f_ice     = 0.691935671774819D+06
 --> f_smrarea = 0.000000000000000D+00
 --> f_smrarea = 0.000000000000000D+00
 --> f_smrarea = 0.000000000000000D+00
 --> f_temp    = 0.000000000000000D+00
 --> f_salt    = 0.000000000000000D+00
 --> f_temp0   = 0.945531200184689D-14
 --> f_salt0   = 0.000000000000000D+00
 --> f_temp0smoo = 0.000000000000000D+00
 --> f_salt0smoo = 0.000000000000000D+00
 --> f_etan0   = 0.000000000000000D+00
 --> f_uvel0   = 0.000000000000000D+00
 --> f_vvel0   = 0.000000000000000D+00
 --> f_sst     = 0.000000000000000D+00
 --> f_tmi     = 0.000000000000000D+00
 --> f_sss     = 0.000000000000000D+00
 --> f_bp      = 0.000000000000000D+00
 --> f_ies      = 0.000000000000000D+00
 --> f_ssh       = 0.000000000000000D+00
 --> f_tp        = 0.000000000000000D+00
 --> f_ers       = 0.000000000000000D+00
 --> f_gfo       = 0.000000000000000D+00
 --> f_tauu    = 0.000000000000000D+00
 --> f_tauum   = 0.000000000000000D+00
 --> f_tauusmoo = 0.000000000000000D+00
 --> f_tauv    = 0.000000000000000D+00
 --> f_tauvm   = 0.000000000000000D+00
 --> f_tauvsmoo = 0.000000000000000D+00
 --> f_hflux   = 0.000000000000000D+00
 --> f_hfluxmm = 0.000000000000000D+00
 --> f_hfluxsmoo = 0.000000000000000D+00
 --> f_sflux   = 0.000000000000000D+00
 --> f_sfluxmm = 0.000000000000000D+00
 --> f_sfluxsmoo = 0.000000000000000D+00
 --> f_uwind     = 0.000000000000000D+00
 --> f_vwind     = 0.000000000000000D+00
 --> f_atemp     = 0.000000000000000D+00
 --> f_aqh     = 0.000000000000000D+00
 --> f_precip  = 0.000000000000000D+00
 --> f_swflux  = 0.000000000000000D+00
 --> f_swdown  = 0.000000000000000D+00
 --> f_lwflux  = 0.000000000000000D+00
 --> f_lwdown  = 0.000000000000000D+00
 --> f_uwindm     = 0.000000000000000D+00
 --> f_vwindm     = 0.000000000000000D+00
 --> f_atempm     = 0.000000000000000D+00
 --> f_aqhm     = 0.000000000000000D+00
 --> f_precipm  = 0.000000000000000D+00
 --> f_swfluxm  = 0.000000000000000D+00
 --> f_lwfluxm  = 0.000000000000000D+00
 --> f_swdownm  = 0.000000000000000D+00
 --> f_lwdownm  = 0.000000000000000D+00
 --> f_uwindsmoo     = 0.000000000000000D+00
 --> f_vwindsmoo     = 0.000000000000000D+00
 --> f_atempsmoo     = 0.000000000000000D+00
 --> f_aqhsmoo     = 0.000000000000000D+00
 --> f_precipsmoo  = 0.000000000000000D+00
 --> f_swfluxsmoo  = 0.000000000000000D+00
 --> f_lwfluxsmoo  = 0.000000000000000D+00
 --> f_swdownsmoo  = 0.000000000000000D+00
 --> f_lwdownsmoo  = 0.000000000000000D+00
 --> f_atl     = 0.000000000000000D+00
 --> f_ctdt    = 0.000000000000000D+00
 --> f_ctds    = 0.000000000000000D+00
 --> f_ctdtclim= 0.000000000000000D+00
 --> f_ctdsclim= 0.000000000000000D+00
 --> f_xbt     = 0.000000000000000D+00
 --> f_argot   = 0.000000000000000D+00
 --> f_argos   = 0.000000000000000D+00
 --> f_drifter   = 0.000000000000000D+00
 --> f_tdrift  = 0.000000000000000D+00
 --> f_sdrift  = 0.000000000000000D+00
 --> f_wdrift  = 0.000000000000000D+00
 --> f_scatx   = 0.000000000000000D+00
 --> f_scaty   = 0.000000000000000D+00
 --> f_scatxm  = 0.000000000000000D+00
 --> f_scatym  = 0.000000000000000D+00
 --> f_curmtr  = 0.000000000000000D+00
 --> f_kapgm   = 0.000000000000000D+00
 --> f_kapredi   = 0.000000000000000D+00
 --> f_diffkr  = 0.000000000000000D+00
 --> f_eddytau = 0.000000000000000D+00
 --> f_bottomdrag = 0.000000000000000D+00
 --> f_hfluxmm2           = 0.000000000000000D+00
 --> f_sfluxmm2           = 0.000000000000000D+00
 --> f_transp             = 0.000000000000000D+00
 --> objf_hmean           = 0.000000000000000D+00
(PID.TID 0000.0001)  --> fc               = 0.691935671774819D+06
(PID.TID 0000.0001)   early fc =  0.000000000000000D+00
(PID.TID 0000.0001)   local fc =  0.691935671774819D+06
(PID.TID 0000.0001)  global fc =  0.691935671774819D+06
(PID.TID 0000.0001) grdchk perturb(-)fc: fcpertminus =  6.91935671774819E+05
grad-res -------------------------------
 grad-res     0    4    1    1    4    1    1    1   6.91935671103E+05  6.91935670432E+05  6.91935671775E+05
 grad-res     0    4    4    4    0    1    1    1  -6.71389209561E+03 -6.71428104397E+03 -5.79318748988E-05
(PID.TID 0000.0001)  ADM  ref_cost_function      =  6.91935671103431E+05
(PID.TID 0000.0001)  ADM  adjoint_gradient       = -6.71389209561213E+03
(PID.TID 0000.0001)  ADM  finite-diff_grad       = -6.71428104396909E+03
(PID.TID 0000.0001) ====== End of gradient-check number   4 (ierr=  0) =======
(PID.TID 0000.0001) 
(PID.TID 0000.0001) // =======================================================
(PID.TID 0000.0001) // Gradient check results  >>> START <<<
(PID.TID 0000.0001) // =======================================================
(PID.TID 0000.0001) 
(PID.TID 0000.0001)  EPS =   1.000000E-07
(PID.TID 0000.0001) 
(PID.TID 0000.0001) grdchk output h.p:  Id Itile Jtile LAYER   bi   bj   X(Id)           X(Id)+/-EPS
(PID.TID 0000.0001) grdchk output h.c:  Id  FC                   FC1                  FC2
(PID.TID 0000.0001) grdchk output h.g:  Id     FC1-FC2/(2*EPS)      ADJ GRAD(FC)         1-FDGRD/ADGRD
(PID.TID 0000.0001) 
(PID.TID 0000.0001) grdchk output (p):   1     1     1     1    1    1   0.000000000E+00 -1.000000000E-07
(PID.TID 0000.0001) grdchk output (c):   1  6.9193567110343E+05  6.9193548197623E+05  6.9193586023045E+05
(PID.TID 0000.0001) grdchk output (g):   1    -1.8912711070152E+06 -1.8912711858098E+06  4.1662230110262E-08
(PID.TID 0000.0001) 
(PID.TID 0000.0001) grdchk output (p):   2     1     1     2    1    1   0.000000000E+00 -1.000000000E-07
(PID.TID 0000.0001) grdchk output (c):   2  6.9193567110343E+05  6.9193567510464E+05  6.9193566710221E+05
(PID.TID 0000.0001) grdchk output (g):   2     4.0012121899053E+04  4.0012040598997E+04 -2.0318897921978E-06
(PID.TID 0000.0001) 
(PID.TID 0000.0001) grdchk output (p):   3     1     1     3    1    1   0.000000000E+00 -1.000000000E-07
(PID.TID 0000.0001) grdchk output (c):   3  6.9193567110343E+05  6.9193567370303E+05  6.9193566850383E+05
(PID.TID 0000.0001) grdchk output (g):   3     2.5996019830927E+04  2.5996176938344E+04  6.0434815882804E-06
(PID.TID 0000.0001) 
(PID.TID 0000.0001) grdchk output (p):   4     1     1     4    1    1   0.000000000E+00 -1.000000000E-07
(PID.TID 0000.0001) grdchk output (c):   4  6.9193567110343E+05  6.9193567043196E+05  6.9193567177482E+05
(PID.TID 0000.0001) grdchk output (g):   4    -6.7142810439691E+03 -6.7138920956121E+03 -5.7931874898776E-05
(PID.TID 0000.0001) 
(PID.TID 0000.0001) grdchk  summary  :  RMS of    4 ratios =  2.9140848095347E-05
(PID.TID 0000.0001) 
(PID.TID 0000.0001) // =======================================================
(PID.TID 0000.0001) // Gradient check results  >>> END <<<
(PID.TID 0000.0001) // =======================================================
(PID.TID 0000.0001) 
(PID.TID 0000.0001)   Seconds in section "ALL                    [THE_MODEL_MAIN]":
(PID.TID 0000.0001)           User time:   1.7767299618571997
(PID.TID 0000.0001)         System time:  5.09920010808855295E-002
(PID.TID 0000.0001)     Wall clock time:   1.8402872085571289
(PID.TID 0000.0001)          No. starts:           1
(PID.TID 0000.0001)           No. stops:           1
(PID.TID 0000.0001)   Seconds in section "INITIALISE_FIXED       [THE_MODEL_MAIN]":
(PID.TID 0000.0001)           User time:  9.79849975556135178E-002
(PID.TID 0000.0001)         System time:  5.99900004453957081E-003
(PID.TID 0000.0001)     Wall clock time:  0.10391283035278320
(PID.TID 0000.0001)          No. starts:           1
(PID.TID 0000.0001)           No. stops:           1
(PID.TID 0000.0001)   Seconds in section "ADTHE_MAIN_LOOP          [ADJOINT RUN]":
(PID.TID 0000.0001)           User time:  0.77288299053907394
(PID.TID 0000.0001)         System time:  2.79959989711642265E-002
(PID.TID 0000.0001)     Wall clock time:  0.81192088127136230
(PID.TID 0000.0001)          No. starts:           1
(PID.TID 0000.0001)           No. stops:           1
(PID.TID 0000.0001)   Seconds in section "FORWARD_STEP        [MAIN_DO_LOOP]":
(PID.TID 0000.0001)           User time:   1.0898340716958046
(PID.TID 0000.0001)         System time:  7.99899827688932419E-003
(PID.TID 0000.0001)     Wall clock time:   1.1087040901184082
(PID.TID 0000.0001)          No. starts:         100
(PID.TID 0000.0001)           No. stops:         100
(PID.TID 0000.0001)   Seconds in section "LOAD_FIELDS_DRIVER  [FORWARD_STEP]":
(PID.TID 0000.0001)           User time:  3.79958152770996094E-002
(PID.TID 0000.0001)         System time:  3.99999693036079407E-003
(PID.TID 0000.0001)     Wall clock time:  5.03635406494140625E-002
(PID.TID 0000.0001)          No. starts:         100
(PID.TID 0000.0001)           No. stops:         100
(PID.TID 0000.0001)   Seconds in section "EXF_GETFORCING     [LOAD_FLDS_DRIVER]":
(PID.TID 0000.0001)           User time:  3.89967858791351318E-002
(PID.TID 0000.0001)         System time:  3.99999693036079407E-003
(PID.TID 0000.0001)     Wall clock time:  4.99575138092041016E-002
(PID.TID 0000.0001)          No. starts:         110
(PID.TID 0000.0001)           No. stops:         110
(PID.TID 0000.0001)   Seconds in section "I/O (WRITE)        [ADJOINT LOOP]":
(PID.TID 0000.0001)           User time:  3.99928241968154907E-002
(PID.TID 0000.0001)         System time:  7.99899920821189880E-003
(PID.TID 0000.0001)     Wall clock time:  4.60875034332275391E-002
(PID.TID 0000.0001)          No. starts:         420
(PID.TID 0000.0001)           No. stops:         420
(PID.TID 0000.0001)   Seconds in section "EXTERNAL_FLDS_LOAD [LOAD_FLDS_DRIVER]":
(PID.TID 0000.0001)           User time:  9.98973846435546875E-004
(PID.TID 0000.0001)         System time:   0.0000000000000000
(PID.TID 0000.0001)     Wall clock time:  9.86576080322265625E-004
(PID.TID 0000.0001)          No. starts:         110
(PID.TID 0000.0001)           No. stops:         110
(PID.TID 0000.0001)   Seconds in section "CTRL_MAP_FORCING  [FORWARD_STEP]":
(PID.TID 0000.0001)           User time:  9.99987125396728516E-004
(PID.TID 0000.0001)         System time:   0.0000000000000000
(PID.TID 0000.0001)     Wall clock time:  8.88586044311523438E-004
(PID.TID 0000.0001)          No. starts:         100
(PID.TID 0000.0001)           No. stops:         100
(PID.TID 0000.0001)   Seconds in section "DO_ATMOSPHERIC_PHYS [FORWARD_STEP]":
(PID.TID 0000.0001)           User time:   0.0000000000000000
(PID.TID 0000.0001)         System time:   0.0000000000000000
(PID.TID 0000.0001)     Wall clock time:  2.28857994079589844E-003
(PID.TID 0000.0001)          No. starts:         100
(PID.TID 0000.0001)           No. stops:         100
(PID.TID 0000.0001)   Seconds in section "DO_OCEANIC_PHYS     [FORWARD_STEP]":
(PID.TID 0000.0001)           User time:  0.36794357746839523
(PID.TID 0000.0001)         System time:   0.0000000000000000
(PID.TID 0000.0001)     Wall clock time:  0.37064337730407715
(PID.TID 0000.0001)          No. starts:         100
(PID.TID 0000.0001)           No. stops:         100
(PID.TID 0000.0001)   Seconds in section "SEAICE_MODEL    [DO_OCEANIC_PHYS]":
(PID.TID 0000.0001)           User time:  2.99953967332839966E-002
(PID.TID 0000.0001)         System time:   0.0000000000000000
(PID.TID 0000.0001)     Wall clock time:  2.79011726379394531E-002
(PID.TID 0000.0001)          No. starts:         100
(PID.TID 0000.0001)           No. stops:         100
(PID.TID 0000.0001)   Seconds in section "SEAICE_DYNSOLVER   [SEAICE_MODEL]":
(PID.TID 0000.0001)           User time:  1.00000798702239990E-002
(PID.TID 0000.0001)         System time:   0.0000000000000000
(PID.TID 0000.0001)     Wall clock time:  8.00347328186035156E-003
(PID.TID 0000.0001)          No. starts:         110
(PID.TID 0000.0001)           No. stops:         110
(PID.TID 0000.0001)   Seconds in section "KPP_CALC [DO_OCEANIC_PHYS]":
(PID.TID 0000.0001)           User time:  0.29995442181825638
(PID.TID 0000.0001)         System time:   0.0000000000000000
(PID.TID 0000.0001)     Wall clock time:  0.30073165893554688
(PID.TID 0000.0001)          No. starts:         100
(PID.TID 0000.0001)           No. stops:         100
(PID.TID 0000.0001)   Seconds in section "DYNAMICS            [FORWARD_STEP]":
(PID.TID 0000.0001)           User time:  0.28395540267229080
(PID.TID 0000.0001)         System time:   0.0000000000000000
(PID.TID 0000.0001)     Wall clock time:  0.28078293800354004
(PID.TID 0000.0001)          No. starts:         100
(PID.TID 0000.0001)           No. stops:         100
(PID.TID 0000.0001)   Seconds in section "SOLVE_FOR_PRESSURE  [FORWARD_STEP]":
(PID.TID 0000.0001)           User time:  1.10000073909759521E-002
(PID.TID 0000.0001)         System time:  1.00000016391277313E-003
(PID.TID 0000.0001)     Wall clock time:  8.59379768371582031E-003
(PID.TID 0000.0001)          No. starts:         100
(PID.TID 0000.0001)           No. stops:         100
(PID.TID 0000.0001)   Seconds in section "MOM_CORRECTION_STEP [FORWARD_STEP]":
(PID.TID 0000.0001)           User time:  5.99886476993560791E-003
(PID.TID 0000.0001)         System time:   0.0000000000000000
(PID.TID 0000.0001)     Wall clock time:  1.20937824249267578E-002
(PID.TID 0000.0001)          No. starts:         100
(PID.TID 0000.0001)           No. stops:         100
(PID.TID 0000.0001)   Seconds in section "INTEGR_CONTINUITY   [FORWARD_STEP]":
(PID.TID 0000.0001)           User time:  3.00014019012451172E-003
(PID.TID 0000.0001)         System time:   0.0000000000000000
(PID.TID 0000.0001)     Wall clock time:  2.96473503112792969E-003
(PID.TID 0000.0001)          No. starts:         100
(PID.TID 0000.0001)           No. stops:         100
(PID.TID 0000.0001)   Seconds in section "BLOCKING_EXCHANGES  [FORWARD_STEP]":
(PID.TID 0000.0001)           User time:  5.39930164813995361E-002
(PID.TID 0000.0001)         System time:   0.0000000000000000
(PID.TID 0000.0001)     Wall clock time:  5.22575378417968750E-002
(PID.TID 0000.0001)          No. starts:         200
(PID.TID 0000.0001)           No. stops:         200
(PID.TID 0000.0001)   Seconds in section "THERMODYNAMICS      [FORWARD_STEP]":
(PID.TID 0000.0001)           User time:  0.26695237308740616
(PID.TID 0000.0001)         System time:   0.0000000000000000
(PID.TID 0000.0001)     Wall clock time:  0.26519012451171875
(PID.TID 0000.0001)          No. starts:         100
(PID.TID 0000.0001)           No. stops:         100
(PID.TID 0000.0001)   Seconds in section "TRC_CORRECTION_STEP [FORWARD_STEP]":
(PID.TID 0000.0001)           User time:  1.99902057647705078E-003
(PID.TID 0000.0001)         System time:   0.0000000000000000
(PID.TID 0000.0001)     Wall clock time:  9.49382781982421875E-004
(PID.TID 0000.0001)          No. starts:         100
(PID.TID 0000.0001)           No. stops:         100
(PID.TID 0000.0001)   Seconds in section "MONITOR             [FORWARD_STEP]":
(PID.TID 0000.0001)           User time:  8.99896025657653809E-003
(PID.TID 0000.0001)         System time:   0.0000000000000000
(PID.TID 0000.0001)     Wall clock time:  1.05628967285156250E-002
(PID.TID 0000.0001)          No. starts:         100
(PID.TID 0000.0001)           No. stops:         100
(PID.TID 0000.0001)   Seconds in section "COST_TILE           [FORWARD_STEP]":
(PID.TID 0000.0001)           User time:  9.99987125396728516E-004
(PID.TID 0000.0001)         System time:   0.0000000000000000
(PID.TID 0000.0001)     Wall clock time:  9.20772552490234375E-004
(PID.TID 0000.0001)          No. starts:         100
(PID.TID 0000.0001)           No. stops:         100
(PID.TID 0000.0001)   Seconds in section "DO_THE_MODEL_IO     [FORWARD_STEP]":
(PID.TID 0000.0001)           User time:  6.99989497661590576E-003
(PID.TID 0000.0001)         System time:  9.99999232590198517E-004
(PID.TID 0000.0001)     Wall clock time:  6.86955451965332031E-003
(PID.TID 0000.0001)          No. starts:         100
(PID.TID 0000.0001)           No. stops:         100
(PID.TID 0000.0001)   Seconds in section "DO_WRITE_PICKUP     [FORWARD_STEP]":
(PID.TID 0000.0001)           User time:  1.00000202655792236E-003
(PID.TID 0000.0001)         System time:   0.0000000000000000
(PID.TID 0000.0001)     Wall clock time:  1.68037414550781250E-003
(PID.TID 0000.0001)          No. starts:         100
(PID.TID 0000.0001)           No. stops:         100
(PID.TID 0000.0001)   Seconds in section "COST_FORCING       [ECCO SPIN-DOWN]":
(PID.TID 0000.0001)           User time:  6.99879229068756104E-003
(PID.TID 0000.0001)         System time:  3.99999879300594330E-003
(PID.TID 0000.0001)     Wall clock time:  1.14970207214355469E-002
(PID.TID 0000.0001)          No. starts:           9
(PID.TID 0000.0001)           No. stops:           9
(PID.TID 0000.0001)   Seconds in section "COST_HYD           [ECCO SPIN-DOWN]":
(PID.TID 0000.0001)           User time:  7.99925625324249268E-003
(PID.TID 0000.0001)         System time:  9.98999923467636108E-004
(PID.TID 0000.0001)     Wall clock time:  8.58783721923828125E-003
(PID.TID 0000.0001)          No. starts:           9
(PID.TID 0000.0001)           No. stops:           9
(PID.TID 0000.0001)   Seconds in section "SEAICE_COST_DRIVER [ECCO SPIN-DOWN]":
(PID.TID 0000.0001)           User time:   0.0000000000000000
(PID.TID 0000.0001)         System time:   0.0000000000000000
(PID.TID 0000.0001)     Wall clock time:  5.06401062011718750E-004
(PID.TID 0000.0001)          No. starts:           9
(PID.TID 0000.0001)           No. stops:           9
(PID.TID 0000.0001)   Seconds in section "COST_INTERNAL_PARAMS  [ECCO SPIN-DOWN]":
(PID.TID 0000.0001)           User time:   0.0000000000000000
(PID.TID 0000.0001)         System time:   0.0000000000000000
(PID.TID 0000.0001)     Wall clock time:  9.01222229003906250E-005
(PID.TID 0000.0001)          No. starts:           9
(PID.TID 0000.0001)           No. stops:           9
(PID.TID 0000.0001)   Seconds in section "COST_GENCOST_ALL    [ECCO SPIN-DOWN]":
(PID.TID 0000.0001)           User time:   0.0000000000000000
(PID.TID 0000.0001)         System time:   0.0000000000000000
(PID.TID 0000.0001)     Wall clock time:  8.20159912109375000E-005
(PID.TID 0000.0001)          No. starts:           9
(PID.TID 0000.0001)           No. stops:           9
(PID.TID 0000.0001)   Seconds in section "CTRL_COST_DRIVER [ECCO SPIN-DOWN]":
(PID.TID 0000.0001)           User time:   0.0000000000000000
(PID.TID 0000.0001)         System time:   0.0000000000000000
(PID.TID 0000.0001)     Wall clock time:  8.20159912109375000E-005
(PID.TID 0000.0001)          No. starts:           9
(PID.TID 0000.0001)           No. stops:           9
(PID.TID 0000.0001)   Seconds in section "CTRL_PACK           [THE_MODEL_MAIN]":
(PID.TID 0000.0001)           User time:  9.99987125396728516E-004
(PID.TID 0000.0001)         System time:  1.00000202655792236E-003
(PID.TID 0000.0001)     Wall clock time:  2.07614898681640625E-003
(PID.TID 0000.0001)          No. starts:           1
(PID.TID 0000.0001)           No. stops:           1
(PID.TID 0000.0001)   Seconds in section "CTRL_PACK     [THE_MODEL_MAIN]":
(PID.TID 0000.0001)           User time:  1.00004673004150391E-003
(PID.TID 0000.0001)         System time:  9.99998301267623901E-004
(PID.TID 0000.0001)     Wall clock time:  1.79386138916015625E-003
(PID.TID 0000.0001)          No. starts:           1
(PID.TID 0000.0001)           No. stops:           1
(PID.TID 0000.0001)   Seconds in section "GRDCHK_MAIN         [THE_MODEL_MAIN]":
(PID.TID 0000.0001)           User time:  0.90386193990707397
(PID.TID 0000.0001)         System time:  1.49970017373561859E-002
(PID.TID 0000.0001)     Wall clock time:  0.92050409317016602
(PID.TID 0000.0001)          No. starts:           1
(PID.TID 0000.0001)           No. stops:           1
(PID.TID 0000.0001)   Seconds in section "INITIALISE_VARIA    [THE_MAIN_LOOP]":
(PID.TID 0000.0001)           User time:  1.29969120025634766E-002
(PID.TID 0000.0001)         System time:  2.00000405311584473E-003
(PID.TID 0000.0001)     Wall clock time:  1.53539180755615234E-002
(PID.TID 0000.0001)          No. starts:           8
(PID.TID 0000.0001)           No. stops:           8
(PID.TID 0000.0001)   Seconds in section "MAIN LOOP           [THE_MAIN_LOOP]":
(PID.TID 0000.0001)           User time:  0.89086502790451050
(PID.TID 0000.0001)         System time:  1.09979994595050812E-002
(PID.TID 0000.0001)     Wall clock time:  0.90171313285827637
(PID.TID 0000.0001)          No. starts:           8
(PID.TID 0000.0001)           No. stops:           8
(PID.TID 0000.0001)   Seconds in section "COST_AVERAGESFIELDS [MAIN_DO_LOOP]":
(PID.TID 0000.0001)           User time:  9.99927520751953125E-004
(PID.TID 0000.0001)         System time:   0.0000000000000000
(PID.TID 0000.0001)     Wall clock time:  1.15156173706054688E-003
(PID.TID 0000.0001)          No. starts:          80
(PID.TID 0000.0001)           No. stops:          80
(PID.TID 0000.0001)   Seconds in section "MAIN_DO_LOOP        [THE_MAIN_LOOP]":
(PID.TID 0000.0001)           User time:  0.85187101364135742
(PID.TID 0000.0001)         System time:  5.99899888038635254E-003
(PID.TID 0000.0001)     Wall clock time:  0.86025333404541016
(PID.TID 0000.0001)          No. starts:          80
(PID.TID 0000.0001)           No. stops:          80
(PID.TID 0000.0001)   Seconds in section "COST_AVERAGESFIELDS [THE_MAIN_LOOP]":
(PID.TID 0000.0001)           User time:  4.99814748764038086E-003
(PID.TID 0000.0001)         System time:   0.0000000000000000
(PID.TID 0000.0001)     Wall clock time:  3.24106216430664063E-003
(PID.TID 0000.0001)          No. starts:           8
(PID.TID 0000.0001)           No. stops:           8
(PID.TID 0000.0001)   Seconds in section "ECCO_COST_DRIVER   [THE_MAIN_LOOP]":
(PID.TID 0000.0001)           User time:  1.39980912208557129E-002
(PID.TID 0000.0001)         System time:  3.99899855256080627E-003
(PID.TID 0000.0001)     Wall clock time:  1.89311504364013672E-002
(PID.TID 0000.0001)          No. starts:           8
(PID.TID 0000.0001)           No. stops:           8
(PID.TID 0000.0001)   Seconds in section "COST_FINAL         [ADJOINT SPIN-DOWN]":
(PID.TID 0000.0001)           User time:  4.99874353408813477E-003
(PID.TID 0000.0001)         System time:  1.00000202655792236E-003
(PID.TID 0000.0001)     Wall clock time:  4.96912002563476563E-003
(PID.TID 0000.0001)          No. starts:           8
(PID.TID 0000.0001)           No. stops:           8
(PID.TID 0000.0001) // ======================================================
(PID.TID 0000.0001) // Tile <-> Tile communication statistics
(PID.TID 0000.0001) // ======================================================
(PID.TID 0000.0001) // o Tile number: 000001
(PID.TID 0000.0001) //         No. X exchanges =              0
(PID.TID 0000.0001) //            Max. X spins =              0
(PID.TID 0000.0001) //            Min. X spins =     1000000000
(PID.TID 0000.0001) //          Total. X spins =              0
(PID.TID 0000.0001) //            Avg. X spins =       0.00E+00
(PID.TID 0000.0001) //         No. Y exchanges =              0
(PID.TID 0000.0001) //            Max. Y spins =              0
(PID.TID 0000.0001) //            Min. Y spins =     1000000000
(PID.TID 0000.0001) //          Total. Y spins =              0
(PID.TID 0000.0001) //            Avg. Y spins =       0.00E+00
(PID.TID 0000.0001) // o Thread number: 000001
(PID.TID 0000.0001) //            No. barriers =          18700
(PID.TID 0000.0001) //      Max. barrier spins =              1
(PID.TID 0000.0001) //      Min. barrier spins =              1
(PID.TID 0000.0001) //     Total barrier spins =          18700
(PID.TID 0000.0001) //      Avg. barrier spins =       1.00E+00
PROGRAM MAIN: Execution ended Normally
