(PID.TID 0000.0001) 
(PID.TID 0000.0001) // ======================================================
(PID.TID 0000.0001) //                      MITgcm UV
(PID.TID 0000.0001) //                      =========
(PID.TID 0000.0001) // ======================================================
(PID.TID 0000.0001) // execution environment starting up...
(PID.TID 0000.0001) 
(PID.TID 0000.0001) // MITgcmUV version:  checkpoint69e
(PID.TID 0000.0001) // Build user:        jm_c
(PID.TID 0000.0001) // Build host:        villon
(PID.TID 0000.0001) // Build date:        Fri Jul  4 11:32:02 EDT 2025
(PID.TID 0000.0001) 
(PID.TID 0000.0001) // =======================================================
(PID.TID 0000.0001) // Execution Environment parameter file "eedata"
(PID.TID 0000.0001) // =======================================================
(PID.TID 0000.0001) ># Example "eedata" file
(PID.TID 0000.0001) ># Lines beginning "#" are comments
(PID.TID 0000.0001) ># nTx - No. threads per process in X
(PID.TID 0000.0001) ># nTy - No. threads per process in Y
(PID.TID 0000.0001) > &EEPARMS
(PID.TID 0000.0001) > nTx=1,
(PID.TID 0000.0001) > nTy=1,
(PID.TID 0000.0001) > /
(PID.TID 0000.0001) ># Note: Some systems use & as the
(PID.TID 0000.0001) ># namelist terminator. Other systems
(PID.TID 0000.0001) ># use a / character (as shown here).
(PID.TID 0000.0001) 
(PID.TID 0000.0001) // =======================================================
(PID.TID 0000.0001) // Computational Grid Specification ( see files "SIZE.h" )
(PID.TID 0000.0001) //                                  ( and "eedata"       )
(PID.TID 0000.0001) // =======================================================
(PID.TID 0000.0001)      nPx =    1 ; /* No. processes in X */
(PID.TID 0000.0001)      nPy =    1 ; /* No. processes in Y */
(PID.TID 0000.0001)      nSx =    1 ; /* No. tiles in X per process */
(PID.TID 0000.0001)      nSy =    1 ; /* No. tiles in Y per process */
(PID.TID 0000.0001)      sNx =    1 ; /* Tile size in X */
(PID.TID 0000.0001)      sNy =    1 ; /* Tile size in Y */
(PID.TID 0000.0001)      OLx =    3 ; /* Tile overlap distance in X */
(PID.TID 0000.0001)      OLy =    3 ; /* Tile overlap distance in Y */
(PID.TID 0000.0001)      nTx =    1 ; /* No. threads in X per process */
(PID.TID 0000.0001)      nTy =    1 ; /* No. threads in Y per process */
(PID.TID 0000.0001)       Nr =   23 ; /* No. levels in the vertical   */
(PID.TID 0000.0001)       Nx =    1 ; /* Total domain size in X ( = nPx*nSx*sNx ) */
(PID.TID 0000.0001)       Ny =    1 ; /* Total domain size in Y ( = nPy*nSy*sNy ) */
(PID.TID 0000.0001)   nTiles =    1 ; /* Total no. tiles per process ( = nSx*nSy ) */
(PID.TID 0000.0001)   nProcs =    1 ; /* Total no. processes ( = nPx*nPy ) */
(PID.TID 0000.0001) nThreads =    1 ; /* Total no. threads per process ( = nTx*nTy ) */
(PID.TID 0000.0001) usingMPI =    F ; /* Flag used to control whether MPI is in use */
(PID.TID 0000.0001)                   /*  note: To execute a program with MPI calls */
(PID.TID 0000.0001)                   /*  it must be launched appropriately e.g     */
(PID.TID 0000.0001)                   /*  "mpirun -np 64 ......"                    */
(PID.TID 0000.0001) useCoupler=   F ; /* Flag used to control communications with   */
(PID.TID 0000.0001)                   /*  other model components, through a coupler */
(PID.TID 0000.0001) useNest2W_parent =    F ;/* Control 2-W Nesting comm */
(PID.TID 0000.0001) useNest2W_child  =    F ;/* Control 2-W Nesting comm */
(PID.TID 0000.0001) debugMode =    F ; /* print debug msg. (sequence of S/R calls)  */
(PID.TID 0000.0001) printMapIncludesZeros=    F ; /* print zeros in Std.Output maps */
(PID.TID 0000.0001) maxLengthPrt1D=   65 /* maxLength of 1D array printed to StdOut */
(PID.TID 0000.0001) 
(PID.TID 0000.0001) // ======================================================
(PID.TID 0000.0001) // Mapping of tiles to threads
(PID.TID 0000.0001) // ======================================================
(PID.TID 0000.0001) // -o- Thread   1, tiles (   1:   1,   1:   1)
(PID.TID 0000.0001) 
(PID.TID 0000.0001) // ======================================================
(PID.TID 0000.0001) // Tile <-> Tile connectvity table
(PID.TID 0000.0001) // ======================================================
(PID.TID 0000.0001) // Tile number: 000001 (process no. = 000000)
(PID.TID 0000.0001) //        WEST: Tile = 000001, Process = 000000, Comm = put
(PID.TID 0000.0001) //                bi = 000001, bj = 000001
(PID.TID 0000.0001) //        EAST: Tile = 000001, Process = 000000, Comm = put
(PID.TID 0000.0001) //                bi = 000001, bj = 000001
(PID.TID 0000.0001) //       SOUTH: Tile = 000001, Process = 000000, Comm = put
(PID.TID 0000.0001) //                bi = 000001, bj = 000001
(PID.TID 0000.0001) //       NORTH: Tile = 000001, Process = 000000, Comm = put
(PID.TID 0000.0001) //                bi = 000001, bj = 000001
(PID.TID 0000.0001) 
(PID.TID 0000.0001)  INI_PARMS: opening model parameter file "data"
(PID.TID 0000.0001)  OPEN_COPY_DATA_FILE: opening file data
(PID.TID 0000.0001) // =======================================================
(PID.TID 0000.0001) // Parameter file "data"
(PID.TID 0000.0001) // =======================================================
(PID.TID 0000.0001) ># ====================
(PID.TID 0000.0001) ># | Model parameters |
(PID.TID 0000.0001) ># ====================
(PID.TID 0000.0001) >#
(PID.TID 0000.0001) ># Continuous equation parameters
(PID.TID 0000.0001) >#
(PID.TID 0000.0001) >#   tRef            - Reference vertical potential temperature          (deg C)
(PID.TID 0000.0001) >#   sRef            - Reference vertical salinity                         (PSU)
(PID.TID 0000.0001) >#   viscAh          - Horizontal eddy viscosity coefficient             (m^2/s)
(PID.TID 0000.0001) >#   viscAz          - Vertical eddy viscosity coefficient               (m^2/s)
(PID.TID 0000.0001) >#   diffKhT         - Horizontal temperature diffusivity                (m^2/s)
(PID.TID 0000.0001) >#   diffKzT         - Vertical temperature diffusivity                  (m^2/s)
(PID.TID 0000.0001) >#   diffKhS         - Horizontal salt diffusivity                       (m^2/s)
(PID.TID 0000.0001) >#   diffKzS         - Vertical salt diffusivity                         (m^2/s)
(PID.TID 0000.0001) >#   f0              - Reference coriolis parameter,
(PID.TID 0000.0001) >#                     south edge of f on beta plane                       (1/s)
(PID.TID 0000.0001) >#   beta            - df/dy                                         (s^-1.m^-1)
(PID.TID 0000.0001) >#   tAlpha          - Linear EOS thermal expansion coefficient           (1/oC)
(PID.TID 0000.0001) >#   sBeta           - Linear EOS haline contraction coefficient         (1/ppt)
(PID.TID 0000.0001) >#   gravity         - Acceleration due to gravity                       (m/s^2)
(PID.TID 0000.0001) >#   gBaro           - Accel. due to gravity used in barotropic equation (m/s^2)
(PID.TID 0000.0001) >#   rigidLid        - Set to true to use rigid lid
(PID.TID 0000.0001) >#   implicitFreeSurface - Set to true to use implicit free surface
(PID.TID 0000.0001) >#   eosType         - Flag for linear or polynomial equation of state
(PID.TID 0000.0001) >#   momAdvection    - On/Off flag for momentum self transport
(PID.TID 0000.0001) >#   momViscosity    - On/Off flag for momentum mixing
(PID.TID 0000.0001) >#
(PID.TID 0000.0001) > &PARM01
(PID.TID 0000.0001) ># an's T,S profiles @ 23 levels
(PID.TID 0000.0001) > tRef               = -1.930,-1.931,-1.932,-1.2854,-0.6,-0.6,-0.9,-1.2,-1.2,-1.3,
(PID.TID 0000.0001) >                      -1.4,-1.4,-1.5,-1.5,-1.5,-1.5,-1.3,-0.9,-0.3, 0.2,
(PID.TID 0000.0001) >                       0.5, 0.5, 0.5,
(PID.TID 0000.0001) ># tRef to use for 11,000 time step adjoint calculations
(PID.TID 0000.0001) ># tRef = -1.8420,-1.8464,-1.8392,-1.2854,-0.6,-0.6,-0.9,-1.2,-1.2,-1.3,
(PID.TID 0000.0001) ># 	-1.4,-1.4,-1.5,-1.5,-1.5,-1.5,-1.3,-0.9,-0.3, 0.2,
(PID.TID 0000.0001) ># 	0.5, 0.5, 0.5
(PID.TID 0000.0001) > sRef               = 29.0079,29.0080,29.0086,29.0775,30.7,31.6,31.9,32.1,32.3,32.4,
(PID.TID 0000.0001) >                      32.5,32.7,32.8,32.9,33.1,33.4,33.8,34.2,34.5,34.7,
(PID.TID 0000.0001) >                      34.8,34.8,34.8,
(PID.TID 0000.0001) > no_slip_sides=.FALSE.,
(PID.TID 0000.0001) > no_slip_bottom=.TRUE.,
(PID.TID 0000.0001) > viscAz=1.93e-5,
(PID.TID 0000.0001) > viscAh=5.E4,
(PID.TID 0000.0001) > diffKhT=0.0,
(PID.TID 0000.0001) > diffKzT=1.46e-7,
(PID.TID 0000.0001) > diffKhS=0.0,
(PID.TID 0000.0001) > diffKzS=1.46e-7,
(PID.TID 0000.0001) ># beta=1.E-11,
(PID.TID 0000.0001) ># 1-D setups work best with an f-plane due to unequal Coriolis force on north
(PID.TID 0000.0001) ># and south faces
(PID.TID 0000.0001) > selectCoriMap=0,
(PID.TID 0000.0001) > rigidLid=.FALSE.,
(PID.TID 0000.0001) > implicitFreeSurface=.TRUE.,
(PID.TID 0000.0001) > eosType='JMD95Z',
(PID.TID 0000.0001) > readBinaryPrec=32,
(PID.TID 0000.0001) > writeBinaryPrec=32,
(PID.TID 0000.0001) > saltStepping=.TRUE.,
(PID.TID 0000.0001) > tempStepping=.TRUE.,
(PID.TID 0000.0001) > momStepping=.TRUE.,
(PID.TID 0000.0001) > implicitDiffusion=.TRUE.,
(PID.TID 0000.0001) > implicitViscosity=.TRUE.,
(PID.TID 0000.0001) > allowFreezing=.FALSE.,
(PID.TID 0000.0001) >#- set wrong celsius2K to reproduce old results:
(PID.TID 0000.0001) > celsius2K=273.16,
(PID.TID 0000.0001) > HeatCapacity_Cp = 3986.0,
(PID.TID 0000.0001) > gravity         = 9.8156,
(PID.TID 0000.0001) > rhoConst        = 1027.0,
(PID.TID 0000.0001) > rhoConstFresh   = 999.8,
(PID.TID 0000.0001) > useCDscheme=.FALSE.,
(PID.TID 0000.0001) > staggerTimeStep=.TRUE.,
(PID.TID 0000.0001) > multiDimAdvection=.false.,
(PID.TID 0000.0001) > tempAdvScheme=30,
(PID.TID 0000.0001) > saltAdvScheme=30,
(PID.TID 0000.0001) > vectorInvariantMomentum=.TRUE.,
(PID.TID 0000.0001) > useRealFreshWaterFlux = .TRUE.,
(PID.TID 0000.0001) > useSingleCpuIO = .TRUE.,
(PID.TID 0000.0001) ># debugLevel=1,
(PID.TID 0000.0001) > /
(PID.TID 0000.0001) >
(PID.TID 0000.0001) ># Elliptic solver parameters
(PID.TID 0000.0001) >#
(PID.TID 0000.0001) >#   cg2dMaxIters       - Maximum number of 2d solver iterations
(PID.TID 0000.0001) >#   cg2dTargetResidual - Solver target residual
(PID.TID 0000.0001) >#
(PID.TID 0000.0001) > &PARM02
(PID.TID 0000.0001) > cg2dMaxIters=1000,
(PID.TID 0000.0001) > cg2dTargetResidual=1.D-13,
(PID.TID 0000.0001) > /
(PID.TID 0000.0001) >
(PID.TID 0000.0001) ># Time stepping parameters
(PID.TID 0000.0001) >#
(PID.TID 0000.0001) >#   startTime         - Integration starting time                (s)
(PID.TID 0000.0001) >#   endTime           - Integration ending time                  (s)
(PID.TID 0000.0001) >#   tauCD             - CD scheme coupling timescale             (s)
(PID.TID 0000.0001) >#   deltaTMom         - Timestep for momemtum equations          (s)
(PID.TID 0000.0001) >#   deltaTtracer      - Tracer timestep                          (s)
(PID.TID 0000.0001) >#   deltaTClock       - Timestep used as model "clock"           (s)
(PID.TID 0000.0001) >#   abEps             - Adams-Bashforth stabilising factor
(PID.TID 0000.0001) >#   pChkPtFreq        - Frequency of permanent check pointing    (s)
(PID.TID 0000.0001) >#   chkPtFreq         - Frequency of rolling check pointing      (s)
(PID.TID 0000.0001) >#   dumpFreq          - Frequency at which model state is stored (s)
(PID.TID 0000.0001) >#   tauThetaClimRelax - Relaxation to climatology time scale     (s)
(PID.TID 0000.0001) >#   tauSaltClimRelax  - Relaxation to climatology time scale     (s)
(PID.TID 0000.0001) >#
(PID.TID 0000.0001) > &PARM03
(PID.TID 0000.0001) > startTime=0.0,
(PID.TID 0000.0001) > nTimeSteps= 10,
(PID.TID 0000.0001) ># nTimeSteps= 11000,
(PID.TID 0000.0001) > deltaTtracer=3600.0,
(PID.TID 0000.0001) > deltaTClock =3600.0,
(PID.TID 0000.0001) > cAdjFreq=0.,
(PID.TID 0000.0001) > abEps=0.1,
(PID.TID 0000.0001) > tracForcingOutAB=1,
(PID.TID 0000.0001) > pChkptFreq=0.,
(PID.TID 0000.0001) > chkptFreq= 0.,
(PID.TID 0000.0001) > dumpFreq = 0.,
(PID.TID 0000.0001) > taveFreq = 0.,
(PID.TID 0000.0001) ># monitorFreq=86400.,
(PID.TID 0000.0001) ># adjDumpFreq=86400.,
(PID.TID 0000.0001) ># adjMonitorFreq = 86400.,
(PID.TID 0000.0001) > monitorFreq=1.,
(PID.TID 0000.0001) > adjDumpFreq=1.,
(PID.TID 0000.0001) > adjMonitorFreq = 1.,
(PID.TID 0000.0001) > /
(PID.TID 0000.0001) >
(PID.TID 0000.0001) ># Gridding parameters
(PID.TID 0000.0001) >#
(PID.TID 0000.0001) >#   usingSphericalPolarGrid - On/Off flag for spherical polar coordinates
(PID.TID 0000.0001) >#   delX                    - Zonal grid spacing         (degrees)
(PID.TID 0000.0001) >#   delY                    - Meridional grid spacing    (degrees)
(PID.TID 0000.0001) >#   delZ                    - Vertical grid spacing      (m)
(PID.TID 0000.0001) >#   ygOrigin                - Southern boundary latitude (degrees)
(PID.TID 0000.0001) >#
(PID.TID 0000.0001) > &PARM04
(PID.TID 0000.0001) > usingCartesianGrid=.TRUE.,
(PID.TID 0000.0001) > dXspacing=5000.,
(PID.TID 0000.0001) > dYspacing=5000.,
(PID.TID 0000.0001) ># usingSphericalPolarGrid=.TRUE.,
(PID.TID 0000.0001) ># delX=1*2.E0,
(PID.TID 0000.0001) ># delY=1*2.E0,
(PID.TID 0000.0001) > delZ   = 10.00, 10.00, 10.00, 10.00, 10.00, 10.00, 10.00, 10.01,
(PID.TID 0000.0001) > 10.03, 10.11, 10.32, 10.80, 11.76, 13.42, 16.04 , 19.82, 24.85,
(PID.TID 0000.0001) > 31.10, 38.42, 46.50, 55.00, 63.50, 71.58,
(PID.TID 0000.0001) ># ygOrigin=65.,
(PID.TID 0000.0001) ># xgOrigin=280.,
(PID.TID 0000.0001) ># rSphere = 6371.D3,
(PID.TID 0000.0001) > /
(PID.TID 0000.0001) >
(PID.TID 0000.0001) > &PARM05
(PID.TID 0000.0001) > bathyFile = 'bathy_1x1_1105m_testpool',
(PID.TID 0000.0001) > /
(PID.TID 0000.0001) 
(PID.TID 0000.0001)  INI_PARMS ; starts to read PARM01
(PID.TID 0000.0001)  INI_PARMS ; read PARM01 : OK
(PID.TID 0000.0001)  INI_PARMS ; starts to read PARM02
(PID.TID 0000.0001)  INI_PARMS ; read PARM02 : OK
(PID.TID 0000.0001)  INI_PARMS ; starts to read PARM03
(PID.TID 0000.0001)  INI_PARMS ; read PARM03 : OK
(PID.TID 0000.0001)  INI_PARMS ; starts to read PARM04
(PID.TID 0000.0001)  INI_PARMS ; read PARM04 : OK
(PID.TID 0000.0001)  INI_PARMS ; starts to read PARM05
(PID.TID 0000.0001)  INI_PARMS ; read PARM05 : OK
(PID.TID 0000.0001)  INI_PARMS: finished reading file "data"
(PID.TID 0000.0001)  PACKAGES_BOOT: opening data.pkg
(PID.TID 0000.0001)  OPEN_COPY_DATA_FILE: opening file data.pkg
(PID.TID 0000.0001) // =======================================================
(PID.TID 0000.0001) // Parameter file "data.pkg"
(PID.TID 0000.0001) // =======================================================
(PID.TID 0000.0001) ># Packages
(PID.TID 0000.0001) > &PACKAGES
(PID.TID 0000.0001) >  useKPP    = .TRUE.,
(PID.TID 0000.0001) >  useEXF    = .TRUE.,
(PID.TID 0000.0001) >  useSEAICE = .TRUE.,
(PID.TID 0000.0001) >  useECCO   = .TRUE.,
(PID.TID 0000.0001) >  useGrdchk = .TRUE.,
(PID.TID 0000.0001) >
(PID.TID 0000.0001) >#  useMNC    = .TRUE,
(PID.TID 0000.0001) >#  useDiagnostics = .TRUE.,
(PID.TID 0000.0001) > /
(PID.TID 0000.0001) 
(PID.TID 0000.0001)  PACKAGES_BOOT: finished reading data.pkg
(PID.TID 0000.0001)  PACKAGES_BOOT: On/Off package Summary
 --------  pkgs with a standard "usePKG" On/Off switch in "data.pkg":  --------
 pkg/kpp                  compiled   and   used ( useKPP                   = T )
 pkg/cal                  compiled   and   used ( useCAL                   = T )
 pkg/exf                  compiled   and   used ( useEXF                   = T )
 pkg/autodiff             compiled   and   used ( useAUTODIFF              = T )
 pkg/grdchk               compiled   and   used ( useGrdchk                = T )
 pkg/ecco                 compiled   and   used ( useECCO                  = T )
 pkg/ctrl                 compiled   and   used ( useCTRL                  = T )
 pkg/seaice               compiled   and   used ( useSEAICE                = T )
 -------- pkgs without standard "usePKG" On/Off switch in "data.pkg":  --------
 pkg/generic_advdiff      compiled   and   used ( useGAD                   = T )
 pkg/mom_common           compiled   and   used ( momStepping              = T )
 pkg/mom_vecinv           compiled   and   used ( +vectorInvariantMomentum = T )
 pkg/mom_fluxform         compiled but not used ( & not vectorInvariantMom = F )
 pkg/monitor              compiled   and   used ( monitorFreq > 0.         = T )
 pkg/debug                compiled but not used ( debugMode                = F )
 pkg/rw                   compiled   and   used
 pkg/mdsio                compiled   and   used
 pkg/autodiff             compiled   and   used
 pkg/cost                 compiled   and   used
(PID.TID 0000.0001)  PACKAGES_BOOT: End of package Summary
(PID.TID 0000.0001) 
(PID.TID 0000.0001) CAL_READPARMS: opening data.cal
(PID.TID 0000.0001)  OPEN_COPY_DATA_FILE: opening file data.cal
(PID.TID 0000.0001) // =======================================================
(PID.TID 0000.0001) // Parameter file "data.cal"
(PID.TID 0000.0001) // =======================================================
(PID.TID 0000.0001) >#
(PID.TID 0000.0001) ># *******************
(PID.TID 0000.0001) ># Calendar Parameters
(PID.TID 0000.0001) ># *******************
(PID.TID 0000.0001) > &CAL_NML
(PID.TID 0000.0001) > TheCalendar='gregorian',
(PID.TID 0000.0001) ># TheCalendar='model',
(PID.TID 0000.0001) > startDate_1=19790101,
(PID.TID 0000.0001) > startDate_2=000000,
(PID.TID 0000.0001) > /
(PID.TID 0000.0001) 
(PID.TID 0000.0001) CAL_READPARMS: finished reading data.cal
(PID.TID 0000.0001) EXF_READPARMS: opening data.exf
(PID.TID 0000.0001)  OPEN_COPY_DATA_FILE: opening file data.exf
(PID.TID 0000.0001) // =======================================================
(PID.TID 0000.0001) // Parameter file "data.exf"
(PID.TID 0000.0001) // =======================================================
(PID.TID 0000.0001) >#
(PID.TID 0000.0001) ># *********************
(PID.TID 0000.0001) ># External Forcing Data
(PID.TID 0000.0001) ># *********************
(PID.TID 0000.0001) > &EXF_NML_01
(PID.TID 0000.0001) >#
(PID.TID 0000.0001) > useExfCheckRange  = .TRUE.,
(PID.TID 0000.0001) > repeatPeriod      = 31622400.0,
(PID.TID 0000.0001) > exf_iprec         = 32,
(PID.TID 0000.0001) ># to reproduce old results with ALLOW_BULK_LARGEYEAGER09 set new
(PID.TID 0000.0001) ># coefficent to zero and umax to some value that is never reached.
(PID.TID 0000.0001) > cdrag_8 = 0.,
(PID.TID 0000.0001) > umax    = 1000.,
(PID.TID 0000.0001) >#
(PID.TID 0000.0001) > /
(PID.TID 0000.0001) >
(PID.TID 0000.0001) ># *********************
(PID.TID 0000.0001) > &EXF_NML_02
(PID.TID 0000.0001) >#
(PID.TID 0000.0001) > hfluxstartdate1   = 19781216,
(PID.TID 0000.0001) > hfluxstartdate2   = 180000,
(PID.TID 0000.0001) > hfluxperiod       = 2635200.0,
(PID.TID 0000.0001) >#
(PID.TID 0000.0001) > sfluxstartdate1   = 19781216,
(PID.TID 0000.0001) > sfluxstartdate2   = 180000,
(PID.TID 0000.0001) > sfluxperiod       = 2635200.0,
(PID.TID 0000.0001) >#
(PID.TID 0000.0001) > ustressstartdate1 = 19781216,
(PID.TID 0000.0001) > ustressstartdate2 = 180000,
(PID.TID 0000.0001) > ustressperiod     = 2635200.0,
(PID.TID 0000.0001) >#
(PID.TID 0000.0001) > vstressstartdate1 = 19781216,
(PID.TID 0000.0001) > vstressstartdate2 = 180000,
(PID.TID 0000.0001) > vstressperiod     = 2635200.0,
(PID.TID 0000.0001) >#
(PID.TID 0000.0001) > atempstartdate1   = 19781216,
(PID.TID 0000.0001) > atempstartdate2   = 180000,
(PID.TID 0000.0001) > atempperiod       = 2635200.0,
(PID.TID 0000.0001) > atempperiod       = 86400.0,
(PID.TID 0000.0001) >#
(PID.TID 0000.0001) > aqhstartdate1     = 19781216,
(PID.TID 0000.0001) > aqhstartdate2     = 180000,
(PID.TID 0000.0001) > aqhperiod         = 2635200.0,
(PID.TID 0000.0001) >#
(PID.TID 0000.0001) >#evapstartdate1    = 19781216,
(PID.TID 0000.0001) >#evapstartdate2    = 180000,
(PID.TID 0000.0001) >#evapperiod        = 2635200.0,
(PID.TID 0000.0001) >#
(PID.TID 0000.0001) > precipstartdate1  = 19781216,
(PID.TID 0000.0001) > precipstartdate2  = 180000,
(PID.TID 0000.0001) > precipperiod      = 2635200.0,
(PID.TID 0000.0001) >#
(PID.TID 0000.0001) > uwindstartdate1   = 19781216,
(PID.TID 0000.0001) > uwindstartdate2   = 180000,
(PID.TID 0000.0001) > uwindperiod       = 2635200.0,
(PID.TID 0000.0001) >#
(PID.TID 0000.0001) > vwindstartdate1   = 19781216,
(PID.TID 0000.0001) > vwindstartdate2   = 180000,
(PID.TID 0000.0001) > vwindperiod       = 2635200.0,
(PID.TID 0000.0001) >#
(PID.TID 0000.0001) > swfluxstartdate1  = 19781216,
(PID.TID 0000.0001) > swfluxstartdate2  = 180000,
(PID.TID 0000.0001) > swfluxperiod      = 2635200.0,
(PID.TID 0000.0001) >#
(PID.TID 0000.0001) > lwfluxstartdate1  = 19781216,
(PID.TID 0000.0001) > lwfluxstartdate2  = 180000,
(PID.TID 0000.0001) > lwfluxperiod      = 2635200.0,
(PID.TID 0000.0001) >#
(PID.TID 0000.0001) > swdownstartdate1  = 19781216,
(PID.TID 0000.0001) > swdownstartdate2  = 180000,
(PID.TID 0000.0001) > swdownperiod      = 2635200.0,
(PID.TID 0000.0001) > swdownperiod = 86400.0,
(PID.TID 0000.0001) >#
(PID.TID 0000.0001) > lwdownstartdate1  = 19781216,
(PID.TID 0000.0001) > lwdownstartdate2  = 180000,
(PID.TID 0000.0001) > lwdownperiod      = 2635200.0,
(PID.TID 0000.0001) > lwdownperiod = 86400.0,
(PID.TID 0000.0001) >#
(PID.TID 0000.0001) ># climsststartdate1  = 19781216,
(PID.TID 0000.0001) ># climsststartdate2  = 180000,
(PID.TID 0000.0001) ># climsstperiod      = 2635200.0,
(PID.TID 0000.0001) ># climsstTauRelax    = 0.0,
(PID.TID 0000.0001) >#
(PID.TID 0000.0001) ># climsssstartdate1  = 19781216,
(PID.TID 0000.0001) ># climsssstartdate2  = 180000,
(PID.TID 0000.0001) ># climsssperiod      = 2635200.0,
(PID.TID 0000.0001) ># climsssTauRelax    = 4142330.0,
(PID.TID 0000.0001) >#
(PID.TID 0000.0001) > hfluxfile         = ' ',
(PID.TID 0000.0001) > sfluxfile         = ' ',
(PID.TID 0000.0001) > ustressfile       = ' ',
(PID.TID 0000.0001) > vstressfile       = ' ',
(PID.TID 0000.0001) > atempfile         ='atemp_1x1_one_year',
(PID.TID 0000.0001) > lwdownfile        ='dlwrf_1x1_one_year',
(PID.TID 0000.0001) > swdownfile        ='dswrf_1x1_one_year',
(PID.TID 0000.0001) > uwindfile         ='u_1ms_1x1_one_year',
(PID.TID 0000.0001) > vwindfile         ='u_1ms_1x1_one_year',
(PID.TID 0000.0001) > lwfluxfile        = ' ',
(PID.TID 0000.0001) > swfluxfile        = ' ',
(PID.TID 0000.0001) > runoffFile        = ' '
(PID.TID 0000.0001) > /
(PID.TID 0000.0001) >
(PID.TID 0000.0001) ># *********************
(PID.TID 0000.0001) > &EXF_NML_03
(PID.TID 0000.0001) > /
(PID.TID 0000.0001) >
(PID.TID 0000.0001) ># *********************
(PID.TID 0000.0001) > &EXF_NML_04
(PID.TID 0000.0001) > /
(PID.TID 0000.0001) 
(PID.TID 0000.0001) EXF_READPARMS: reading EXF_NML_01
(PID.TID 0000.0001) EXF_READPARMS: reading EXF_NML_02
(PID.TID 0000.0001) EXF_READPARMS: reading EXF_NML_03
(PID.TID 0000.0001) EXF_READPARMS: finished reading data.exf
(PID.TID 0000.0001)  KPP_READPARMS: opening data.kpp
(PID.TID 0000.0001)  OPEN_COPY_DATA_FILE: opening file data.kpp
(PID.TID 0000.0001) // =======================================================
(PID.TID 0000.0001) // Parameter file "data.kpp"
(PID.TID 0000.0001) // =======================================================
(PID.TID 0000.0001) ># KPP parameters
(PID.TID 0000.0001) > &KPP_PARM01
(PID.TID 0000.0001) > KPPmixingMaps   = .FALSE.,
(PID.TID 0000.0001) > KPPwriteState   = .TRUE.,
(PID.TID 0000.0001) > KPP_ghatUseTotalDiffus=.TRUE.,
(PID.TID 0000.0001) > KPPuseSWfrac3D  = .TRUE.,
(PID.TID 0000.0001) > /
(PID.TID 0000.0001) 
(PID.TID 0000.0001)  KPP_READPARMS ; starts to read KPP_PARM01
(PID.TID 0000.0001)  KPP_READPARMS ; read KPP_PARM01 : OK
(PID.TID 0000.0001)  KPP_READPARMS: finished reading data.kpp
(PID.TID 0000.0001) 
(PID.TID 0000.0001)  SEAICE_READPARMS: opening data.seaice
(PID.TID 0000.0001)  OPEN_COPY_DATA_FILE: opening file data.seaice
(PID.TID 0000.0001) // =======================================================
(PID.TID 0000.0001) // Parameter file "data.seaice"
(PID.TID 0000.0001) // =======================================================
(PID.TID 0000.0001) ># SEAICE parameters
(PID.TID 0000.0001) > &SEAICE_PARM01
(PID.TID 0000.0001) >      SEAICEwriteState   = .TRUE.,
(PID.TID 0000.0001) >#      SEAICE_initialHEFF = 1.1E-5,
(PID.TID 0000.0001) >      SEAICE_initialHEFF = 0.0,
(PID.TID 0000.0001) >      HsnowFile          = 'snow_0m_1x1',
(PID.TID 0000.0001) >      SEAICE_deltaTtherm = 3600.,
(PID.TID 0000.0001) >      SEAICE_deltaTdyn   = 3600.,
(PID.TID 0000.0001) >      SEAICEuseDYNAMICS  =.FALSE.,
(PID.TID 0000.0001) >      SEAICEadvSalt      =.FALSE.,
(PID.TID 0000.0001) >      LSR_ERROR          = 1.E-6,
(PID.TID 0000.0001) >      SEAICE_EPS         = 1.E-8,
(PID.TID 0000.0001) >      SEAICEadvSnow      = .TRUE.,
(PID.TID 0000.0001) >      SEAICE_mcPheePiston= 0.0008749999999999999,
(PID.TID 0000.0001) >      SEAICE_mcPheeTaper = 0.92,
(PID.TID 0000.0001) >      SEAICE_frazilFrac  = 0.,
(PID.TID 0000.0001) >      SEAICE_saltFrac    = 0.30,
(PID.TID 0000.0001) >      SEAICE_tempFrz0    = -1.96,
(PID.TID 0000.0001) >      SEAICE_dTempFrz_dS = 0.,
(PID.TID 0000.0001) >      SEAICEuseFlooding  = .TRUE.,
(PID.TID 0000.0001) >      SEAICE_area_reg    = 0.15,
(PID.TID 0000.0001) >      SEAICE_area_floor  = 1.E-5,
(PID.TID 0000.0001) >      SEAICE_hice_reg    = 0.10,
(PID.TID 0000.0001) >#      SEAICE_debugPointI = 3,
(PID.TID 0000.0001) >#      SEAICE_debugPointJ = 3,
(PID.TID 0000.0001) >      IMAX_TICE = 6,
(PID.TID 0000.0001) >#- to reproduce old results with former #undef SEAICE_SOLVE4TEMP_LEGACY code
(PID.TID 0000.0001) >  SEAICE_wetAlbTemp = 0.,
(PID.TID 0000.0001) >  SEAICE_snowThick  = 0.,
(PID.TID 0000.0001) >      SEAICE_mon_mnc = .TRUE.
(PID.TID 0000.0001) ># For backward compatibility only:
(PID.TID 0000.0001) ># emissivities should be inherited from exf and setting them here does
(PID.TID 0000.0001) ># not set a good example
(PID.TID 0000.0001) > SEAICE_snow_emiss     = 0.97001763668430343479,
(PID.TID 0000.0001) > SEAICE_ice_emiss      = 0.97001763668430343479,
(PID.TID 0000.0001) ># old defaults
(PID.TID 0000.0001) > SEAICEadvScheme       = 2,
(PID.TID 0000.0001) > /
(PID.TID 0000.0001) > &SEAICE_PARM02
(PID.TID 0000.0001) >  mult_ice   = 1.,
(PID.TID 0000.0001) ># choose which seaice cost term you want
(PID.TID 0000.0001) >  cost_ice_flag = 2,
(PID.TID 0000.0001) ># the following timings are obsolete;
(PID.TID 0000.0001) ># replaced by lastinterval
(PID.TID 0000.0001) > costIceStart1        = 20000101,
(PID.TID 0000.0001) > costIceStart2        = 00000,
(PID.TID 0000.0001) > costIceEnd1        = 20000201,
(PID.TID 0000.0001) > costIceEnd2        = 00000,
(PID.TID 0000.0001) > /
(PID.TID 0000.0001) 
(PID.TID 0000.0001)  SEAICE_READPARMS: finished reading data.seaice
(PID.TID 0000.0001) AUTODIFF_READPARMS: opening data.autodiff
(PID.TID 0000.0001)  OPEN_COPY_DATA_FILE: opening file data.autodiff
(PID.TID 0000.0001) // =======================================================
(PID.TID 0000.0001) // Parameter file "data.autodiff"
(PID.TID 0000.0001) // =======================================================
(PID.TID 0000.0001) ># =========================
(PID.TID 0000.0001) ># pkg AUTODIFF parameters :
(PID.TID 0000.0001) ># =========================
(PID.TID 0000.0001) >#  inAdExact :: get an exact adjoint (no approximation) (def=.True.)
(PID.TID 0000.0001) >#
(PID.TID 0000.0001) > &AUTODIFF_PARM01
(PID.TID 0000.0001) ># inAdExact = .FALSE.,
(PID.TID 0000.0001) ># dumpAdVarExch = 2,
(PID.TID 0000.0001) >  dumpAdByRec   = .TRUE.,
(PID.TID 0000.0001) > /
(PID.TID 0000.0001) 
(PID.TID 0000.0001) AUTODIFF_READPARMS: finished reading data.autodiff
(PID.TID 0000.0001) // ===================================
(PID.TID 0000.0001) // AUTODIFF parameters :
(PID.TID 0000.0001) // ===================================
(PID.TID 0000.0001) inAdExact = /* get an exact adjoint (no approximation) */
(PID.TID 0000.0001)                   T
(PID.TID 0000.0001)     ;
(PID.TID 0000.0001) useApproxAdvectionInAdMode = /* approximate AD-advection */
(PID.TID 0000.0001)                   F
(PID.TID 0000.0001)     ;
(PID.TID 0000.0001) cg2dFullAdjoint = /* use full hand written cg2d adjoint (no approximation) */
(PID.TID 0000.0001)                   F
(PID.TID 0000.0001)     ;
(PID.TID 0000.0001) useKPPinAdMode = /* use KPP in adjoint mode */
(PID.TID 0000.0001)                   T
(PID.TID 0000.0001)     ;
(PID.TID 0000.0001) useGMRediInAdMode = /* use GMRedi in adjoint mode */
(PID.TID 0000.0001)                   F
(PID.TID 0000.0001)     ;
(PID.TID 0000.0001) useSEAICEinAdMode = /* use SEAICE in adjoint mode */
(PID.TID 0000.0001)                   T
(PID.TID 0000.0001)     ;
(PID.TID 0000.0001) useGGL90inAdMode = /* use GGL90 in adjoint mode */
(PID.TID 0000.0001)                   F
(PID.TID 0000.0001)     ;
(PID.TID 0000.0001) useSALT_PLUMEinAdMode = /* use SALT_PLUME in adjoint mode */
(PID.TID 0000.0001)                   F
(PID.TID 0000.0001)     ;
(PID.TID 0000.0001) SEAICEuseDYNAMICSswitchInAd = /* switch On/Off SEAICE Dyn in AD mode */
(PID.TID 0000.0001)                   F
(PID.TID 0000.0001)     ;
(PID.TID 0000.0001) SEAICEuseFREEDRIFTswitchInAd= /* switch On/Off Free-Drift in AD mode */
(PID.TID 0000.0001)                   F
(PID.TID 0000.0001)     ;
(PID.TID 0000.0001) SEAICEapproxLevInAd = /* -1:SEAICE_FAKE, >0:other adjoint approximation */
(PID.TID 0000.0001)                       0
(PID.TID 0000.0001)     ;
(PID.TID 0000.0001) dumpAdVarExch = /* control adexch before dumpinp */
(PID.TID 0000.0001)                       2
(PID.TID 0000.0001)     ;
(PID.TID 0000.0001) mon_AdVarExch = /* control adexch before monitor */
(PID.TID 0000.0001)                       2
(PID.TID 0000.0001)     ;
(PID.TID 0000.0001) viscFacInFw = /* viscosity factor for forward model */
(PID.TID 0000.0001)                 1.000000000000000E+00
(PID.TID 0000.0001)     ;
(PID.TID 0000.0001) viscFacInAd = /* viscosity factor for adjoint */
(PID.TID 0000.0001)                 1.000000000000000E+00
(PID.TID 0000.0001)     ;
(PID.TID 0000.0001) SIregFacInAd = /* sea ice factor for adjoint model */
(PID.TID 0000.0001)                 1.234567000000000E+05
(PID.TID 0000.0001)     ;
(PID.TID 0000.0001) SIregFacInFw = /* sea ice factor for forward model */
(PID.TID 0000.0001)                 1.234567000000000E+05
(PID.TID 0000.0001)     ;
(PID.TID 0000.0001) 
(PID.TID 0000.0001) OPTIM_READPARMS: opening data.optim
(PID.TID 0000.0001)  OPEN_COPY_DATA_FILE: opening file data.optim
(PID.TID 0000.0001) // =======================================================
(PID.TID 0000.0001) // Parameter file "data.optim"
(PID.TID 0000.0001) // =======================================================
(PID.TID 0000.0001) >#
(PID.TID 0000.0001) ># ********************************
(PID.TID 0000.0001) ># Off-line optimization parameters
(PID.TID 0000.0001) ># ********************************
(PID.TID 0000.0001) > &OPTIM
(PID.TID 0000.0001) > optimcycle=0,
(PID.TID 0000.0001) > /
(PID.TID 0000.0001) 
(PID.TID 0000.0001) OPTIM_READPARMS: finished reading data.optim
(PID.TID 0000.0001) CTRL_READPARMS: opening data.ctrl
(PID.TID 0000.0001)  OPEN_COPY_DATA_FILE: opening file data.ctrl
(PID.TID 0000.0001) // =======================================================
(PID.TID 0000.0001) // Parameter file "data.ctrl"
(PID.TID 0000.0001) // =======================================================
(PID.TID 0000.0001) >#
(PID.TID 0000.0001) >#
(PID.TID 0000.0001) ># *********************
(PID.TID 0000.0001) ># ECCO controlvariables
(PID.TID 0000.0001) ># *********************
(PID.TID 0000.0001) > &CTRL_NML
(PID.TID 0000.0001) ># doSinglePrecTapelev=.TRUE.,
(PID.TID 0000.0001) > /
(PID.TID 0000.0001) >#
(PID.TID 0000.0001) ># *********************
(PID.TID 0000.0001) ># names for ctrl_pack/unpack
(PID.TID 0000.0001) ># *********************
(PID.TID 0000.0001) > &CTRL_PACKNAMES
(PID.TID 0000.0001) > /
(PID.TID 0000.0001) >#
(PID.TID 0000.0001) ># *********************
(PID.TID 0000.0001) ># names for CTRL_GENARR, CTRL_GENTIM
(PID.TID 0000.0001) ># *********************
(PID.TID 0000.0001) > &CTRL_NML_GENARR
(PID.TID 0000.0001) > xx_genarr3d_file(1)       = 'xx_theta',
(PID.TID 0000.0001) > xx_genarr3d_weight(1)     = 'ones_64b.bin',
(PID.TID 0000.0001) > xx_genarr3d_bounds(1:5,1) = -2.,-1.9,39.,40.,5.,
(PID.TID 0000.0001) >#mult_genarr3d(1)          = 1.0,
(PID.TID 0000.0001) >#
(PID.TID 0000.0001) > xx_genarr3d_file(2)       = 'xx_salt',
(PID.TID 0000.0001) > xx_genarr3d_weight(2)     = 'ones_64b.bin',
(PID.TID 0000.0001) > xx_genarr3d_bounds(1:5,2) = 29.,29.5,40.5,41.,5.,
(PID.TID 0000.0001) >#mult_genarr3d(2)          = 1.0,
(PID.TID 0000.0001) >#
(PID.TID 0000.0001) > xx_gentim2d_file(1)       = 'xx_atemp',
(PID.TID 0000.0001) > xx_gentim2d_weight(1)     = 'ones_64b.bin',
(PID.TID 0000.0001) > xx_gentim2d_startdate1(1) = 19790101,
(PID.TID 0000.0001) > xx_gentim2d_startdate2(1) = 000000,
(PID.TID 0000.0001) > xx_gentim2d_period(1)     = 864000.0,
(PID.TID 0000.0001) >#mult_gentim2d(9)          = 1.0,
(PID.TID 0000.0001) >#
(PID.TID 0000.0001) > xx_gentim2d_file(2)       = 'xx_aqh',
(PID.TID 0000.0001) > xx_gentim2d_weight(2)     = 'ones_64b.bin',
(PID.TID 0000.0001) > xx_gentim2d_startdate1(2) = 19790101,
(PID.TID 0000.0001) > xx_gentim2d_startdate2(2) = 000000,
(PID.TID 0000.0001) > xx_gentim2d_period(2)     = 864000.0,
(PID.TID 0000.0001) >#mult_gentim2d(9)          = 1.0,
(PID.TID 0000.0001) >#
(PID.TID 0000.0001) > xx_gentim2d_file(3)       = 'xx_precip',
(PID.TID 0000.0001) > xx_gentim2d_weight(3)     = 'ones_64b.bin',
(PID.TID 0000.0001) > xx_gentim2d_startdate1(3) = 19790101,
(PID.TID 0000.0001) > xx_gentim2d_startdate2(3) = 000000,
(PID.TID 0000.0001) > xx_gentim2d_period(3)     = 864000.0,
(PID.TID 0000.0001) >#mult_gentim2d(9)          = 1.0,
(PID.TID 0000.0001) >#
(PID.TID 0000.0001) > xx_gentim2d_file(4)       = 'xx_snowprecip',
(PID.TID 0000.0001) > xx_gentim2d_weight(4)     = 'ones_64b.bin',
(PID.TID 0000.0001) > xx_gentim2d_startdate1(4) = 19790101,
(PID.TID 0000.0001) > xx_gentim2d_startdate2(4) = 000000,
(PID.TID 0000.0001) > xx_gentim2d_period(4)     = 864000.0,
(PID.TID 0000.0001) >#mult_gentim2d(9)          = 1.0,
(PID.TID 0000.0001) >#
(PID.TID 0000.0001) > xx_gentim2d_file(5)       = 'xx_swdown',
(PID.TID 0000.0001) > xx_gentim2d_weight(5)     = 'ones_64b.bin',
(PID.TID 0000.0001) > xx_gentim2d_startdate1(5) = 19790101,
(PID.TID 0000.0001) > xx_gentim2d_startdate2(5) = 000000,
(PID.TID 0000.0001) > xx_gentim2d_period(5)     = 864000.0,
(PID.TID 0000.0001) >#mult_gentim2d(9)          = 1.0,
(PID.TID 0000.0001) >#
(PID.TID 0000.0001) > xx_gentim2d_file(6)       = 'xx_lwdown',
(PID.TID 0000.0001) > xx_gentim2d_weight(6)     = 'ones_64b.bin',
(PID.TID 0000.0001) > xx_gentim2d_startdate1(6) = 19790101,
(PID.TID 0000.0001) > xx_gentim2d_startdate2(6) = 000000,
(PID.TID 0000.0001) > xx_gentim2d_period(6)     = 864000.0,
(PID.TID 0000.0001) >#mult_gentim2d(9)          = 1.0,
(PID.TID 0000.0001) >#
(PID.TID 0000.0001) > xx_gentim2d_file(7)       = 'xx_uwind',
(PID.TID 0000.0001) > xx_gentim2d_weight(7)     = 'ones_64b.bin',
(PID.TID 0000.0001) > xx_gentim2d_startdate1(7) = 19790101,
(PID.TID 0000.0001) > xx_gentim2d_startdate2(7) = 000000,
(PID.TID 0000.0001) > xx_gentim2d_period(7)     = 864000.0,
(PID.TID 0000.0001) >#mult_gentim2d(9)          = 1.0,
(PID.TID 0000.0001) >#
(PID.TID 0000.0001) > xx_gentim2d_file(8)       = 'xx_vwind',
(PID.TID 0000.0001) > xx_gentim2d_weight(8)     = 'ones_64b.bin',
(PID.TID 0000.0001) > xx_gentim2d_startdate1(8) = 19790101,
(PID.TID 0000.0001) > xx_gentim2d_startdate2(8) = 000000,
(PID.TID 0000.0001) > xx_gentim2d_period(8)     = 864000.0,
(PID.TID 0000.0001) >#mult_gentim2d(9)          = 1.0,
(PID.TID 0000.0001) >#
(PID.TID 0000.0001) > xx_gentim2d_file(9)       = 'xx_apressure',
(PID.TID 0000.0001) > xx_gentim2d_weight(9)     = 'ones_64b.bin',
(PID.TID 0000.0001) > xx_gentim2d_startdate1(9) = 19790101,
(PID.TID 0000.0001) > xx_gentim2d_startdate2(9) = 000000,
(PID.TID 0000.0001) > xx_gentim2d_period(9)     = 864000.0,
(PID.TID 0000.0001) >#mult_gentim2d(9)          = 1.0,
(PID.TID 0000.0001) >#
(PID.TID 0000.0001) > /
(PID.TID 0000.0001) 
(PID.TID 0000.0001) CTRL_READPARMS: finished reading data.ctrl
(PID.TID 0000.0001) read-write ctrl files from current run directory
(PID.TID 0000.0001) COST_READPARMS: opening data.cost
(PID.TID 0000.0001)  OPEN_COPY_DATA_FILE: opening file data.cost
(PID.TID 0000.0001) // =======================================================
(PID.TID 0000.0001) // Parameter file "data.cost"
(PID.TID 0000.0001) // =======================================================
(PID.TID 0000.0001) >#
(PID.TID 0000.0001) >#
(PID.TID 0000.0001) ># ******************
(PID.TID 0000.0001) ># cost function
(PID.TID 0000.0001) ># ******************
(PID.TID 0000.0001) > &COST_NML
(PID.TID 0000.0001) > /
(PID.TID 0000.0001) 
(PID.TID 0000.0001) COST_READPARMS: finished reading data.cost
(PID.TID 0000.0001) // =======================================================
(PID.TID 0000.0001) // cost configuration  >>> START <<<
(PID.TID 0000.0001) // =======================================================
(PID.TID 0000.0001) lastinterval =   /* cost interval over which to average ( s ). */
(PID.TID 0000.0001)                 2.592000000000000E+06
(PID.TID 0000.0001)     ;
(PID.TID 0000.0001) cost_mask_file = /* file name of cost mask file */
(PID.TID 0000.0001)               ''
(PID.TID 0000.0001)     ;
(PID.TID 0000.0001) // =======================================================
(PID.TID 0000.0001) // cost configuration  >>> END <<<
(PID.TID 0000.0001) // =======================================================
(PID.TID 0000.0001) 
(PID.TID 0000.0001) GRDCHK_READPARMS: opening data.grdchk
(PID.TID 0000.0001)  OPEN_COPY_DATA_FILE: opening file data.grdchk
(PID.TID 0000.0001) // =======================================================
(PID.TID 0000.0001) // Parameter file "data.grdchk"
(PID.TID 0000.0001) // =======================================================
(PID.TID 0000.0001) >
(PID.TID 0000.0001) ># *******************
(PID.TID 0000.0001) ># ECCO gradient check
(PID.TID 0000.0001) ># *******************
(PID.TID 0000.0001) > &GRDCHK_NML
(PID.TID 0000.0001) > grdchk_eps       = 1.d-7,
(PID.TID 0000.0001) ># nbeg             = 4,
(PID.TID 0000.0001) > iGloPos          = 1,
(PID.TID 0000.0001) > jGloPos          = 1,
(PID.TID 0000.0001) > kGloPos          = 1,
(PID.TID 0000.0001) > nstep            = 1,
(PID.TID 0000.0001) >#nend             = 6,
(PID.TID 0000.0001) > nend             = 3,
(PID.TID 0000.0001) > grdchkvarname    = "xx_theta",
(PID.TID 0000.0001) > /
(PID.TID 0000.0001) 
(PID.TID 0000.0001) GRDCHK_READPARMS: finished reading data.grdchk
(PID.TID 0000.0001) ECCO_READPARMS: opening data.ecco
(PID.TID 0000.0001)  OPEN_COPY_DATA_FILE: opening file data.ecco
(PID.TID 0000.0001) // =======================================================
(PID.TID 0000.0001) // Parameter file "data.ecco"
(PID.TID 0000.0001) // =======================================================
(PID.TID 0000.0001) >#
(PID.TID 0000.0001) >#
(PID.TID 0000.0001) ># ******************
(PID.TID 0000.0001) ># ECCO cost function
(PID.TID 0000.0001) ># ******************
(PID.TID 0000.0001) > &ECCO_COST_NML
(PID.TID 0000.0001) > /
(PID.TID 0000.0001) >
(PID.TID 0000.0001) >&ECCO_GENCOST_NML
(PID.TID 0000.0001) >#
(PID.TID 0000.0001) > gencost_avgperiod(1) = 'month',
(PID.TID 0000.0001) > gencost_barfile(1) = 'm_theta_month',
(PID.TID 0000.0001) > gencost_datafile(1) = 't_ref_1x1x23x13',
(PID.TID 0000.0001) > gencost_errfile(1) = 't.err',
(PID.TID 0000.0001) > gencost_name(1) = 'theta',
(PID.TID 0000.0001) > gencost_spmin(1) = -1.8,
(PID.TID 0000.0001) > gencost_spmax(1) = 40.,
(PID.TID 0000.0001) > gencost_spzero(1) = 0.,
(PID.TID 0000.0001) > gencost_outputlevel(1)=1,
(PID.TID 0000.0001) > mult_gencost(1) = 0.,
(PID.TID 0000.0001) >#
(PID.TID 0000.0001) > gencost_avgperiod(2) = 'month',
(PID.TID 0000.0001) > gencost_barfile(2) = 'm_salt_month',
(PID.TID 0000.0001) > gencost_datafile(2) = 's_ref_1x1x23x13',
(PID.TID 0000.0001) > gencost_errfile(2) = 's.err',
(PID.TID 0000.0001) > gencost_name(2) = 'salt',
(PID.TID 0000.0001) > gencost_spmin(2) = 25.,
(PID.TID 0000.0001) > gencost_spmax(2) = 40.,
(PID.TID 0000.0001) > gencost_spzero(2) = 0.,
(PID.TID 0000.0001) > gencost_outputlevel(2)=1,
(PID.TID 0000.0001) > mult_gencost(2) = 0.,
(PID.TID 0000.0001) >#
(PID.TID 0000.0001) > /
(PID.TID 0000.0001) 
(PID.TID 0000.0001) ECCO_READPARMS: finished reading #1: ecco_cost_nml
(PID.TID 0000.0001) ECCO_READPARMS: finished reading #2: ecco_gencost_nml
(PID.TID 0000.0001) ECCO_READPARMS: done
(PID.TID 0000.0001) SET_PARMS: done
(PID.TID 0000.0001) Enter INI_VERTICAL_GRID: setInterFDr=    T ; setCenterDr=    F
(PID.TID 0000.0001) %MON XC_max                       =   2.5000000000000E+03
(PID.TID 0000.0001) %MON XC_min                       =   2.5000000000000E+03
(PID.TID 0000.0001) %MON XC_mean                      =   2.5000000000000E+03
(PID.TID 0000.0001) %MON XC_sd                        =   0.0000000000000E+00
(PID.TID 0000.0001) %MON XG_max                       =   0.0000000000000E+00
(PID.TID 0000.0001) %MON XG_min                       =   0.0000000000000E+00
(PID.TID 0000.0001) %MON XG_mean                      =   0.0000000000000E+00
(PID.TID 0000.0001) %MON XG_sd                        =   0.0000000000000E+00
(PID.TID 0000.0001) %MON DXC_max                      =   5.0000000000000E+03
(PID.TID 0000.0001) %MON DXC_min                      =   5.0000000000000E+03
(PID.TID 0000.0001) %MON DXC_mean                     =   5.0000000000000E+03
(PID.TID 0000.0001) %MON DXC_sd                       =   0.0000000000000E+00
(PID.TID 0000.0001) %MON DXF_max                      =   5.0000000000000E+03
(PID.TID 0000.0001) %MON DXF_min                      =   5.0000000000000E+03
(PID.TID 0000.0001) %MON DXF_mean                     =   5.0000000000000E+03
(PID.TID 0000.0001) %MON DXF_sd                       =   0.0000000000000E+00
(PID.TID 0000.0001) %MON DXG_max                      =   5.0000000000000E+03
(PID.TID 0000.0001) %MON DXG_min                      =   5.0000000000000E+03
(PID.TID 0000.0001) %MON DXG_mean                     =   5.0000000000000E+03
(PID.TID 0000.0001) %MON DXG_sd                       =   0.0000000000000E+00
(PID.TID 0000.0001) %MON DXV_max                      =   5.0000000000000E+03
(PID.TID 0000.0001) %MON DXV_min                      =   5.0000000000000E+03
(PID.TID 0000.0001) %MON DXV_mean                     =   5.0000000000000E+03
(PID.TID 0000.0001) %MON DXV_sd                       =   0.0000000000000E+00
(PID.TID 0000.0001) %MON YC_max                       =   2.5000000000000E+03
(PID.TID 0000.0001) %MON YC_min                       =   2.5000000000000E+03
(PID.TID 0000.0001) %MON YC_mean                      =   2.5000000000000E+03
(PID.TID 0000.0001) %MON YC_sd                        =   0.0000000000000E+00
(PID.TID 0000.0001) %MON YG_max                       =   0.0000000000000E+00
(PID.TID 0000.0001) %MON YG_min                       =   0.0000000000000E+00
(PID.TID 0000.0001) %MON YG_mean                      =   0.0000000000000E+00
(PID.TID 0000.0001) %MON YG_sd                        =   0.0000000000000E+00
(PID.TID 0000.0001) %MON DYC_max                      =   5.0000000000000E+03
(PID.TID 0000.0001) %MON DYC_min                      =   5.0000000000000E+03
(PID.TID 0000.0001) %MON DYC_mean                     =   5.0000000000000E+03
(PID.TID 0000.0001) %MON DYC_sd                       =   0.0000000000000E+00
(PID.TID 0000.0001) %MON DYF_max                      =   5.0000000000000E+03
(PID.TID 0000.0001) %MON DYF_min                      =   5.0000000000000E+03
(PID.TID 0000.0001) %MON DYF_mean                     =   5.0000000000000E+03
(PID.TID 0000.0001) %MON DYF_sd                       =   0.0000000000000E+00
(PID.TID 0000.0001) %MON DYG_max                      =   5.0000000000000E+03
(PID.TID 0000.0001) %MON DYG_min                      =   5.0000000000000E+03
(PID.TID 0000.0001) %MON DYG_mean                     =   5.0000000000000E+03
(PID.TID 0000.0001) %MON DYG_sd                       =   0.0000000000000E+00
(PID.TID 0000.0001) %MON DYU_max                      =   5.0000000000000E+03
(PID.TID 0000.0001) %MON DYU_min                      =   5.0000000000000E+03
(PID.TID 0000.0001) %MON DYU_mean                     =   5.0000000000000E+03
(PID.TID 0000.0001) %MON DYU_sd                       =   0.0000000000000E+00
(PID.TID 0000.0001) %MON RA_max                       =   2.5000000000000E+07
(PID.TID 0000.0001) %MON RA_min                       =   2.5000000000000E+07
(PID.TID 0000.0001) %MON RA_mean                      =   2.5000000000000E+07
(PID.TID 0000.0001) %MON RA_sd                        =   0.0000000000000E+00
(PID.TID 0000.0001) %MON RAW_max                      =   2.5000000000000E+07
(PID.TID 0000.0001) %MON RAW_min                      =   2.5000000000000E+07
(PID.TID 0000.0001) %MON RAW_mean                     =   2.5000000000000E+07
(PID.TID 0000.0001) %MON RAW_sd                       =   0.0000000000000E+00
(PID.TID 0000.0001) %MON RAS_max                      =   2.5000000000000E+07
(PID.TID 0000.0001) %MON RAS_min                      =   2.5000000000000E+07
(PID.TID 0000.0001) %MON RAS_mean                     =   2.5000000000000E+07
(PID.TID 0000.0001) %MON RAS_sd                       =   0.0000000000000E+00
(PID.TID 0000.0001) %MON RAZ_max                      =   2.5000000000000E+07
(PID.TID 0000.0001) %MON RAZ_min                      =   2.5000000000000E+07
(PID.TID 0000.0001) %MON RAZ_mean                     =   2.5000000000000E+07
(PID.TID 0000.0001) %MON RAZ_sd                       =   0.0000000000000E+00
(PID.TID 0000.0001) %MON AngleCS_max                  =   1.0000000000000E+00
(PID.TID 0000.0001) %MON AngleCS_min                  =   1.0000000000000E+00
(PID.TID 0000.0001) %MON AngleCS_mean                 =   1.0000000000000E+00
(PID.TID 0000.0001) %MON AngleCS_sd                   =   0.0000000000000E+00
(PID.TID 0000.0001) %MON AngleSN_max                  =   0.0000000000000E+00
(PID.TID 0000.0001) %MON AngleSN_min                  =   0.0000000000000E+00
(PID.TID 0000.0001) %MON AngleSN_mean                 =   0.0000000000000E+00
(PID.TID 0000.0001) %MON AngleSN_sd                   =   0.0000000000000E+00
(PID.TID 0000.0001) 
(PID.TID 0000.0001) // =======================================================
(PID.TID 0000.0001) // Calendar configuration >>> START <<<
(PID.TID 0000.0001) // =======================================================
(PID.TID 0000.0001) 
(PID.TID 0000.0001) modelstart = /* Start time of the model integration [s] */
(PID.TID 0000.0001)                 0.000000000000000E+00
(PID.TID 0000.0001)     ;
(PID.TID 0000.0001) modelend  = /* End time of the model integration [s] */
(PID.TID 0000.0001)                 3.600000000000000E+04
(PID.TID 0000.0001)     ;
(PID.TID 0000.0001) modelStep = /* Time interval for a model forward step [s] */
(PID.TID 0000.0001)                 3.600000000000000E+03
(PID.TID 0000.0001)     ;
(PID.TID 0000.0001) usingGregorianCalendar= /* Calendar Type: Gregorian Calendar */
(PID.TID 0000.0001)                   T
(PID.TID 0000.0001)     ;
(PID.TID 0000.0001) usingJulianCalendar = /* Calendar Type: Julian Calendar */
(PID.TID 0000.0001)                   F
(PID.TID 0000.0001)     ;
(PID.TID 0000.0001) usingNoLeapYearCal  = /* Calendar Type: without Leap Year */
(PID.TID 0000.0001)                   F
(PID.TID 0000.0001)     ;
(PID.TID 0000.0001) usingModelCalendar  = /* Calendar Type: Model Calendar */
(PID.TID 0000.0001)                   F
(PID.TID 0000.0001)     ;
(PID.TID 0000.0001) modelStartDate YYYYMMDD = /* Model start date YYYY-MM-DD */
(PID.TID 0000.0001)                19790101
(PID.TID 0000.0001)     ;
(PID.TID 0000.0001)   modelStartDate HHMMSS = /* Model start date HH-MM-SS  */
(PID.TID 0000.0001)                       0
(PID.TID 0000.0001)     ;
(PID.TID 0000.0001) modelEndDate   YYYYMMDD = /* Model end date YYYY-MM-DD */
(PID.TID 0000.0001)                19790101
(PID.TID 0000.0001)     ;
(PID.TID 0000.0001)   modelEndDate   HHMMSS = /* Model end date HH-MM-SS  */
(PID.TID 0000.0001)                  100000
(PID.TID 0000.0001)     ;
(PID.TID 0000.0001) intyears = /* Number of calendar years affected by the integration */
(PID.TID 0000.0001)                       1
(PID.TID 0000.0001)     ;
(PID.TID 0000.0001) intmonths= /* Number of calendar months affected by the integration */
(PID.TID 0000.0001)                       1
(PID.TID 0000.0001)     ;
(PID.TID 0000.0001) intdays = /* Number of calendar days affected by the integration */
(PID.TID 0000.0001)                       1
(PID.TID 0000.0001)     ;
(PID.TID 0000.0001) modelIter0 = /* Base timestep number  */
(PID.TID 0000.0001)                       0
(PID.TID 0000.0001)     ;
(PID.TID 0000.0001) modelIterEnd = /* Final timestep number  */
(PID.TID 0000.0001)                      10
(PID.TID 0000.0001)     ;
(PID.TID 0000.0001) modelIntSteps= /* Number of model timesteps  */
(PID.TID 0000.0001)                      10
(PID.TID 0000.0001)     ;
(PID.TID 0000.0001) 
(PID.TID 0000.0001) // =======================================================
(PID.TID 0000.0001) // Calendar configuration  >>> END <<<
(PID.TID 0000.0001) // =======================================================
(PID.TID 0000.0001) 
(PID.TID 0000.0001) GAD_INIT_FIXED: GAD_OlMinSize=  2  0  1
(PID.TID 0000.0001) 
(PID.TID 0000.0001) // ===================================
(PID.TID 0000.0001) // GAD parameters :
(PID.TID 0000.0001) // ===================================
(PID.TID 0000.0001) tempAdvScheme =   /* Temp. Horiz.Advection scheme selector */
(PID.TID 0000.0001)                      30
(PID.TID 0000.0001)     ;
(PID.TID 0000.0001) tempVertAdvScheme =   /* Temp. Vert. Advection scheme selector */
(PID.TID 0000.0001)                      30
(PID.TID 0000.0001)     ;
(PID.TID 0000.0001) tempMultiDimAdvec =   /* use Muti-Dim Advec method for Temp */
(PID.TID 0000.0001)                   F
(PID.TID 0000.0001)     ;
(PID.TID 0000.0001) tempSOM_Advection = /* use 2nd Order Moment Advection for Temp */
(PID.TID 0000.0001)                   F
(PID.TID 0000.0001)     ;
(PID.TID 0000.0001) AdamsBashforthGt = /* apply Adams-Bashforth extrapolation on Gt */
(PID.TID 0000.0001)                   F
(PID.TID 0000.0001)     ;
(PID.TID 0000.0001) AdamsBashforth_T = /* apply Adams-Bashforth extrapolation on Temp */
(PID.TID 0000.0001)                   F
(PID.TID 0000.0001)     ;
(PID.TID 0000.0001) saltAdvScheme =   /* Salt. Horiz.advection scheme selector */
(PID.TID 0000.0001)                      30
(PID.TID 0000.0001)     ;
(PID.TID 0000.0001) saltVertAdvScheme =   /* Salt. Vert. Advection scheme selector */
(PID.TID 0000.0001)                      30
(PID.TID 0000.0001)     ;
(PID.TID 0000.0001) saltMultiDimAdvec =   /* use Muti-Dim Advec method for Salt */
(PID.TID 0000.0001)                   F
(PID.TID 0000.0001)     ;
(PID.TID 0000.0001) saltSOM_Advection = /* use 2nd Order Moment Advection for Salt */
(PID.TID 0000.0001)                   F
(PID.TID 0000.0001)     ;
(PID.TID 0000.0001) AdamsBashforthGs = /* apply Adams-Bashforth extrapolation on Gs */
(PID.TID 0000.0001)                   F
(PID.TID 0000.0001)     ;
(PID.TID 0000.0001) AdamsBashforth_S = /* apply Adams-Bashforth extrapolation on Salt */
(PID.TID 0000.0001)                   F
(PID.TID 0000.0001)     ;
(PID.TID 0000.0001) // ===================================
(PID.TID 0000.0001) 
(PID.TID 0000.0001) // =======================================================
(PID.TID 0000.0001) // External forcing (EXF) configuration >>> START <<<
(PID.TID 0000.0001) // =======================================================
(PID.TID 0000.0001) 
(PID.TID 0000.0001)  EXF general parameters:
(PID.TID 0000.0001) 
(PID.TID 0000.0001) exf_iprec = /* exf file precision */
(PID.TID 0000.0001)                      32
(PID.TID 0000.0001)     ;
(PID.TID 0000.0001) useExfYearlyFields = /* add extension _YEAR to input file names */
(PID.TID 0000.0001)                   F
(PID.TID 0000.0001)     ;
(PID.TID 0000.0001) twoDigitYear = /* use 2-digit year extension */
(PID.TID 0000.0001)                   F
(PID.TID 0000.0001)     ;
(PID.TID 0000.0001) useExfCheckRange = /* check for fields range */
(PID.TID 0000.0001)                   T
(PID.TID 0000.0001)     ;
(PID.TID 0000.0001) diags_opOceWeighted = /* weight flux diags by open-ocean fraction */
(PID.TID 0000.0001)                   T
(PID.TID 0000.0001)     ;
(PID.TID 0000.0001) exf_debugLev = /* select EXF-debug printing level */
(PID.TID 0000.0001)                       1
(PID.TID 0000.0001)     ;
(PID.TID 0000.0001) exf_monFreq  = /* EXF monitor frequency [ s ] */
(PID.TID 0000.0001)                 1.000000000000000E+00
(PID.TID 0000.0001)     ;
(PID.TID 0000.0001) exf_adjMonSelect = /* select group of exf AD-variables to monitor */
(PID.TID 0000.0001)                       1
(PID.TID 0000.0001)     ;
(PID.TID 0000.0001) repeatPeriod = /* period for cycling forcing dataset [ s ] */
(PID.TID 0000.0001)                 3.162240000000000E+07
(PID.TID 0000.0001)     ;
(PID.TID 0000.0001) climTempFreeze= /* Minimum climatological temperature [deg.C] */
(PID.TID 0000.0001)                -1.900000000000000E+00
(PID.TID 0000.0001)     ;
(PID.TID 0000.0001) windStressMax = /* Maximum absolute windstress [ Pa ] */
(PID.TID 0000.0001)                 2.000000000000000E+00
(PID.TID 0000.0001)     ;
(PID.TID 0000.0001) stressIsOnCgrid = /* set u,v_stress on Arakawa C-grid */
(PID.TID 0000.0001)                   F
(PID.TID 0000.0001)     ;
(PID.TID 0000.0001) rotateStressOnAgrid = /* rotate u,v_stress on Arakawa A-grid */
(PID.TID 0000.0001)                   F
(PID.TID 0000.0001)     ;
(PID.TID 0000.0001) cen2kel = /* conversion of deg. Centigrade to Kelvin [K] */
(PID.TID 0000.0001)                 2.731500000000000E+02
(PID.TID 0000.0001)     ;
(PID.TID 0000.0001) gravity_mks= /* gravitational acceleration [m/s^2] */
(PID.TID 0000.0001)                 9.810000000000000E+00
(PID.TID 0000.0001)     ;
(PID.TID 0000.0001) atmrho =  /* mean atmospheric density [kg/m^3] */
(PID.TID 0000.0001)                 1.200000000000000E+00
(PID.TID 0000.0001)     ;
(PID.TID 0000.0001) atmcp =  /* mean atmospheric specific heat [J/kg/K] */
(PID.TID 0000.0001)                 1.005000000000000E+03
(PID.TID 0000.0001)     ;
(PID.TID 0000.0001) flamb =  /* latent heat of evaporation [J/kg] */
(PID.TID 0000.0001)                 2.500000000000000E+06
(PID.TID 0000.0001)     ;
(PID.TID 0000.0001) flami =  /* latent heat of pure-ice melting [J/kg] */
(PID.TID 0000.0001)                 3.340000000000000E+05
(PID.TID 0000.0001)     ;
(PID.TID 0000.0001) cvapor_fac = /* const. for Saturation calculation [?] */
(PID.TID 0000.0001)                 6.403800000000000E+05
(PID.TID 0000.0001)     ;
(PID.TID 0000.0001) cvapor_exp = /* const. for Saturation calculation [?] */
(PID.TID 0000.0001)                 5.107400000000000E+03
(PID.TID 0000.0001)     ;
(PID.TID 0000.0001) cvapor_fac_ice= /* const. for Saturation calculation [?] */
(PID.TID 0000.0001)                 1.163780000000000E+07
(PID.TID 0000.0001)     ;
(PID.TID 0000.0001) cvapor_exp_ice= /* const. for Saturation calculation [?] */
(PID.TID 0000.0001)                 5.897800000000000E+03
(PID.TID 0000.0001)     ;
(PID.TID 0000.0001) humid_fac = /* humidity coef. in virtual temp. [(kg/kg)^-1] */
(PID.TID 0000.0001)                 6.060000000000000E-01
(PID.TID 0000.0001)     ;
(PID.TID 0000.0001) gamma_blk = /* adiabatic lapse rate [?] */
(PID.TID 0000.0001)                 1.000000000000000E-02
(PID.TID 0000.0001)     ;
(PID.TID 0000.0001) saltsat = /* reduction of Qsat over salty water [-] */
(PID.TID 0000.0001)                 9.800000000000000E-01
(PID.TID 0000.0001)     ;
(PID.TID 0000.0001) noNegativeEvap = /* prevent negative Evaporation */
(PID.TID 0000.0001)                   F
(PID.TID 0000.0001)     ;
(PID.TID 0000.0001) sstExtrapol = /* extrapolation coeff from lev. 1 & 2 to surf [-] */
(PID.TID 0000.0001)                 0.000000000000000E+00
(PID.TID 0000.0001)     ;
(PID.TID 0000.0001) cDrag_1 = /* coef used in drag calculation [m/s] */
(PID.TID 0000.0001)                 2.700000000000000E-03
(PID.TID 0000.0001)     ;
(PID.TID 0000.0001) cDrag_2 = /* coef used in drag calculation [-] */
(PID.TID 0000.0001)                 1.420000000000000E-04
(PID.TID 0000.0001)     ;
(PID.TID 0000.0001) cDrag_3 = /* coef used in drag calculation [s/m] */
(PID.TID 0000.0001)                 7.640000000000000E-05
(PID.TID 0000.0001)     ;
(PID.TID 0000.0001) cDrag_8 = /* coef used in drag calculation [(s/m)^6] */
(PID.TID 0000.0001)                 0.000000000000000E+00
(PID.TID 0000.0001)     ;
(PID.TID 0000.0001) cDragMax = /* maximum drag (Large and Yeager, 2009) [-] */
(PID.TID 0000.0001)                 2.340000000000000E-03
(PID.TID 0000.0001)     ;
(PID.TID 0000.0001) umax = /* at maximum wind (Large and Yeager, 2009) [m/s] */
(PID.TID 0000.0001)                 1.000000000000000E+03
(PID.TID 0000.0001)     ;
(PID.TID 0000.0001) cStanton_1 = /* coef used in Stanton number calculation [-] */
(PID.TID 0000.0001)                 3.270000000000000E-02
(PID.TID 0000.0001)     ;
(PID.TID 0000.0001) cStanton_2 = /* coef used in Stanton number calculation [-] */
(PID.TID 0000.0001)                 1.800000000000000E-02
(PID.TID 0000.0001)     ;
(PID.TID 0000.0001) cDalton = /* Dalton number [-] */
(PID.TID 0000.0001)                 3.460000000000000E-02
(PID.TID 0000.0001)     ;
(PID.TID 0000.0001) exf_scal_BulkCdn= /* Drag coefficient scaling factor [-] */
(PID.TID 0000.0001)                 1.000000000000000E+00
(PID.TID 0000.0001)     ;
(PID.TID 0000.0001) zolmin = /* minimum stability parameter [?] */
(PID.TID 0000.0001)                -1.000000000000000E+02
(PID.TID 0000.0001)     ;
(PID.TID 0000.0001) psim_fac = /* coef used in turbulent fluxes calculation [-] */
(PID.TID 0000.0001)                 5.000000000000000E+00
(PID.TID 0000.0001)     ;
(PID.TID 0000.0001) zref =  /* reference height [ m ] */
(PID.TID 0000.0001)                 1.000000000000000E+01
(PID.TID 0000.0001)     ;
(PID.TID 0000.0001) hu =  /* height of mean wind [ m ] */
(PID.TID 0000.0001)                 1.000000000000000E+01
(PID.TID 0000.0001)     ;
(PID.TID 0000.0001) ht =  /* height of mean temperature [ m ] */
(PID.TID 0000.0001)                 2.000000000000000E+00
(PID.TID 0000.0001)     ;
(PID.TID 0000.0001) hq =  /* height of mean spec.humidity [ m ] */
(PID.TID 0000.0001)                 2.000000000000000E+00
(PID.TID 0000.0001)     ;
(PID.TID 0000.0001) uMin = /* minimum wind speed [m/s] */
(PID.TID 0000.0001)                 5.000000000000000E-01
(PID.TID 0000.0001)     ;
(PID.TID 0000.0001) useStabilityFct_overIce= /* transfert Coeffs over sea-ice depend on stability */
(PID.TID 0000.0001)                   F
(PID.TID 0000.0001)     ;
(PID.TID 0000.0001) exf_iceCd = /* drag coefficient over sea-ice (fixed) [-] */
(PID.TID 0000.0001)                 1.630000000000000E-03
(PID.TID 0000.0001)     ;
(PID.TID 0000.0001) exf_iceCe = /* transfert coeff. over sea-ice, for Evap (fixed) [-] */
(PID.TID 0000.0001)                 1.630000000000000E-03
(PID.TID 0000.0001)     ;
(PID.TID 0000.0001) exf_iceCh = /* transfert coeff. over sea-ice, Sens.Heat.(fixed)[-] */
(PID.TID 0000.0001)                 1.630000000000000E-03
(PID.TID 0000.0001)     ;
(PID.TID 0000.0001) exf_albedo =  /* Sea-water albedo [-] */
(PID.TID 0000.0001)                 1.000000000000000E-01
(PID.TID 0000.0001)     ;
(PID.TID 0000.0001) useExfZenAlbedo = /* Sea-water albedo varies with zenith angle */
(PID.TID 0000.0001)                   F
(PID.TID 0000.0001)     ;
(PID.TID 0000.0001) select_ZenAlbedo = /* Sea-water albedo computation method */
(PID.TID 0000.0001)                       0
(PID.TID 0000.0001)     ;
(PID.TID 0000.0001) useExfZenIncoming = /* compute incoming solar radiation */
(PID.TID 0000.0001)                   F
(PID.TID 0000.0001)     ;
(PID.TID 0000.0001) ocean_emissivity = /* longwave ocean-surface emissivity [-] */
(PID.TID 0000.0001)                 9.700176366843034E-01
(PID.TID 0000.0001)     ;
(PID.TID 0000.0001) ice_emissivity = /* longwave seaice emissivity [-] */
(PID.TID 0000.0001)                 9.500000000000000E-01
(PID.TID 0000.0001)     ;
(PID.TID 0000.0001) snow_emissivity = /* longwave snow  emissivity [-] */
(PID.TID 0000.0001)                 9.500000000000000E-01
(PID.TID 0000.0001)     ;
(PID.TID 0000.0001) 
(PID.TID 0000.0001)  EXF main CPP flags:
(PID.TID 0000.0001) 
(PID.TID 0000.0001) // USE_EXF_INTERPOLATION:          NOT defined
(PID.TID 0000.0001) // ALLOW_ATM_TEMP:                     defined
(PID.TID 0000.0001) // ALLOW_ATM_WIND (useAtmWind):        defined
(PID.TID 0000.0001) // ALLOW_DOWNWARD_RADIATION:           defined
(PID.TID 0000.0001) // ALLOW_BULKFORMULAE:                 defined
(PID.TID 0000.0001) 
(PID.TID 0000.0001)    Zonal wind forcing starts at                   -1317600.
(PID.TID 0000.0001)    Zonal wind forcing period is                    2635200.
(PID.TID 0000.0001)    Zonal wind forcing repeat-cycle is             31622400.
(PID.TID 0000.0001)    Zonal wind forcing is read from file:
(PID.TID 0000.0001)    >> u_1ms_1x1_one_year <<
(PID.TID 0000.0001) 
(PID.TID 0000.0001)    Meridional wind forcing starts at              -1317600.
(PID.TID 0000.0001)    Meridional wind forcing period is               2635200.
(PID.TID 0000.0001)    Meridional wind forcing repeat-cycle is        31622400.
(PID.TID 0000.0001)    Meridional wind forcing is read from file:
(PID.TID 0000.0001)    >> u_1ms_1x1_one_year <<
(PID.TID 0000.0001) 
(PID.TID 0000.0001)    Atmospheric temperature starts at              -1317600.
(PID.TID 0000.0001)    Atmospheric temperature period is                 86400.
(PID.TID 0000.0001)    Atmospheric temperature repeat-cycle is        31622400.
(PID.TID 0000.0001)    Atmospheric temperature is read from file:
(PID.TID 0000.0001)    >> atemp_1x1_one_year <<
(PID.TID 0000.0001) 
(PID.TID 0000.0001) // ALLOW_READ_TURBFLUXES:          NOT defined
(PID.TID 0000.0001) // EXF_READ_EVAP:                  NOT defined
(PID.TID 0000.0001) // ALLOW_RUNOFF:                       defined
(PID.TID 0000.0001) // ALLOW_RUNOFTEMP:                NOT defined
(PID.TID 0000.0001) // ALLOW_SALTFLX:                      defined
(PID.TID 0000.0001) 
(PID.TID 0000.0001)    Downward shortwave flux starts at              -1317600.
(PID.TID 0000.0001)    Downward shortwave flux period is                 86400.
(PID.TID 0000.0001)    Downward shortwave flux repeat-cycle is        31622400.
(PID.TID 0000.0001)    Downward shortwave flux is read from file:
(PID.TID 0000.0001)    >> dswrf_1x1_one_year <<
(PID.TID 0000.0001) 
(PID.TID 0000.0001)    Downward longwave flux starts at               -1317600.
(PID.TID 0000.0001)    Downward longwave flux period is                  86400.
(PID.TID 0000.0001)    Downward longwave flux repeat-cycle is         31622400.
(PID.TID 0000.0001)    Downward longwave flux is read from file:
(PID.TID 0000.0001)    >> dlwrf_1x1_one_year <<
(PID.TID 0000.0001) 
(PID.TID 0000.0001) // =======================================================
(PID.TID 0000.0001) // External forcing (EXF) climatology configuration :
(PID.TID 0000.0001) // =======================================================
(PID.TID 0000.0001) 
(PID.TID 0000.0001) // ALLOW_CLIMSST_RELAXATION:           defined
(PID.TID 0000.0001)    climsst relaxation is NOT used
(PID.TID 0000.0001) 
(PID.TID 0000.0001) // ALLOW_CLIMSSS_RELAXATION:           defined
(PID.TID 0000.0001)    climsss relaxation is NOT used
(PID.TID 0000.0001) 
(PID.TID 0000.0001) // =======================================================
(PID.TID 0000.0001) // External forcing (EXF) configuration  >>> END <<<
(PID.TID 0000.0001) // =======================================================
(PID.TID 0000.0001) 
(PID.TID 0000.0001) // =======================================================
(PID.TID 0000.0001) // Seaice configuration (SEAICE_PARM01) >>> START <<<
(PID.TID 0000.0001) // =======================================================
(PID.TID 0000.0001) 
(PID.TID 0000.0001)    Seaice time stepping configuration   > START <
(PID.TID 0000.0001)    ----------------------------------------------
(PID.TID 0000.0001) SEAICE_deltaTtherm= /* thermodynamic timestep */
(PID.TID 0000.0001)                 3.600000000000000E+03
(PID.TID 0000.0001)     ;
(PID.TID 0000.0001) SEAICE_deltaTdyn  = /* dynamic timestep */
(PID.TID 0000.0001)                 3.600000000000000E+03
(PID.TID 0000.0001)     ;
(PID.TID 0000.0001) SEAICEuseBDF2  = /* use backw. differencing for mom. eq. */
(PID.TID 0000.0001)                   F
(PID.TID 0000.0001)     ;
(PID.TID 0000.0001) SEAICEupdateOceanStress= /* update Ocean surf. stress */
(PID.TID 0000.0001)                   T
(PID.TID 0000.0001)     ;
(PID.TID 0000.0001) SEAICErestoreUnderIce  = /* restore T and S under ice */
(PID.TID 0000.0001)                   F
(PID.TID 0000.0001)     ;
(PID.TID 0000.0001) 
(PID.TID 0000.0001)    Seaice dynamics configuration   > START <
(PID.TID 0000.0001)    ------------------------------------------
(PID.TID 0000.0001) SEAICEuseDYNAMICS = /* use dynamics */
(PID.TID 0000.0001)                   F
(PID.TID 0000.0001)     ;
(PID.TID 0000.0001)    pkg/seaice dynamics is OFF
(PID.TID 0000.0001) 
(PID.TID 0000.0001)    Seaice advection diffusion config,   > START <
(PID.TID 0000.0001)    -----------------------------------------------
(PID.TID 0000.0001) SEAICEmomAdvection = /* advect sea ice momentum */
(PID.TID 0000.0001)                   F
(PID.TID 0000.0001)     ;
(PID.TID 0000.0001) SEAICEadvHeff = /* advect effective ice thickness */
(PID.TID 0000.0001)                   T
(PID.TID 0000.0001)     ;
(PID.TID 0000.0001) SEAICEadvArea = /* advect fractional ice area */
(PID.TID 0000.0001)                   T
(PID.TID 0000.0001)     ;
(PID.TID 0000.0001) SEAICEadvSnow = /* advect snow layer together with ice */
(PID.TID 0000.0001)                   T
(PID.TID 0000.0001)     ;
(PID.TID 0000.0001) SEAICEadvSalt = /* advect salinity together with ice */
(PID.TID 0000.0001)                   F
(PID.TID 0000.0001)     ;
(PID.TID 0000.0001) SEAICEmultiDimAdvection = /* multidimadvec */
(PID.TID 0000.0001)                   F
(PID.TID 0000.0001)     ;
(PID.TID 0000.0001) SEAICEadvScheme   = /* advection scheme for ice */
(PID.TID 0000.0001)                       2
(PID.TID 0000.0001)     ;
(PID.TID 0000.0001) SEAICEuseFluxForm = /* advection in FV flux form */
(PID.TID 0000.0001)                   T
(PID.TID 0000.0001)     ;
(PID.TID 0000.0001) SEAICEadvSchArea  = /* advection scheme for area */
(PID.TID 0000.0001)                       2
(PID.TID 0000.0001)     ;
(PID.TID 0000.0001) SEAICEadvSchHeff  = /* advection scheme for thickness */
(PID.TID 0000.0001)                       2
(PID.TID 0000.0001)     ;
(PID.TID 0000.0001) SEAICEadvSchSnow  = /* advection scheme for snow */
(PID.TID 0000.0001)                       2
(PID.TID 0000.0001)     ;
(PID.TID 0000.0001) SEAICEdiffKhArea  = /* diffusivity (m^2/s) for area */
(PID.TID 0000.0001)                 0.000000000000000E+00
(PID.TID 0000.0001)     ;
(PID.TID 0000.0001) SEAICEdiffKhHeff  = /* diffusivity (m^2/s) for heff */
(PID.TID 0000.0001)                 0.000000000000000E+00
(PID.TID 0000.0001)     ;
(PID.TID 0000.0001) SEAICEdiffKhSnow  = /* diffusivity (m^2/s) for snow */
(PID.TID 0000.0001)                 0.000000000000000E+00
(PID.TID 0000.0001)     ;
(PID.TID 0000.0001) DIFF1             = /* parameter used in advect.F [m/s] */
(PID.TID 0000.0001)                 0.000000000000000E+00
(PID.TID 0000.0001)     ;
(PID.TID 0000.0001) 
(PID.TID 0000.0001)    Seaice thermodynamics configuration   > START <
(PID.TID 0000.0001)    -----------------------------------------------
(PID.TID 0000.0001) SEAICE_rhoIce     = /* density of sea ice (kg/m3) */
(PID.TID 0000.0001)                 9.100000000000000E+02
(PID.TID 0000.0001)     ;
(PID.TID 0000.0001) SEAICE_rhoSnow    = /* density of snow (kg/m3) */
(PID.TID 0000.0001)                 3.300000000000000E+02
(PID.TID 0000.0001)     ;
(PID.TID 0000.0001) SEAICE_rhoAir     = /* density of air (kg/m3) */
(PID.TID 0000.0001)                 1.200000000000000E+00
(PID.TID 0000.0001)     ;
(PID.TID 0000.0001) usePW79thermodynamics  = /* default 0-layer TD */
(PID.TID 0000.0001)                   T
(PID.TID 0000.0001)     ;
(PID.TID 0000.0001) SEAICE_lhEvap     = /* latent heat of evaporation */
(PID.TID 0000.0001)                 2.500000000000000E+06
(PID.TID 0000.0001)     ;
(PID.TID 0000.0001) SEAICE_lhFusion   = /* latent heat of fusion */
(PID.TID 0000.0001)                 3.340000000000000E+05
(PID.TID 0000.0001)     ;
(PID.TID 0000.0001) SEAICE_mcPheePiston = /* turbulent flux "piston velocity" a la McPhee (m/s) */
(PID.TID 0000.0001)                 8.749999999999999E-04
(PID.TID 0000.0001)     ;
(PID.TID 0000.0001) SEAICE_mcPheeTaper = /* tapering of turbulent flux (0.< <1.) for AREA=1. */
(PID.TID 0000.0001)                 9.200000000000000E-01
(PID.TID 0000.0001)     ;
(PID.TID 0000.0001) SEAICE_mcPheeStepFunc = /* replace linear tapering with step funct. */
(PID.TID 0000.0001)                   F
(PID.TID 0000.0001)     ;
(PID.TID 0000.0001) SEAICE_frazilFrac = /* frazil (T<tempFrz) to seaice conversion rate (0.< <1.) */
(PID.TID 0000.0001)                 0.000000000000000E+00
(PID.TID 0000.0001)     ;
(PID.TID 0000.0001) SEAICE_tempFrz0   = /* freezing temp. of sea water (intercept) */
(PID.TID 0000.0001)                -1.960000000000000E+00
(PID.TID 0000.0001)     ;
(PID.TID 0000.0001) SEAICE_dTempFrz_dS= /* freezing temp. of sea water (slope) */
(PID.TID 0000.0001)                 0.000000000000000E+00
(PID.TID 0000.0001)     ;
(PID.TID 0000.0001) SEAICE_growMeltByConv  = /* grow,melt by vert. conv. */
(PID.TID 0000.0001)                   F
(PID.TID 0000.0001)     ;
(PID.TID 0000.0001) SEAICE_doOpenWaterGrowth = /* grow by open water */
(PID.TID 0000.0001)                   T
(PID.TID 0000.0001)     ;
(PID.TID 0000.0001) SEAICE_doOpenWaterMelt = /* melt by open water */
(PID.TID 0000.0001)                   F
(PID.TID 0000.0001)     ;
(PID.TID 0000.0001) SEAICE_areaGainFormula = /* ice cover gain formula (1,2)*/
(PID.TID 0000.0001)                       1
(PID.TID 0000.0001)     1=from growth by ATM
(PID.TID 0000.0001)     2=from predicted growth by ATM
(PID.TID 0000.0001)     ;
(PID.TID 0000.0001) SEAICE_areaLossFormula = /* ice cover loss formula (1,2)*/
(PID.TID 0000.0001)                       1
(PID.TID 0000.0001)     1=from all but only melt conributions by ATM and OCN
(PID.TID 0000.0001)     2=from net melt-grow>0 by ATM and OCN
(PID.TID 0000.0001)     3=from predicted melt by ATM
(PID.TID 0000.0001)     ;
(PID.TID 0000.0001) HO                = /* nominal thickness of new ice */
(PID.TID 0000.0001)                 5.000000000000000E-01
(PID.TID 0000.0001)     ;
(PID.TID 0000.0001) HO_south               = /* Southern Ocean HO */
(PID.TID 0000.0001)                 5.000000000000000E-01
(PID.TID 0000.0001)     ;
(PID.TID 0000.0001) SEAICE_area_max        = /* set to les than 1. to mimic open leads */
(PID.TID 0000.0001)                 1.000000000000000E+00
(PID.TID 0000.0001)     ;
(PID.TID 0000.0001)    Sea ice has a variable salinity such that
(PID.TID 0000.0001) SEAICE_saltFrac = /* fraction of ocn salinity in new ice */
(PID.TID 0000.0001)                 3.000000000000000E-01
(PID.TID 0000.0001)     ;
(PID.TID 0000.0001) SEAICE_salinityTracer = /* test SITR varia. salinity */
(PID.TID 0000.0001)                   F
(PID.TID 0000.0001)     ;
(PID.TID 0000.0001) SEAICEuseFlooding = /* turn submerged snow into ice */
(PID.TID 0000.0001)                   T
(PID.TID 0000.0001)     ;
(PID.TID 0000.0001) 
(PID.TID 0000.0001)    Seaice air-sea fluxes configuration,   > START <
(PID.TID 0000.0001)    -----------------------------------------------
(PID.TID 0000.0001) SEAICEheatConsFix  = /* accound for ocn<->seaice advect. heat flux */
(PID.TID 0000.0001)                   F
(PID.TID 0000.0001)     ;
(PID.TID 0000.0001) SEAICE_multDim    = /* number of ice categories (1 or 7) */
(PID.TID 0000.0001)                       1
(PID.TID 0000.0001)     ;
(PID.TID 0000.0001) SEAICE_PDF        = /* sea-ice distribution (-) */
(PID.TID 0000.0001)                 1.000000000000000E+00,      /* K =  1 */
(PID.TID 0000.0001)     6 @  0.000000000000000E+00              /* K =  2:  7 */
(PID.TID 0000.0001)     ;
(PID.TID 0000.0001) IMAX_TICE         = /* iterations for ice surface temp */
(PID.TID 0000.0001)                       6
(PID.TID 0000.0001)     ;
(PID.TID 0000.0001) postSolvTempIter= /* flux calculation after surf. temp iter */
(PID.TID 0000.0001)                       2
(PID.TID 0000.0001)     ;
(PID.TID 0000.0001) SEAICE_dryIceAlb  = /* winter albedo */
(PID.TID 0000.0001)                 7.500000000000000E-01
(PID.TID 0000.0001)     ;
(PID.TID 0000.0001) SEAICE_wetIceAlb  = /* summer albedo */
(PID.TID 0000.0001)                 6.600000000000000E-01
(PID.TID 0000.0001)     ;
(PID.TID 0000.0001) SEAICE_drySnowAlb = /* dry snow albedo */
(PID.TID 0000.0001)                 8.400000000000000E-01
(PID.TID 0000.0001)     ;
(PID.TID 0000.0001) SEAICE_wetSnowAlb = /* wet snow albedo */
(PID.TID 0000.0001)                 7.000000000000000E-01
(PID.TID 0000.0001)     ;
(PID.TID 0000.0001) SEAICE_dryIceAlb_south = /* Southern Ocean dryIceAlb */
(PID.TID 0000.0001)                 7.500000000000000E-01
(PID.TID 0000.0001)     ;
(PID.TID 0000.0001) SEAICE_wetIceAlb_south = /* Southern Ocean wetIceAlb */
(PID.TID 0000.0001)                 6.600000000000000E-01
(PID.TID 0000.0001)     ;
(PID.TID 0000.0001) SEAICE_drySnowAlb_south= /* Southern Ocean drySnowAlb */
(PID.TID 0000.0001)                 8.400000000000000E-01
(PID.TID 0000.0001)     ;
(PID.TID 0000.0001) SEAICE_wetSnowAlb_south= /* Southern Ocean wetSnowAlb */
(PID.TID 0000.0001)                 7.000000000000000E-01
(PID.TID 0000.0001)     ;
(PID.TID 0000.0001) SEAICE_wetAlbTemp= /* Temp (o.C) threshold for wet-albedo */
(PID.TID 0000.0001)                 0.000000000000000E+00
(PID.TID 0000.0001)     ;
(PID.TID 0000.0001) SEAICE_snow_emiss = /* snow emissivity */
(PID.TID 0000.0001)                 9.700176366843034E-01
(PID.TID 0000.0001)     ;
(PID.TID 0000.0001) SEAICE_ice_emiss = /* seaice emissivity */
(PID.TID 0000.0001)                 9.700176366843034E-01
(PID.TID 0000.0001)     ;
(PID.TID 0000.0001) SEAICE_cpAir      = /* heat capacity of air */
(PID.TID 0000.0001)                 1.005000000000000E+03
(PID.TID 0000.0001)     ;
(PID.TID 0000.0001) SEAICE_dalton     = /* constant dalton number */
(PID.TID 0000.0001)                 1.750000000000000E-03
(PID.TID 0000.0001)     ;
(PID.TID 0000.0001) SEAICE_iceConduct = /* sea-ice conductivity */
(PID.TID 0000.0001)                 2.165600000000000E+00
(PID.TID 0000.0001)     ;
(PID.TID 0000.0001) SEAICE_snowConduct= /* snow conductivity */
(PID.TID 0000.0001)                 3.100000000000000E-01
(PID.TID 0000.0001)     ;
(PID.TID 0000.0001) SEAICE_snowThick  = /* cutoff snow thickness (for albedo) */
(PID.TID 0000.0001)                 0.000000000000000E+00
(PID.TID 0000.0001)     ;
(PID.TID 0000.0001) SEAICE_shortwave  = /* penetration shortwave radiation */
(PID.TID 0000.0001)                 3.000000000000000E-01
(PID.TID 0000.0001)     ;
(PID.TID 0000.0001) useMaykutSatVapPoly = /* use Maykut Polynomial for Sat.Vap.Pr */
(PID.TID 0000.0001)                   F
(PID.TID 0000.0001)     ;
(PID.TID 0000.0001) MIN_ATEMP         = /* minimum air temperature */
(PID.TID 0000.0001)                -5.000000000000000E+01
(PID.TID 0000.0001)     ;
(PID.TID 0000.0001) MIN_LWDOWN        = /* minimum downward longwave */
(PID.TID 0000.0001)                 6.000000000000000E+01
(PID.TID 0000.0001)     ;
(PID.TID 0000.0001) MIN_TICE          = /* minimum ice temperature */
(PID.TID 0000.0001)                -5.000000000000000E+01
(PID.TID 0000.0001)     ;
(PID.TID 0000.0001) 
(PID.TID 0000.0001)    Seaice initialization and IO config.,   > START <
(PID.TID 0000.0001)    -------------------------------------------------
(PID.TID 0000.0001) SEAICE_initialHEFF= /* initial sea-ice thickness */
(PID.TID 0000.0001)                 0.000000000000000E+00
(PID.TID 0000.0001)     ;
(PID.TID 0000.0001) AreaFile = /* Initial ice concentration File */
(PID.TID 0000.0001)               ''
(PID.TID 0000.0001)     ;
(PID.TID 0000.0001) HeffFile = /* Initial effective ice thickness File */
(PID.TID 0000.0001)               ''
(PID.TID 0000.0001)     ;
(PID.TID 0000.0001) HsnowFile = /* Initial snow thickness File */
(PID.TID 0000.0001)               'snow_0m_1x1'
(PID.TID 0000.0001)     ;
(PID.TID 0000.0001) HsaltFile = /* Initial HSALT File */
(PID.TID 0000.0001)               ''
(PID.TID 0000.0001)     ;
(PID.TID 0000.0001) uIceFile = /* Initial U-ice velocity File */
(PID.TID 0000.0001)               ''
(PID.TID 0000.0001)     ;
(PID.TID 0000.0001) vIceFile = /* Initial V-ice velocity File */
(PID.TID 0000.0001)               ''
(PID.TID 0000.0001)     ;
(PID.TID 0000.0001) SEAICEwriteState  = /* write sea ice state to file */
(PID.TID 0000.0001)                   T
(PID.TID 0000.0001)     ;
(PID.TID 0000.0001) SEAICE_monFreq  = /* monitor frequency */
(PID.TID 0000.0001)                 1.000000000000000E+00
(PID.TID 0000.0001)     ;
(PID.TID 0000.0001) SEAICE_dumpFreq   = /* dump frequency */
(PID.TID 0000.0001)                 0.000000000000000E+00
(PID.TID 0000.0001)     ;
(PID.TID 0000.0001) SEAICE_taveFreq   = /* time-averaging frequency */
(PID.TID 0000.0001)                 0.000000000000000E+00
(PID.TID 0000.0001)     ;
(PID.TID 0000.0001) SEAICE_mon_stdio  = /* write monitor to std-outp */
(PID.TID 0000.0001)                   T
(PID.TID 0000.0001)     ;
(PID.TID 0000.0001) SEAICE_dump_mdsio = /* write snap-shot   using MDSIO */
(PID.TID 0000.0001)                   T
(PID.TID 0000.0001)     ;
(PID.TID 0000.0001) SEAICE_tave_mdsio = /* write TimeAverage using MDSIO */
(PID.TID 0000.0001)                   T
(PID.TID 0000.0001)     ;
(PID.TID 0000.0001) 
(PID.TID 0000.0001)    Seaice regularization numbers,   > START <
(PID.TID 0000.0001)    -----------------------------------------------
(PID.TID 0000.0001) SEAICE_deltaMin   = /* reduce singularities in Delta */
(PID.TID 0000.0001)                 1.000000000000000E-08
(PID.TID 0000.0001)     ;
(PID.TID 0000.0001) SEAICE_EPS        = /* small number */
(PID.TID 0000.0001)                 1.000000000000000E-08
(PID.TID 0000.0001)     ;
(PID.TID 0000.0001) SEAICE_EPS_SQ     = /* small number squared */
(PID.TID 0000.0001)                 1.000000000000000E-16
(PID.TID 0000.0001)     ;
(PID.TID 0000.0001) SEAICE_area_reg   = /* reduce derivative singularities */
(PID.TID 0000.0001)                 1.500000000000000E-01
(PID.TID 0000.0001)     ;
(PID.TID 0000.0001) SEAICE_hice_reg   = /* reduce derivative singularities */
(PID.TID 0000.0001)                 1.000000000000000E-01
(PID.TID 0000.0001)     ;
(PID.TID 0000.0001) SEAICE_area_floor = /* reduce derivative singularities */
(PID.TID 0000.0001)                 1.000000000000000E-05
(PID.TID 0000.0001)     ;
(PID.TID 0000.0001) 
(PID.TID 0000.0001) // =======================================================
(PID.TID 0000.0001) // Seaice configuration (SEAICE_PARM01) >>> END <<<
(PID.TID 0000.0001) // =======================================================
(PID.TID 0000.0001) 
(PID.TID 0000.0001) CTRL_INIT_FIXED: ivar=  11 = number of CTRL variables defined
(PID.TID 0000.0001) 
(PID.TID 0000.0001) ctrl-wet 1:    nvarlength =           64
(PID.TID 0000.0001) ctrl-wet 2: surface wet C =            1
(PID.TID 0000.0001) ctrl-wet 3: surface wet W =            1
(PID.TID 0000.0001) ctrl-wet 4: surface wet S =            1
(PID.TID 0000.0001) ctrl-wet 5: 3D wet points =           23
(PID.TID 0000.0001) ctrl-wet 6: no recs for ivar =     1           1
(PID.TID 0000.0001) ctrl-wet 6: no recs for ivar =     2           1
(PID.TID 0000.0001) ctrl-wet 6: no recs for ivar =     3           2
(PID.TID 0000.0001) ctrl-wet 6: no recs for ivar =     4           2
(PID.TID 0000.0001) ctrl-wet 6: no recs for ivar =     5           2
(PID.TID 0000.0001) ctrl-wet 6: no recs for ivar =     6           2
(PID.TID 0000.0001) ctrl-wet 6: no recs for ivar =     7           2
(PID.TID 0000.0001) ctrl-wet 6: no recs for ivar =     8           2
(PID.TID 0000.0001) ctrl-wet 6: no recs for ivar =     9           2
(PID.TID 0000.0001) ctrl-wet 6: no recs for ivar =    10           2
(PID.TID 0000.0001) ctrl-wet 6: no recs for ivar =    11           2
(PID.TID 0000.0001) ctrl-wet 6: no recs for ivar =    12           0
(PID.TID 0000.0001) ctrl-wet -------------------------------------------------
(PID.TID 0000.0001) ctrl-wet 13: global nvarlength for Nr =   23          64
(PID.TID 0000.0001) ctrl-wet -------------------------------------------------
(PID.TID 0000.0001) ctrl-wet 14: global nWet C/S/W k=    1           1           1           1
(PID.TID 0000.0001) ctrl-wet 14: global nWet C/S/W k=    2           1           1           1
(PID.TID 0000.0001) ctrl-wet 14: global nWet C/S/W k=    3           1           1           1
(PID.TID 0000.0001) ctrl-wet 14: global nWet C/S/W k=    4           1           1           1
(PID.TID 0000.0001) ctrl-wet 14: global nWet C/S/W k=    5           1           1           1
(PID.TID 0000.0001) ctrl-wet 14: global nWet C/S/W k=    6           1           1           1
(PID.TID 0000.0001) ctrl-wet 14: global nWet C/S/W k=    7           1           1           1
(PID.TID 0000.0001) ctrl-wet 14: global nWet C/S/W k=    8           1           1           1
(PID.TID 0000.0001) ctrl-wet 14: global nWet C/S/W k=    9           1           1           1
(PID.TID 0000.0001) ctrl-wet 14: global nWet C/S/W k=   10           1           1           1
(PID.TID 0000.0001) ctrl-wet 14: global nWet C/S/W k=   11           1           1           1
(PID.TID 0000.0001) ctrl-wet 14: global nWet C/S/W k=   12           1           1           1
(PID.TID 0000.0001) ctrl-wet 14: global nWet C/S/W k=   13           1           1           1
(PID.TID 0000.0001) ctrl-wet 14: global nWet C/S/W k=   14           1           1           1
(PID.TID 0000.0001) ctrl-wet 14: global nWet C/S/W k=   15           1           1           1
(PID.TID 0000.0001) ctrl-wet 14: global nWet C/S/W k=   16           1           1           1
(PID.TID 0000.0001) ctrl-wet 14: global nWet C/S/W k=   17           1           1           1
(PID.TID 0000.0001) ctrl-wet 14: global nWet C/S/W k=   18           1           1           1
(PID.TID 0000.0001) ctrl-wet 14: global nWet C/S/W k=   19           1           1           1
(PID.TID 0000.0001) ctrl-wet 14: global nWet C/S/W k=   20           1           1           1
(PID.TID 0000.0001) ctrl-wet 14: global nWet C/S/W k=   21           1           1           1
(PID.TID 0000.0001) ctrl-wet 14: global nWet C/S/W k=   22           1           1           1
(PID.TID 0000.0001) ctrl-wet 14: global nWet C/S/W k=   23           1           1           1
(PID.TID 0000.0001) ctrl-wet -------------------------------------------------
(PID.TID 0000.0001) ctrl_init_wet: no. of control variables:           11
(PID.TID 0000.0001) ctrl_init_wet: control vector length:              64
(PID.TID 0000.0001) 
(PID.TID 0000.0001) // =======================================================
(PID.TID 0000.0001) // control vector configuration  >>> START <<<
(PID.TID 0000.0001) // =======================================================
(PID.TID 0000.0001) 
(PID.TID 0000.0001)  Total number of ocean points per tile:
(PID.TID 0000.0001)  --------------------------------------
(PID.TID 0000.0001)  sNx*sNy*Nr =       23
(PID.TID 0000.0001) 
(PID.TID 0000.0001)  Number of ocean points per tile:
(PID.TID 0000.0001)  --------------------------------
(PID.TID 0000.0001)  bi,bj,#(c/s/w): 001 001      23      23      23
(PID.TID 0000.0001) 
(PID.TID 0000.0001)  -> 3d control, genarr3d no.  1 is in use
(PID.TID 0000.0001)       file       = xx_theta
(PID.TID 0000.0001)       ncvartype  = Arr3D
(PID.TID 0000.0001)       index      =     1  (use this for pkg/grdchk)
(PID.TID 0000.0001)       ncvarindex =     1
(PID.TID 0000.0001)       weight     = ones_64b.bin
(PID.TID 0000.0001) 
(PID.TID 0000.0001)  -> 3d control, genarr3d no.  2 is in use
(PID.TID 0000.0001)       file       = xx_salt
(PID.TID 0000.0001)       ncvartype  = Arr3D
(PID.TID 0000.0001)       index      =     2  (use this for pkg/grdchk)
(PID.TID 0000.0001)       ncvarindex =     2
(PID.TID 0000.0001)       weight     = ones_64b.bin
(PID.TID 0000.0001) 
(PID.TID 0000.0001)  -> time variable 2d control, gentim2d no.  1 is in use
(PID.TID 0000.0001)       file       = xx_atemp
(PID.TID 0000.0001)       ncvartype  = Tim2D
(PID.TID 0000.0001)       index      =     3  (use this for pkg/grdchk)
(PID.TID 0000.0001)       ncvarindex =     1
(PID.TID 0000.0001)       weight     = ones_64b.bin
(PID.TID 0000.0001)       period     =  00000010 000000
(PID.TID 0000.0001) 
(PID.TID 0000.0001)  -> time variable 2d control, gentim2d no.  2 is in use
(PID.TID 0000.0001)       file       = xx_aqh
(PID.TID 0000.0001)       ncvartype  = Tim2D
(PID.TID 0000.0001)       index      =     4  (use this for pkg/grdchk)
(PID.TID 0000.0001)       ncvarindex =     2
(PID.TID 0000.0001)       weight     = ones_64b.bin
(PID.TID 0000.0001)       period     =  00000010 000000
(PID.TID 0000.0001) 
(PID.TID 0000.0001)  -> time variable 2d control, gentim2d no.  3 is in use
(PID.TID 0000.0001)       file       = xx_precip
(PID.TID 0000.0001)       ncvartype  = Tim2D
(PID.TID 0000.0001)       index      =     5  (use this for pkg/grdchk)
(PID.TID 0000.0001)       ncvarindex =     3
(PID.TID 0000.0001)       weight     = ones_64b.bin
(PID.TID 0000.0001)       period     =  00000010 000000
(PID.TID 0000.0001) 
(PID.TID 0000.0001)  -> time variable 2d control, gentim2d no.  4 is in use
(PID.TID 0000.0001)       file       = xx_snowprecip
(PID.TID 0000.0001)       ncvartype  = Tim2D
(PID.TID 0000.0001)       index      =     6  (use this for pkg/grdchk)
(PID.TID 0000.0001)       ncvarindex =     4
(PID.TID 0000.0001)       weight     = ones_64b.bin
(PID.TID 0000.0001)       period     =  00000010 000000
(PID.TID 0000.0001) 
(PID.TID 0000.0001)  -> time variable 2d control, gentim2d no.  5 is in use
(PID.TID 0000.0001)       file       = xx_swdown
(PID.TID 0000.0001)       ncvartype  = Tim2D
(PID.TID 0000.0001)       index      =     7  (use this for pkg/grdchk)
(PID.TID 0000.0001)       ncvarindex =     5
(PID.TID 0000.0001)       weight     = ones_64b.bin
(PID.TID 0000.0001)       period     =  00000010 000000
(PID.TID 0000.0001) 
(PID.TID 0000.0001)  -> time variable 2d control, gentim2d no.  6 is in use
(PID.TID 0000.0001)       file       = xx_lwdown
(PID.TID 0000.0001)       ncvartype  = Tim2D
(PID.TID 0000.0001)       index      =     8  (use this for pkg/grdchk)
(PID.TID 0000.0001)       ncvarindex =     6
(PID.TID 0000.0001)       weight     = ones_64b.bin
(PID.TID 0000.0001)       period     =  00000010 000000
(PID.TID 0000.0001) 
(PID.TID 0000.0001)  -> time variable 2d control, gentim2d no.  7 is in use
(PID.TID 0000.0001)       file       = xx_uwind
(PID.TID 0000.0001)       ncvartype  = Tim2D
(PID.TID 0000.0001)       index      =     9  (use this for pkg/grdchk)
(PID.TID 0000.0001)       ncvarindex =     7
(PID.TID 0000.0001)       weight     = ones_64b.bin
(PID.TID 0000.0001)       period     =  00000010 000000
(PID.TID 0000.0001) 
(PID.TID 0000.0001)  -> time variable 2d control, gentim2d no.  8 is in use
(PID.TID 0000.0001)       file       = xx_vwind
(PID.TID 0000.0001)       ncvartype  = Tim2D
(PID.TID 0000.0001)       index      =    10  (use this for pkg/grdchk)
(PID.TID 0000.0001)       ncvarindex =     8
(PID.TID 0000.0001)       weight     = ones_64b.bin
(PID.TID 0000.0001)       period     =  00000010 000000
(PID.TID 0000.0001) 
(PID.TID 0000.0001)  -> time variable 2d control, gentim2d no.  9 is in use
(PID.TID 0000.0001)       file       = xx_apressure
(PID.TID 0000.0001)       ncvartype  = Tim2D
(PID.TID 0000.0001)       index      =    11  (use this for pkg/grdchk)
(PID.TID 0000.0001)       ncvarindex =     9
(PID.TID 0000.0001)       weight     = ones_64b.bin
(PID.TID 0000.0001)       period     =  00000010 000000
(PID.TID 0000.0001) 
(PID.TID 0000.0001) // =======================================================
(PID.TID 0000.0001) // control vector configuration  >>> END <<<
(PID.TID 0000.0001) // =======================================================
(PID.TID 0000.0001) 
(PID.TID 0000.0001) %MON fCori_max                    =   1.0000000000000E-04
(PID.TID 0000.0001) %MON fCori_min                    =   1.0000000000000E-04
(PID.TID 0000.0001) %MON fCori_mean                   =   1.0000000000000E-04
(PID.TID 0000.0001) %MON fCori_sd                     =   0.0000000000000E+00
(PID.TID 0000.0001) %MON fCoriG_max                   =   1.0000000000000E-04
(PID.TID 0000.0001) %MON fCoriG_min                   =   1.0000000000000E-04
(PID.TID 0000.0001) %MON fCoriG_mean                  =   1.0000000000000E-04
(PID.TID 0000.0001) %MON fCoriG_sd                    =   0.0000000000000E+00
(PID.TID 0000.0001) %MON fCoriCos_max                 =   0.0000000000000E+00
(PID.TID 0000.0001) %MON fCoriCos_min                 =   0.0000000000000E+00
(PID.TID 0000.0001) %MON fCoriCos_mean                =   0.0000000000000E+00
(PID.TID 0000.0001) %MON fCoriCos_sd                  =   0.0000000000000E+00
(PID.TID 0000.0001) INI_CG2D: CG2D normalisation factor =  1.9483302809492266E-03
(PID.TID 0000.0001) 
(PID.TID 0000.0001) // =======================================================
(PID.TID 0000.0001) // Model configuration
(PID.TID 0000.0001) // =======================================================
(PID.TID 0000.0001) //
(PID.TID 0000.0001) // "Physical" paramters ( PARM01 in namelist )
(PID.TID 0000.0001) //
(PID.TID 0000.0001) buoyancyRelation = /* Type of relation to get Buoyancy */
(PID.TID 0000.0001)               'OCEANIC'
(PID.TID 0000.0001)     ;
(PID.TID 0000.0001) fluidIsAir   =  /* fluid major constituent is Air */
(PID.TID 0000.0001)                   F
(PID.TID 0000.0001)     ;
(PID.TID 0000.0001) fluidIsWater =  /* fluid major constituent is Water */
(PID.TID 0000.0001)                   T
(PID.TID 0000.0001)     ;
(PID.TID 0000.0001) usingPCoords =  /* use p (or p*) vertical coordinate */
(PID.TID 0000.0001)                   F
(PID.TID 0000.0001)     ;
(PID.TID 0000.0001) usingZCoords =  /* use z (or z*) vertical coordinate */
(PID.TID 0000.0001)                   T
(PID.TID 0000.0001)     ;
(PID.TID 0000.0001) tRef =   /* Reference temperature profile ( oC or K ) */
(PID.TID 0000.0001)                -1.930000000000000E+00,      /* K =  1 */
(PID.TID 0000.0001)                -1.931000000000000E+00,      /* K =  2 */
(PID.TID 0000.0001)                -1.932000000000000E+00,      /* K =  3 */
(PID.TID 0000.0001)                -1.285400000000000E+00,      /* K =  4 */
(PID.TID 0000.0001)     2 @ -6.000000000000000E-01,             /* K =  5:  6 */
(PID.TID 0000.0001)                -9.000000000000000E-01,      /* K =  7 */
(PID.TID 0000.0001)     2 @ -1.200000000000000E+00,             /* K =  8:  9 */
(PID.TID 0000.0001)                -1.300000000000000E+00,      /* K = 10 */
(PID.TID 0000.0001)     2 @ -1.400000000000000E+00,             /* K = 11: 12 */
(PID.TID 0000.0001)     4 @ -1.500000000000000E+00,             /* K = 13: 16 */
(PID.TID 0000.0001)                -1.300000000000000E+00,      /* K = 17 */
(PID.TID 0000.0001)                -9.000000000000000E-01,      /* K = 18 */
(PID.TID 0000.0001)                -3.000000000000000E-01,      /* K = 19 */
(PID.TID 0000.0001)                 2.000000000000000E-01,      /* K = 20 */
(PID.TID 0000.0001)     3 @  5.000000000000000E-01              /* K = 21: 23 */
(PID.TID 0000.0001)     ;
(PID.TID 0000.0001) sRef =   /* Reference salinity profile ( g/kg ) */
(PID.TID 0000.0001)                 2.900790000000000E+01,      /* K =  1 */
(PID.TID 0000.0001)                 2.900800000000000E+01,      /* K =  2 */
(PID.TID 0000.0001)                 2.900860000000000E+01,      /* K =  3 */
(PID.TID 0000.0001)                 2.907750000000000E+01,      /* K =  4 */
(PID.TID 0000.0001)                 3.070000000000000E+01,      /* K =  5 */
(PID.TID 0000.0001)                 3.160000000000000E+01,      /* K =  6 */
(PID.TID 0000.0001)                 3.190000000000000E+01,      /* K =  7 */
(PID.TID 0000.0001)                 3.210000000000000E+01,      /* K =  8 */
(PID.TID 0000.0001)                 3.230000000000000E+01,      /* K =  9 */
(PID.TID 0000.0001)                 3.240000000000000E+01,      /* K = 10 */
(PID.TID 0000.0001)                 3.250000000000000E+01,      /* K = 11 */
(PID.TID 0000.0001)                 3.270000000000000E+01,      /* K = 12 */
(PID.TID 0000.0001)                 3.280000000000000E+01,      /* K = 13 */
(PID.TID 0000.0001)                 3.290000000000000E+01,      /* K = 14 */
(PID.TID 0000.0001)                 3.310000000000000E+01,      /* K = 15 */
(PID.TID 0000.0001)                 3.340000000000000E+01,      /* K = 16 */
(PID.TID 0000.0001)                 3.380000000000000E+01,      /* K = 17 */
(PID.TID 0000.0001)                 3.420000000000000E+01,      /* K = 18 */
(PID.TID 0000.0001)                 3.450000000000000E+01,      /* K = 19 */
(PID.TID 0000.0001)                 3.470000000000000E+01,      /* K = 20 */
(PID.TID 0000.0001)     3 @  3.480000000000000E+01              /* K = 21: 23 */
(PID.TID 0000.0001)     ;
(PID.TID 0000.0001) rhoRef =   /* Density vertical profile from (Ref,sRef)( kg/m^3 ) */
(PID.TID 0000.0001)                 1.023336010797564E+03,      /* K =  1 */
(PID.TID 0000.0001)                 1.023385249561392E+03,      /* K =  2 */
(PID.TID 0000.0001)                 1.023434884060854E+03,      /* K =  3 */
(PID.TID 0000.0001)                 1.023531881580728E+03,      /* K =  4 */
(PID.TID 0000.0001)                 1.024876163746672E+03,      /* K =  5 */
(PID.TID 0000.0001)                 1.025652003135131E+03,      /* K =  6 */
(PID.TID 0000.0001)                 1.025953557368236E+03,      /* K =  7 */
(PID.TID 0000.0001)                 1.026173581102777E+03,      /* K =  8 */
(PID.TID 0000.0001)                 1.026384240147849E+03,      /* K =  9 */
(PID.TID 0000.0001)                 1.026517210365632E+03,      /* K = 10 */
(PID.TID 0000.0001)                 1.026650845703160E+03,      /* K = 11 */
(PID.TID 0000.0001)                 1.026864214705455E+03,      /* K = 12 */
(PID.TID 0000.0001)                 1.027003045627643E+03,      /* K = 13 */
(PID.TID 0000.0001)                 1.027145206622954E+03,      /* K = 14 */
(PID.TID 0000.0001)                 1.027378765998909E+03,      /* K = 15 */
(PID.TID 0000.0001)                 1.027708807141548E+03,      /* K = 16 */
(PID.TID 0000.0001)                 1.028133712807844E+03,      /* K = 17 */
(PID.TID 0000.0001)                 1.028575299293221E+03,      /* K = 18 */
(PID.TID 0000.0001)                 1.028953542157682E+03,      /* K = 19 */
(PID.TID 0000.0001)                 1.029287042117233E+03,      /* K = 20 */
(PID.TID 0000.0001)                 1.029588478414257E+03,      /* K = 21 */
(PID.TID 0000.0001)                 1.029869654750130E+03,      /* K = 22 */
(PID.TID 0000.0001)                 1.030189706224379E+03       /* K = 23 */
(PID.TID 0000.0001)     ;
(PID.TID 0000.0001) dBdrRef = /* Vertical grad. of reference buoyancy [(m/s/r)^2] */
(PID.TID 0000.0001)                 0.000000000000000E+00,      /* K =  1 */
(PID.TID 0000.0001)                 8.400626767775133E-08,      /* K =  2 */
(PID.TID 0000.0001)                 4.726438194253301E-07,      /* K =  3 */
(PID.TID 0000.0001)                 4.585615465197204E-05,      /* K =  4 */
(PID.TID 0000.0001)                 1.238246572701474E-03,      /* K =  5 */
(PID.TID 0000.0001)                 6.951801729149382E-04,      /* K =  6 */
(PID.TID 0000.0001)                 2.418966274333319E-04,      /* K =  7 */
(PID.TID 0000.0001)                 1.638092340319407E-04,      /* K =  8 */
(PID.TID 0000.0001)                 1.545442190763079E-04,      /* K =  9 */
(PID.TID 0000.0001)                 7.981944964515872E-05,      /* K = 10 */
(PID.TID 0000.0001)                 7.863895531004773E-05,      /* K = 11 */
(PID.TID 0000.0001)                 1.467275808873821E-04,      /* K = 12 */
(PID.TID 0000.0001)                 7.125354478079847E-05,      /* K = 13 */
(PID.TID 0000.0001)                 6.154857046087147E-05,      /* K = 14 */
(PID.TID 0000.0001)                 1.052015240405023E-04,      /* K = 15 */
(PID.TID 0000.0001)                 1.296240024880414E-04,      /* K = 16 */
(PID.TID 0000.0001)                 1.356071782775411E-04,      /* K = 17 */
(PID.TID 0000.0001)                 1.048037635740844E-04,      /* K = 18 */
(PID.TID 0000.0001)                 5.815235710133455E-05,      /* K = 19 */
(PID.TID 0000.0001)                 2.944026976867708E-05,      /* K = 20 */
(PID.TID 0000.0001)                 1.131184781779247E-05,      /* K = 21 */
(PID.TID 0000.0001)     2 @  0.000000000000000E+00              /* K = 22: 23 */
(PID.TID 0000.0001)     ;
(PID.TID 0000.0001) useStrainTensionVisc= /* Use StrainTension Form of Viscous Operator */
(PID.TID 0000.0001)                   F
(PID.TID 0000.0001)     ;
(PID.TID 0000.0001) useVariableVisc = /* Use variable horizontal viscosity */
(PID.TID 0000.0001)                   F
(PID.TID 0000.0001)     ;
(PID.TID 0000.0001) useHarmonicVisc = /* Use harmonic horizontal viscosity */
(PID.TID 0000.0001)                   T
(PID.TID 0000.0001)     ;
(PID.TID 0000.0001) useBiharmonicVisc= /* Use biharmonic horiz.  viscosity */
(PID.TID 0000.0001)                   F
(PID.TID 0000.0001)     ;
(PID.TID 0000.0001) useSmag3D = /* Use isotropic 3-D Smagorinsky viscosity */
(PID.TID 0000.0001)                   F
(PID.TID 0000.0001)     ;
(PID.TID 0000.0001) viscAh  =   /* Lateral harmonic viscosity ( m^2/s ) */
(PID.TID 0000.0001)                 5.000000000000000E+04
(PID.TID 0000.0001)     ;
(PID.TID 0000.0001) viscA4  =   /* Lateral biharmonic viscosity ( m^4/s ) */
(PID.TID 0000.0001)                 0.000000000000000E+00
(PID.TID 0000.0001)     ;
(PID.TID 0000.0001) no_slip_sides =  /* Viscous BCs: No-slip sides */
(PID.TID 0000.0001)                   F
(PID.TID 0000.0001)     ;
(PID.TID 0000.0001) sideDragFactor = /* side-drag scaling factor (non-dim) */
(PID.TID 0000.0001)                 2.000000000000000E+00
(PID.TID 0000.0001)     ;
(PID.TID 0000.0001) viscArNr = /* vertical profile of vertical viscosity ( m^2/s )*/
(PID.TID 0000.0001)    23 @  1.930000000000000E-05              /* K =  1: 23 */
(PID.TID 0000.0001)     ;
(PID.TID 0000.0001) no_slip_bottom =  /* Viscous BCs: No-slip bottom */
(PID.TID 0000.0001)                   T
(PID.TID 0000.0001)     ;
(PID.TID 0000.0001) bottomVisc_pCell = /* Partial-cell in bottom Visc. BC */
(PID.TID 0000.0001)                   F
(PID.TID 0000.0001)     ;
(PID.TID 0000.0001) bottomDragLinear = /* linear bottom-drag coefficient ( m/s ) */
(PID.TID 0000.0001)                 0.000000000000000E+00
(PID.TID 0000.0001)     ;
(PID.TID 0000.0001) bottomDragQuadratic = /* quadratic bottom-drag coefficient (-) */
(PID.TID 0000.0001)                 0.000000000000000E+00
(PID.TID 0000.0001)     ;
(PID.TID 0000.0001) selectBotDragQuadr = /* select quadratic bottom drag options */
(PID.TID 0000.0001)                      -1
(PID.TID 0000.0001)     ;
(PID.TID 0000.0001) diffKhT =   /* Laplacian diffusion of heat laterally ( m^2/s ) */
(PID.TID 0000.0001)                 0.000000000000000E+00
(PID.TID 0000.0001)     ;
(PID.TID 0000.0001) diffK4T =   /* Biharmonic diffusion of heat laterally ( m^4/s ) */
(PID.TID 0000.0001)                 0.000000000000000E+00
(PID.TID 0000.0001)     ;
(PID.TID 0000.0001) diffKhS =   /* Laplacian diffusion of salt laterally ( m^2/s ) */
(PID.TID 0000.0001)                 0.000000000000000E+00
(PID.TID 0000.0001)     ;
(PID.TID 0000.0001) diffK4S =   /* Biharmonic diffusion of salt laterally ( m^4/s ) */
(PID.TID 0000.0001)                 0.000000000000000E+00
(PID.TID 0000.0001)     ;
(PID.TID 0000.0001) diffKrNrT = /* vertical profile of vertical diffusion of Temp ( m^2/s )*/
(PID.TID 0000.0001)    23 @  1.460000000000000E-07              /* K =  1: 23 */
(PID.TID 0000.0001)     ;
(PID.TID 0000.0001) diffKrNrS = /* vertical profile of vertical diffusion of Salt ( m^2/s )*/
(PID.TID 0000.0001)    23 @  1.460000000000000E-07              /* K =  1: 23 */
(PID.TID 0000.0001)     ;
(PID.TID 0000.0001) diffKrBL79surf = /* Surface diffusion for Bryan and Lewis 79 ( m^2/s ) */
(PID.TID 0000.0001)                 0.000000000000000E+00
(PID.TID 0000.0001)     ;
(PID.TID 0000.0001) diffKrBL79deep = /* Deep diffusion for Bryan and Lewis 1979 ( m^2/s ) */
(PID.TID 0000.0001)                 0.000000000000000E+00
(PID.TID 0000.0001)     ;
(PID.TID 0000.0001) diffKrBL79scl = /* Depth scale for Bryan and Lewis 1979 ( m ) */
(PID.TID 0000.0001)                 2.000000000000000E+02
(PID.TID 0000.0001)     ;
(PID.TID 0000.0001) diffKrBL79Ho = /* Turning depth for Bryan and Lewis 1979 ( m ) */
(PID.TID 0000.0001)                -2.000000000000000E+03
(PID.TID 0000.0001)     ;
(PID.TID 0000.0001) ivdc_kappa = /* Implicit Vertical Diffusivity for Convection ( m^2/s) */
(PID.TID 0000.0001)                 0.000000000000000E+00
(PID.TID 0000.0001)     ;
(PID.TID 0000.0001) hMixCriteria=  /* Criteria for mixed-layer diagnostic */
(PID.TID 0000.0001)                -8.000000000000000E-01
(PID.TID 0000.0001)     ;
(PID.TID 0000.0001) dRhoSmall =  /* Parameter for mixed-layer diagnostic */
(PID.TID 0000.0001)                 1.000000000000000E-06
(PID.TID 0000.0001)     ;
(PID.TID 0000.0001) hMixSmooth=  /* Smoothing parameter for mixed-layer diagnostic */
(PID.TID 0000.0001)                 0.000000000000000E+00
(PID.TID 0000.0001)     ;
(PID.TID 0000.0001) eosType =  /* Type of Equation of State */
(PID.TID 0000.0001)               'JMD95Z'
(PID.TID 0000.0001)     ;
(PID.TID 0000.0001) eosRefP0 = /* Reference atmospheric pressure for EOS ( Pa ) */
(PID.TID 0000.0001)                 1.013250000000000E+05
(PID.TID 0000.0001)     ;
(PID.TID 0000.0001) selectP_inEOS_Zc = /* select pressure to use in EOS (0,1,2,3) */
(PID.TID 0000.0001)                       0
(PID.TID 0000.0001)     0= -g*rhoConst*z ; 1= pRef (from tRef,sRef); 2= Hyd P ; 3= Hyd+NH P
(PID.TID 0000.0001)     ;
(PID.TID 0000.0001) surf_pRef = /* Surface reference pressure ( Pa ) */
(PID.TID 0000.0001)                 1.013250000000000E+05
(PID.TID 0000.0001)     ;
(PID.TID 0000.0001) HeatCapacity_Cp =  /* Specific heat capacity ( J/kg/K ) */
(PID.TID 0000.0001)                 3.986000000000000E+03
(PID.TID 0000.0001)     ;
(PID.TID 0000.0001) celsius2K = /* 0 degree Celsius converted to Kelvin ( K ) */
(PID.TID 0000.0001)                 2.731600000000000E+02
(PID.TID 0000.0001)     ;
(PID.TID 0000.0001) rhoConst  = /* Reference density (Boussinesq)  ( kg/m^3 ) */
(PID.TID 0000.0001)                 1.027000000000000E+03
(PID.TID 0000.0001)     ;
(PID.TID 0000.0001) rhoFacC = /* normalized Reference density @ cell-Center (-) */
(PID.TID 0000.0001)    23 @  1.000000000000000E+00              /* K =  1: 23 */
(PID.TID 0000.0001)     ;
(PID.TID 0000.0001) rhoFacF = /* normalized Reference density @ W-Interface (-) */
(PID.TID 0000.0001)    24 @  1.000000000000000E+00              /* K =  1: 24 */
(PID.TID 0000.0001)     ;
(PID.TID 0000.0001) rhoConstFresh = /* Fresh-water reference density ( kg/m^3 ) */
(PID.TID 0000.0001)                 9.998000000000000E+02
(PID.TID 0000.0001)     ;
(PID.TID 0000.0001) gravity =   /* Gravitational acceleration ( m/s^2 ) */
(PID.TID 0000.0001)                 9.815600000000000E+00
(PID.TID 0000.0001)     ;
(PID.TID 0000.0001) gBaro =   /* Barotropic gravity ( m/s^2 ) */
(PID.TID 0000.0001)                 9.815600000000000E+00
(PID.TID 0000.0001)     ;
(PID.TID 0000.0001) gravFacC = /* gravity factor (vs surf.) @ cell-Center (-) */
(PID.TID 0000.0001)    23 @  1.000000000000000E+00              /* K =  1: 23 */
(PID.TID 0000.0001)     ;
(PID.TID 0000.0001) gravFacF = /* gravity factor (vs surf.) @ W-Interface (-) */
(PID.TID 0000.0001)    24 @  1.000000000000000E+00              /* K =  1: 24 */
(PID.TID 0000.0001)     ;
(PID.TID 0000.0001) rotationPeriod =   /* Rotation Period ( s ) */
(PID.TID 0000.0001)                 8.616400000000000E+04
(PID.TID 0000.0001)     ;
(PID.TID 0000.0001) omega =   /* Angular velocity ( rad/s ) */
(PID.TID 0000.0001)                 7.292123516990375E-05
(PID.TID 0000.0001)     ;
(PID.TID 0000.0001) f0 =   /* Reference coriolis parameter ( 1/s ) */
(PID.TID 0000.0001)                 1.000000000000000E-04
(PID.TID 0000.0001)     ;
(PID.TID 0000.0001) beta =   /* Beta ( 1/(m.s) ) */
(PID.TID 0000.0001)                 9.999999999999999E-12
(PID.TID 0000.0001)     ;
(PID.TID 0000.0001) fPrime =   /* Second coriolis parameter ( 1/s ) */
(PID.TID 0000.0001)                 0.000000000000000E+00
(PID.TID 0000.0001)     ;
(PID.TID 0000.0001) rigidLid =   /* Rigid lid on/off flag */
(PID.TID 0000.0001)                   F
(PID.TID 0000.0001)     ;
(PID.TID 0000.0001) implicitFreeSurface =   /* Implicit free surface on/off flag */
(PID.TID 0000.0001)                   T
(PID.TID 0000.0001)     ;
(PID.TID 0000.0001) freeSurfFac =   /* Implicit free surface factor */
(PID.TID 0000.0001)                 1.000000000000000E+00
(PID.TID 0000.0001)     ;
(PID.TID 0000.0001) implicSurfPress =  /* Surface Pressure implicit factor (0-1) */
(PID.TID 0000.0001)                 1.000000000000000E+00
(PID.TID 0000.0001)     ;
(PID.TID 0000.0001) implicDiv2DFlow =  /* Barot. Flow Div. implicit factor (0-1) */
(PID.TID 0000.0001)                 1.000000000000000E+00
(PID.TID 0000.0001)     ;
(PID.TID 0000.0001) uniformLin_PhiSurf = /* use uniform Bo_surf on/off flag */
(PID.TID 0000.0001)                   T
(PID.TID 0000.0001)     ;
(PID.TID 0000.0001) uniformFreeSurfLev = /* free-surface level-index is uniform */
(PID.TID 0000.0001)                   T
(PID.TID 0000.0001)     ;
(PID.TID 0000.0001) sIceLoadFac =  /* scale factor for sIceLoad (0-1) */
(PID.TID 0000.0001)                 1.000000000000000E+00
(PID.TID 0000.0001)     ;
(PID.TID 0000.0001) hFacMin =   /* minimum partial cell factor (hFac) */
(PID.TID 0000.0001)                 1.000000000000000E+00
(PID.TID 0000.0001)     ;
(PID.TID 0000.0001) hFacMinDr = /* minimum partial cell thickness ( m) */
(PID.TID 0000.0001)                 0.000000000000000E+00
(PID.TID 0000.0001)     ;
(PID.TID 0000.0001) exactConserv =  /* Exact Volume Conservation on/off flag */
(PID.TID 0000.0001)                   F
(PID.TID 0000.0001)     ;
(PID.TID 0000.0001) linFSConserveTr = /* Tracer correction for Lin Free Surface on/off flag */
(PID.TID 0000.0001)                   F
(PID.TID 0000.0001)     ;
(PID.TID 0000.0001) nonlinFreeSurf = /* Non-linear Free Surf. options (-1,0,1,2,3)*/
(PID.TID 0000.0001)                       0
(PID.TID 0000.0001)      -1,0= Off ; 1,2,3= On, 2=+rescale gU,gV, 3=+update cg2d solv.
(PID.TID 0000.0001)     ;
(PID.TID 0000.0001) hFacInf =   /* lower threshold for hFac (nonlinFreeSurf only)*/
(PID.TID 0000.0001)                 2.000000000000000E-01
(PID.TID 0000.0001)     ;
(PID.TID 0000.0001) hFacSup =   /* upper threshold for hFac (nonlinFreeSurf only)*/
(PID.TID 0000.0001)                 2.000000000000000E+00
(PID.TID 0000.0001)     ;
(PID.TID 0000.0001) select_rStar = /* r* Vertical coord. options (=0 r coord.; >0 uses r*)*/
(PID.TID 0000.0001)                       0
(PID.TID 0000.0001)     ;
(PID.TID 0000.0001) useRealFreshWaterFlux = /* Real Fresh Water Flux on/off flag*/
(PID.TID 0000.0001)                   T
(PID.TID 0000.0001)     ;
(PID.TID 0000.0001) temp_EvPrRn = /* Temp. of Evap/Prec/R (UNSET=use local T)(oC)*/
(PID.TID 0000.0001)                 1.234567000000000E+05
(PID.TID 0000.0001)     ;
(PID.TID 0000.0001) salt_EvPrRn = /* Salin. of Evap/Prec/R (UNSET=use local S)(g/kg)*/
(PID.TID 0000.0001)                 0.000000000000000E+00
(PID.TID 0000.0001)     ;
(PID.TID 0000.0001) selectAddFluid = /* option for mass source/sink of fluid (=0: off) */
(PID.TID 0000.0001)                       0
(PID.TID 0000.0001)     ;
(PID.TID 0000.0001) temp_addMass = /* Temp. of addMass array (UNSET=use local T)(oC)*/
(PID.TID 0000.0001)                 1.234567000000000E+05
(PID.TID 0000.0001)     ;
(PID.TID 0000.0001) salt_addMass = /* Salin. of addMass array (UNSET=use local S)(g/kg)*/
(PID.TID 0000.0001)                 0.000000000000000E+00
(PID.TID 0000.0001)     ;
(PID.TID 0000.0001) convertFW2Salt = /* convert F.W. Flux to Salt Flux (-1=use local S)(g/kg)*/
(PID.TID 0000.0001)                -1.000000000000000E+00
(PID.TID 0000.0001)     ;
(PID.TID 0000.0001) use3Dsolver = /* use 3-D pressure solver on/off flag */
(PID.TID 0000.0001)                   F
(PID.TID 0000.0001)     ;
(PID.TID 0000.0001) nonHydrostatic =  /* Non-Hydrostatic on/off flag */
(PID.TID 0000.0001)                   F
(PID.TID 0000.0001)     ;
(PID.TID 0000.0001) nh_Am2 = /* Non-Hydrostatic terms scaling factor */
(PID.TID 0000.0001)                 1.000000000000000E+00
(PID.TID 0000.0001)     ;
(PID.TID 0000.0001) implicitNHPress = /* Non-Hyd Pressure implicit factor (0-1)*/
(PID.TID 0000.0001)                 1.000000000000000E+00
(PID.TID 0000.0001)     ;
(PID.TID 0000.0001) selectNHfreeSurf = /* Non-Hyd (free-)Surface option */
(PID.TID 0000.0001)                       0
(PID.TID 0000.0001)     ;
(PID.TID 0000.0001) quasiHydrostatic = /* Quasi-Hydrostatic on/off flag */
(PID.TID 0000.0001)                   F
(PID.TID 0000.0001)     ;
(PID.TID 0000.0001) calc_wVelocity = /* vertical velocity calculation on/off flag */
(PID.TID 0000.0001)                   T
(PID.TID 0000.0001)     ;
(PID.TID 0000.0001) momStepping =  /* Momentum equation on/off flag */
(PID.TID 0000.0001)                   T
(PID.TID 0000.0001)     ;
(PID.TID 0000.0001) vectorInvariantMomentum= /* Vector-Invariant Momentum on/off */
(PID.TID 0000.0001)                   T
(PID.TID 0000.0001)     ;
(PID.TID 0000.0001) momAdvection =  /* Momentum advection on/off flag */
(PID.TID 0000.0001)                   T
(PID.TID 0000.0001)     ;
(PID.TID 0000.0001) momViscosity =  /* Momentum viscosity on/off flag */
(PID.TID 0000.0001)                   T
(PID.TID 0000.0001)     ;
(PID.TID 0000.0001) momImplVertAdv= /* Momentum implicit vert. advection on/off*/
(PID.TID 0000.0001)                   F
(PID.TID 0000.0001)     ;
(PID.TID 0000.0001) implicitViscosity = /* Implicit viscosity on/off flag */
(PID.TID 0000.0001)                   T
(PID.TID 0000.0001)     ;
(PID.TID 0000.0001) selectImplicitDrag= /* Implicit bot Drag options (0,1,2)*/
(PID.TID 0000.0001)                       0
(PID.TID 0000.0001)     0= Expl. ; 1= Impl. on provis. Vel ; 2= Fully Impl (with surf.P)
(PID.TID 0000.0001)     ;
(PID.TID 0000.0001) useNHMTerms = /* Non-Hydrostatic Metric-Terms on/off */
(PID.TID 0000.0001)                   F
(PID.TID 0000.0001)     ;
(PID.TID 0000.0001) useCoriolis =  /* Coriolis on/off flag */
(PID.TID 0000.0001)                   T
(PID.TID 0000.0001)     ;
(PID.TID 0000.0001) useCDscheme =  /* CD scheme on/off flag */
(PID.TID 0000.0001)                   F
(PID.TID 0000.0001)     ;
(PID.TID 0000.0001) selectCoriMap = /* Coriolis Map options (0,1,2,3)*/
(PID.TID 0000.0001)                       0
(PID.TID 0000.0001)     0= f-Plane ; 1= Beta-Plane ; 2= Spherical ; 3= read from file
(PID.TID 0000.0001)     ;
(PID.TID 0000.0001) select3dCoriScheme= /* Scheme selector for 3-D Coriolis-Term */
(PID.TID 0000.0001)                       0
(PID.TID 0000.0001)    = 0 : Off (ignore 3-D Coriolis Terms in Omega.Cos(Lat) )
(PID.TID 0000.0001)    = 1 : original discretization ; = 2 : using averaged Transport
(PID.TID 0000.0001)    = 3 : same as 2 with hFac in gW_Cor
(PID.TID 0000.0001)     ;
(PID.TID 0000.0001) selectCoriScheme= /* Scheme selector for Coriolis-Term */
(PID.TID 0000.0001)                       0
(PID.TID 0000.0001)    = 0 : original discretization (simple averaging, no hFac)
(PID.TID 0000.0001)    = 1 : Wet-point averaging (Jamar & Ozer 1986)
(PID.TID 0000.0001)    = 2 : hFac weighted average (Angular Mom. conserving)
(PID.TID 0000.0001)    = 3 : energy conserving scheme using hFac weighted average
(PID.TID 0000.0001)     ;
(PID.TID 0000.0001) useAbsVorticity= /* V.I Works with f+zeta in Coriolis */
(PID.TID 0000.0001)                   F
(PID.TID 0000.0001)     ;
(PID.TID 0000.0001) selectVortScheme= /* V.I Scheme selector for Vorticity-Term */
(PID.TID 0000.0001)                       1
(PID.TID 0000.0001)    = 0 : enstrophy (Shallow-Water Eq.) conserving scheme by Sadourny, JAS 75
(PID.TID 0000.0001)    = 1 : same as 0 with modified hFac
(PID.TID 0000.0001)    = 2 : energy conserving scheme (used by Sadourny in JAS 75 paper)
(PID.TID 0000.0001)    = 3 : energy (general) and enstrophy (2D, nonDiv.) conserving scheme
(PID.TID 0000.0001)          from Sadourny (Burridge & Haseler, ECMWF Rep.4, 1977)
(PID.TID 0000.0001)    = 4 : shift 1/hFac from Vorticity to gU,gV tend. (Ang.Mom. conserving)
(PID.TID 0000.0001)     ;
(PID.TID 0000.0001) useJamartMomAdv= /* V.I Non-linear terms Jamart flag */
(PID.TID 0000.0001)                   F
(PID.TID 0000.0001)     ;
(PID.TID 0000.0001) upwindVorticity= /* V.I Upwind bias vorticity flag */
(PID.TID 0000.0001)                   F
(PID.TID 0000.0001)     ;
(PID.TID 0000.0001) highOrderVorticity= /* V.I High order vort. advect. flag */
(PID.TID 0000.0001)                   F
(PID.TID 0000.0001)     ;
(PID.TID 0000.0001) upwindShear= /* V.I Upwind vertical Shear advection flag */
(PID.TID 0000.0001)                   F
(PID.TID 0000.0001)     ;
(PID.TID 0000.0001) selectKEscheme= /* V.I Kinetic Energy scheme selector */
(PID.TID 0000.0001)                       0
(PID.TID 0000.0001)     ;
(PID.TID 0000.0001) momForcing =  /* Momentum forcing on/off flag */
(PID.TID 0000.0001)                   T
(PID.TID 0000.0001)     ;
(PID.TID 0000.0001) momTidalForcing = /* Momentum Tidal forcing on/off flag */
(PID.TID 0000.0001)                   T
(PID.TID 0000.0001)     ;
(PID.TID 0000.0001) momPressureForcing =  /* Momentum pressure term on/off flag */
(PID.TID 0000.0001)                   T
(PID.TID 0000.0001)     ;
(PID.TID 0000.0001) implicitIntGravWave= /* Implicit Internal Gravity Wave flag */
(PID.TID 0000.0001)                   F
(PID.TID 0000.0001)     ;
(PID.TID 0000.0001) staggerTimeStep =    /* Stagger time stepping on/off flag */
(PID.TID 0000.0001)                   T
(PID.TID 0000.0001)     ;
(PID.TID 0000.0001) doResetHFactors = /* reset thickness factors @ each time-step */
(PID.TID 0000.0001)                   F
(PID.TID 0000.0001)     ;
(PID.TID 0000.0001) multiDimAdvection =  /* enable/disable Multi-Dim Advection */
(PID.TID 0000.0001)                   F
(PID.TID 0000.0001)     ;
(PID.TID 0000.0001) useMultiDimAdvec =   /* Multi-Dim Advection is/is-not used */
(PID.TID 0000.0001)                   F
(PID.TID 0000.0001)     ;
(PID.TID 0000.0001) implicitDiffusion = /* Implicit Diffusion on/off flag */
(PID.TID 0000.0001)                   T
(PID.TID 0000.0001)     ;
(PID.TID 0000.0001) tempStepping =  /* Temperature equation on/off flag */
(PID.TID 0000.0001)                   T
(PID.TID 0000.0001)     ;
(PID.TID 0000.0001) tempAdvection = /* Temperature advection on/off flag */
(PID.TID 0000.0001)                   T
(PID.TID 0000.0001)     ;
(PID.TID 0000.0001) tempImplVertAdv = /* Temp. implicit vert. advection on/off */
(PID.TID 0000.0001)                   F
(PID.TID 0000.0001)     ;
(PID.TID 0000.0001) tempForcing  =  /* Temperature forcing on/off flag */
(PID.TID 0000.0001)                   T
(PID.TID 0000.0001)     ;
(PID.TID 0000.0001) doThetaClimRelax = /* apply SST relaxation on/off flag */
(PID.TID 0000.0001)                   F
(PID.TID 0000.0001)     ;
(PID.TID 0000.0001) tempIsActiveTr = /* Temp. is a dynamically Active Tracer */
(PID.TID 0000.0001)                   T
(PID.TID 0000.0001)     ;
(PID.TID 0000.0001) saltStepping =  /* Salinity equation on/off flag */
(PID.TID 0000.0001)                   T
(PID.TID 0000.0001)     ;
(PID.TID 0000.0001) saltAdvection = /* Salinity advection on/off flag */
(PID.TID 0000.0001)                   T
(PID.TID 0000.0001)     ;
(PID.TID 0000.0001) saltImplVertAdv = /* Sali. implicit vert. advection on/off */
(PID.TID 0000.0001)                   F
(PID.TID 0000.0001)     ;
(PID.TID 0000.0001) saltForcing  =  /* Salinity forcing on/off flag */
(PID.TID 0000.0001)                   T
(PID.TID 0000.0001)     ;
(PID.TID 0000.0001) selectPenetratingSW = /* short wave penetration selector */
(PID.TID 0000.0001)                       1
(PID.TID 0000.0001)     ;
(PID.TID 0000.0001) doSaltClimRelax = /* apply SSS relaxation on/off flag */
(PID.TID 0000.0001)                   F
(PID.TID 0000.0001)     ;
(PID.TID 0000.0001) saltIsActiveTr = /* Salt  is a dynamically Active Tracer */
(PID.TID 0000.0001)                   T
(PID.TID 0000.0001)     ;
(PID.TID 0000.0001)  readBinaryPrec = /* Precision used for reading binary files */
(PID.TID 0000.0001)                      32
(PID.TID 0000.0001)     ;
(PID.TID 0000.0001) writeBinaryPrec = /* Precision used for writing binary files */
(PID.TID 0000.0001)                      32
(PID.TID 0000.0001)     ;
(PID.TID 0000.0001)  rwSuffixType =   /* select format of mds file suffix */
(PID.TID 0000.0001)                       0
(PID.TID 0000.0001)    = 0 : myIter (I10.10) ;   = 1 : 100*myTime (100th sec) ;
(PID.TID 0000.0001)    = 2 : myTime (seconds);   = 3 : myTime/360 (10th of hr);
(PID.TID 0000.0001)    = 4 : myTime/3600 (hours)
(PID.TID 0000.0001)     ;
(PID.TID 0000.0001)  globalFiles = /* write "global" (=not per tile) files */
(PID.TID 0000.0001)                   F
(PID.TID 0000.0001)     ;
(PID.TID 0000.0001)  useSingleCpuIO = /* only master MPI process does I/O */
(PID.TID 0000.0001)                   T
(PID.TID 0000.0001)     ;
(PID.TID 0000.0001)  useSingleCpuInput = /* only master process reads input */
(PID.TID 0000.0001)                   T
(PID.TID 0000.0001)     ;
(PID.TID 0000.0001) /* debLev[*]  : level of debug & auxiliary message printing */
(PID.TID 0000.0001) debLevZero =  0 ; /* level of disabled aux. msg printing */
(PID.TID 0000.0001)    debLevA =  1 ; /* level of minimum  aux. msg printing */
(PID.TID 0000.0001)    debLevB =  2 ; /* level of low aux. print (report read-file opening)*/
(PID.TID 0000.0001)    debLevC =  3 ; /* level of moderate debug prt (most pkgs debug msg) */
(PID.TID 0000.0001)    debLevD =  4 ; /* level of enhanced debug prt (add DEBUG_STATS prt) */
(PID.TID 0000.0001)    debLevE =  5 ; /* level of extensive debug printing */
(PID.TID 0000.0001) debugLevel =  /* select debug printing level */
(PID.TID 0000.0001)                       1
(PID.TID 0000.0001)     ;
(PID.TID 0000.0001)  plotLevel =  /* select PLOT_FIELD printing level */
(PID.TID 0000.0001)                       1
(PID.TID 0000.0001)     ;
(PID.TID 0000.0001) //
(PID.TID 0000.0001) // Elliptic solver(s) paramters ( PARM02 in namelist )
(PID.TID 0000.0001) //
(PID.TID 0000.0001) cg2dMaxIters =   /* Upper limit on 2d con. grad iterations  */
(PID.TID 0000.0001)                    1000
(PID.TID 0000.0001)     ;
(PID.TID 0000.0001) cg2dMinItersNSA =   /* Minimum number of iterations of 2d con. grad solver  */
(PID.TID 0000.0001)                       0
(PID.TID 0000.0001)     ;
(PID.TID 0000.0001) cg2dUseMinResSol= /* use cg2d last-iter(=0) / min-resid.(=1) solution */
(PID.TID 0000.0001)                       0
(PID.TID 0000.0001)     ;
(PID.TID 0000.0001) cg2dTargetResidual =   /* 2d con. grad target residual  */
(PID.TID 0000.0001)                 1.000000000000000E-13
(PID.TID 0000.0001)     ;
(PID.TID 0000.0001) cg2dTargetResWunit =   /* CG2d target residual [W units] */
(PID.TID 0000.0001)                -1.000000000000000E+00
(PID.TID 0000.0001)     ;
(PID.TID 0000.0001) cg2dPreCondFreq =   /* Freq. for updating cg2d preconditioner */
(PID.TID 0000.0001)                       1
(PID.TID 0000.0001)     ;
(PID.TID 0000.0001) useSRCGSolver =  /* use single reduction CG solver(s) */
(PID.TID 0000.0001)                   F
(PID.TID 0000.0001)     ;
(PID.TID 0000.0001) useNSACGSolver =  /* use not-self-adjoint CG solver */
(PID.TID 0000.0001)                   F
(PID.TID 0000.0001)     ;
(PID.TID 0000.0001) printResidualFreq = /* Freq. for printing CG residual */
(PID.TID 0000.0001)                      -1
(PID.TID 0000.0001)     ;
(PID.TID 0000.0001) //
(PID.TID 0000.0001) // Time stepping paramters ( PARM03 in namelist )
(PID.TID 0000.0001) //
(PID.TID 0000.0001) deltaTMom =   /* Momentum equation timestep ( s ) */
(PID.TID 0000.0001)                 3.600000000000000E+03
(PID.TID 0000.0001)     ;
(PID.TID 0000.0001) deltaTFreeSurf = /* FreeSurface equation timestep ( s ) */
(PID.TID 0000.0001)                 3.600000000000000E+03
(PID.TID 0000.0001)     ;
(PID.TID 0000.0001) dTtracerLev =  /* Tracer equation timestep ( s ) */
(PID.TID 0000.0001)    23 @  3.600000000000000E+03              /* K =  1: 23 */
(PID.TID 0000.0001)     ;
(PID.TID 0000.0001) deltaTClock  =   /* Model clock timestep ( s ) */
(PID.TID 0000.0001)                 3.600000000000000E+03
(PID.TID 0000.0001)     ;
(PID.TID 0000.0001) cAdjFreq =   /* Convective adjustment interval ( s ) */
(PID.TID 0000.0001)                 0.000000000000000E+00
(PID.TID 0000.0001)     ;
(PID.TID 0000.0001) momForcingOutAB = /* =1: take Momentum Forcing out of Adams-Bash. stepping */
(PID.TID 0000.0001)                       0
(PID.TID 0000.0001)     ;
(PID.TID 0000.0001) tracForcingOutAB = /* =1: take T,S,pTr Forcing out of Adams-Bash. stepping */
(PID.TID 0000.0001)                       1
(PID.TID 0000.0001)     ;
(PID.TID 0000.0001) momDissip_In_AB = /* put Dissipation Tendency in Adams-Bash. stepping */
(PID.TID 0000.0001)                   T
(PID.TID 0000.0001)     ;
(PID.TID 0000.0001) doAB_onGtGs = /* apply AB on Tendencies (rather than on T,S)*/
(PID.TID 0000.0001)                   T
(PID.TID 0000.0001)     ;
(PID.TID 0000.0001) abEps =   /* Adams-Bashforth-2 stabilizing weight */
(PID.TID 0000.0001)                 1.000000000000000E-01
(PID.TID 0000.0001)     ;
(PID.TID 0000.0001) applyExchUV_early = /* Apply EXCH to U,V earlier in time-step */
(PID.TID 0000.0001)                   F
(PID.TID 0000.0001)     ;
(PID.TID 0000.0001) pickupStrictlyMatch= /* stop if pickup do not strictly match */
(PID.TID 0000.0001)                   T
(PID.TID 0000.0001)     ;
(PID.TID 0000.0001) nIter0   =   /* Run starting timestep number */
(PID.TID 0000.0001)                       0
(PID.TID 0000.0001)     ;
(PID.TID 0000.0001) nTimeSteps = /* Number of timesteps */
(PID.TID 0000.0001)                      10
(PID.TID 0000.0001)     ;
(PID.TID 0000.0001) nEndIter =   /* Run ending timestep number */
(PID.TID 0000.0001)                      10
(PID.TID 0000.0001)     ;
(PID.TID 0000.0001) baseTime =   /* Model base time ( s ) */
(PID.TID 0000.0001)                 0.000000000000000E+00
(PID.TID 0000.0001)     ;
(PID.TID 0000.0001) startTime =  /* Run start time ( s ) */
(PID.TID 0000.0001)                 0.000000000000000E+00
(PID.TID 0000.0001)     ;
(PID.TID 0000.0001) endTime  =   /* Integration ending time ( s ) */
(PID.TID 0000.0001)                 3.600000000000000E+04
(PID.TID 0000.0001)     ;
(PID.TID 0000.0001) pChkPtFreq = /* Permanent restart/pickup file interval ( s ) */
(PID.TID 0000.0001)                 0.000000000000000E+00
(PID.TID 0000.0001)     ;
(PID.TID 0000.0001) chkPtFreq  = /* Rolling restart/pickup file interval ( s ) */
(PID.TID 0000.0001)                 0.000000000000000E+00
(PID.TID 0000.0001)     ;
(PID.TID 0000.0001) pickup_write_mdsio =   /* Model IO flag. */
(PID.TID 0000.0001)                   T
(PID.TID 0000.0001)     ;
(PID.TID 0000.0001) pickup_read_mdsio =   /* Model IO flag. */
(PID.TID 0000.0001)                   T
(PID.TID 0000.0001)     ;
(PID.TID 0000.0001) writePickupAtEnd =   /* Model IO flag. */
(PID.TID 0000.0001)                   T
(PID.TID 0000.0001)     ;
(PID.TID 0000.0001) dumpFreq =   /* Model state write out interval ( s ). */
(PID.TID 0000.0001)                 0.000000000000000E+00
(PID.TID 0000.0001)     ;
(PID.TID 0000.0001) dumpInitAndLast= /* write out Initial & Last iter. model state */
(PID.TID 0000.0001)                   T
(PID.TID 0000.0001)     ;
(PID.TID 0000.0001) snapshot_mdsio =   /* Model IO flag. */
(PID.TID 0000.0001)                   T
(PID.TID 0000.0001)     ;
(PID.TID 0000.0001) monitorFreq =   /* Monitor output interval ( s ). */
(PID.TID 0000.0001)                 1.000000000000000E+00
(PID.TID 0000.0001)     ;
(PID.TID 0000.0001) monitorSelect = /* select group of variables to monitor */
(PID.TID 0000.0001)                       3
(PID.TID 0000.0001)     ;
(PID.TID 0000.0001) monitor_stdio =   /* Model IO flag. */
(PID.TID 0000.0001)                   T
(PID.TID 0000.0001)     ;
(PID.TID 0000.0001) externForcingPeriod =   /* forcing period (s) */
(PID.TID 0000.0001)                 0.000000000000000E+00
(PID.TID 0000.0001)     ;
(PID.TID 0000.0001) externForcingCycle =   /* period of the cyle (s). */
(PID.TID 0000.0001)                 0.000000000000000E+00
(PID.TID 0000.0001)     ;
(PID.TID 0000.0001) tauThetaClimRelax =   /* relaxation time scale (s) */
(PID.TID 0000.0001)                 0.000000000000000E+00
(PID.TID 0000.0001)     ;
(PID.TID 0000.0001) tauSaltClimRelax =   /* relaxation time scale (s) */
(PID.TID 0000.0001)                 0.000000000000000E+00
(PID.TID 0000.0001)     ;
(PID.TID 0000.0001) latBandClimRelax =   /* max. Lat. where relaxation */
(PID.TID 0000.0001)                 1.500000000000000E+04
(PID.TID 0000.0001)     ;
(PID.TID 0000.0001) //
(PID.TID 0000.0001) // Gridding paramters ( PARM04 in namelist )
(PID.TID 0000.0001) //
(PID.TID 0000.0001) usingCartesianGrid = /* Cartesian coordinates flag ( True/False ) */
(PID.TID 0000.0001)                   T
(PID.TID 0000.0001)     ;
(PID.TID 0000.0001) usingCylindricalGrid = /* Cylindrical coordinates flag ( True/False ) */
(PID.TID 0000.0001)                   F
(PID.TID 0000.0001)     ;
(PID.TID 0000.0001) usingSphericalPolarGrid = /* Spherical coordinates flag ( True/False ) */
(PID.TID 0000.0001)                   F
(PID.TID 0000.0001)     ;
(PID.TID 0000.0001) usingCurvilinearGrid = /* Curvilinear coordinates flag ( True/False ) */
(PID.TID 0000.0001)                   F
(PID.TID 0000.0001)     ;
(PID.TID 0000.0001) useMin4hFacEdges = /* set hFacW,S as minimum of adjacent hFacC factor */
(PID.TID 0000.0001)                   F
(PID.TID 0000.0001)     ;
(PID.TID 0000.0001) interViscAr_pCell = /* account for partial-cell in interior vert. viscosity */
(PID.TID 0000.0001)                   F
(PID.TID 0000.0001)     ;
(PID.TID 0000.0001) interDiffKr_pCell = /* account for partial-cell in interior vert. diffusion */
(PID.TID 0000.0001)                   F
(PID.TID 0000.0001)     ;
(PID.TID 0000.0001) pCellMix_select = /* option to enhance mixing near surface & bottom */
(PID.TID 0000.0001)                       0
(PID.TID 0000.0001)     ;
(PID.TID 0000.0001) selectSigmaCoord = /* Hybrid-Sigma Vert. Coordinate option */
(PID.TID 0000.0001)                       0
(PID.TID 0000.0001)     ;
(PID.TID 0000.0001) rSigmaBnd = /* r/sigma transition ( units of r ==  m ) */
(PID.TID 0000.0001)                 1.234567000000000E+05
(PID.TID 0000.0001)     ;
(PID.TID 0000.0001) rkSign =   /* index orientation relative to vertical coordinate */
(PID.TID 0000.0001)                -1.000000000000000E+00
(PID.TID 0000.0001)     ;
(PID.TID 0000.0001) gravitySign = /* gravity orientation relative to vertical coordinate */
(PID.TID 0000.0001)                -1.000000000000000E+00
(PID.TID 0000.0001)     ;
(PID.TID 0000.0001) seaLev_Z =  /* reference height of sea-level [m] */
(PID.TID 0000.0001)                 0.000000000000000E+00
(PID.TID 0000.0001)     ;
(PID.TID 0000.0001) top_Pres =  /* reference pressure at the top [Pa] */
(PID.TID 0000.0001)                 0.000000000000000E+00
(PID.TID 0000.0001)     ;
(PID.TID 0000.0001) mass2rUnit = /* convert mass per unit area [kg/m2] to r-units [m] */
(PID.TID 0000.0001)                 9.737098344693282E-04
(PID.TID 0000.0001)     ;
(PID.TID 0000.0001) rUnit2mass = /* convert r-units [m] to mass per unit area [kg/m2] */
(PID.TID 0000.0001)                 1.027000000000000E+03
(PID.TID 0000.0001)     ;
(PID.TID 0000.0001) drC =   /* C spacing ( units of r ) */
(PID.TID 0000.0001)                 5.000000000000000E+00,      /* K =  1 */
(PID.TID 0000.0001)     6 @  1.000000000000000E+01,             /* K =  2:  7 */
(PID.TID 0000.0001)                 1.000500000000000E+01,      /* K =  8 */
(PID.TID 0000.0001)                 1.002000000000000E+01,      /* K =  9 */
(PID.TID 0000.0001)                 1.007000000000000E+01,      /* K = 10 */
(PID.TID 0000.0001)                 1.021500000000000E+01,      /* K = 11 */
(PID.TID 0000.0001)                 1.056000000000000E+01,      /* K = 12 */
(PID.TID 0000.0001)                 1.128000000000000E+01,      /* K = 13 */
(PID.TID 0000.0001)                 1.259000000000000E+01,      /* K = 14 */
(PID.TID 0000.0001)                 1.473000000000000E+01,      /* K = 15 */
(PID.TID 0000.0001)                 1.793000000000000E+01,      /* K = 16 */
(PID.TID 0000.0001)                 2.233500000000000E+01,      /* K = 17 */
(PID.TID 0000.0001)                 2.797500000000000E+01,      /* K = 18 */
(PID.TID 0000.0001)                 3.476000000000001E+01,      /* K = 19 */
(PID.TID 0000.0001)                 4.246000000000000E+01,      /* K = 20 */
(PID.TID 0000.0001)                 5.075000000000000E+01,      /* K = 21 */
(PID.TID 0000.0001)                 5.925000000000000E+01,      /* K = 22 */
(PID.TID 0000.0001)                 6.753999999999999E+01,      /* K = 23 */
(PID.TID 0000.0001)                 3.579000000000000E+01       /* K = 24 */
(PID.TID 0000.0001)     ;
(PID.TID 0000.0001) drF =   /* W spacing ( units of r ) */
(PID.TID 0000.0001)     7 @  1.000000000000000E+01,             /* K =  1:  7 */
(PID.TID 0000.0001)                 1.001000000000000E+01,      /* K =  8 */
(PID.TID 0000.0001)                 1.003000000000000E+01,      /* K =  9 */
(PID.TID 0000.0001)                 1.011000000000000E+01,      /* K = 10 */
(PID.TID 0000.0001)                 1.032000000000000E+01,      /* K = 11 */
(PID.TID 0000.0001)                 1.080000000000000E+01,      /* K = 12 */
(PID.TID 0000.0001)                 1.176000000000000E+01,      /* K = 13 */
(PID.TID 0000.0001)                 1.342000000000000E+01,      /* K = 14 */
(PID.TID 0000.0001)                 1.604000000000000E+01,      /* K = 15 */
(PID.TID 0000.0001)                 1.982000000000000E+01,      /* K = 16 */
(PID.TID 0000.0001)                 2.485000000000000E+01,      /* K = 17 */
(PID.TID 0000.0001)                 3.110000000000000E+01,      /* K = 18 */
(PID.TID 0000.0001)                 3.842000000000000E+01,      /* K = 19 */
(PID.TID 0000.0001)                 4.650000000000000E+01,      /* K = 20 */
(PID.TID 0000.0001)                 5.500000000000000E+01,      /* K = 21 */
(PID.TID 0000.0001)                 6.350000000000000E+01,      /* K = 22 */
(PID.TID 0000.0001)                 7.158000000000000E+01       /* K = 23 */
(PID.TID 0000.0001)     ;
(PID.TID 0000.0001) delX = /* U spacing ( m - cartesian, degrees - spherical ) */
(PID.TID 0000.0001)                 5.000000000000000E+03       /* I =  1 */
(PID.TID 0000.0001)     ;
(PID.TID 0000.0001) delY = /* V spacing ( m - cartesian, degrees - spherical ) */
(PID.TID 0000.0001)                 5.000000000000000E+03       /* J =  1 */
(PID.TID 0000.0001)     ;
(PID.TID 0000.0001) xgOrigin = /* X-axis origin of West  edge (cartesian: m, lat-lon: deg) */
(PID.TID 0000.0001)                 0.000000000000000E+00
(PID.TID 0000.0001)     ;
(PID.TID 0000.0001) ygOrigin = /* Y-axis origin of South edge (cartesian: m, lat-lon: deg) */
(PID.TID 0000.0001)                 0.000000000000000E+00
(PID.TID 0000.0001)     ;
(PID.TID 0000.0001) rSphere =  /* Radius ( ignored - cartesian, m - spherical ) */
(PID.TID 0000.0001)                 6.370000000000000E+06
(PID.TID 0000.0001)     ;
(PID.TID 0000.0001) deepAtmosphere = /* Deep/Shallow Atmosphere flag (True/False) */
(PID.TID 0000.0001)                   F
(PID.TID 0000.0001)     ;
(PID.TID 0000.0001) xC =  /* xC(:,1,:,1) : P-point X coord ( deg. or m if cartesian) */
(PID.TID 0000.0001)                 2.500000000000000E+03       /* I =  1 */
(PID.TID 0000.0001)     ;
(PID.TID 0000.0001) yC =  /* yC(1,:,1,:) : P-point Y coord ( deg. or m if cartesian) */
(PID.TID 0000.0001)                 2.500000000000000E+03       /* J =  1 */
(PID.TID 0000.0001)     ;
(PID.TID 0000.0001) rcoord = /* P-point R coordinate (  units of r ) */
(PID.TID 0000.0001)                -5.000000000000000E+00,      /* K =  1 */
(PID.TID 0000.0001)                -1.500000000000000E+01,      /* K =  2 */
(PID.TID 0000.0001)                -2.500000000000000E+01,      /* K =  3 */
(PID.TID 0000.0001)                -3.500000000000000E+01,      /* K =  4 */
(PID.TID 0000.0001)                -4.500000000000000E+01,      /* K =  5 */
(PID.TID 0000.0001)                -5.500000000000000E+01,      /* K =  6 */
(PID.TID 0000.0001)                -6.500000000000000E+01,      /* K =  7 */
(PID.TID 0000.0001)                -7.500500000000000E+01,      /* K =  8 */
(PID.TID 0000.0001)                -8.502499999999999E+01,      /* K =  9 */
(PID.TID 0000.0001)                -9.509500000000000E+01,      /* K = 10 */
(PID.TID 0000.0001)                -1.053100000000000E+02,      /* K = 11 */
(PID.TID 0000.0001)                -1.158700000000000E+02,      /* K = 12 */
(PID.TID 0000.0001)                -1.271500000000000E+02,      /* K = 13 */
(PID.TID 0000.0001)                -1.397400000000000E+02,      /* K = 14 */
(PID.TID 0000.0001)                -1.544700000000000E+02,      /* K = 15 */
(PID.TID 0000.0001)                -1.724000000000000E+02,      /* K = 16 */
(PID.TID 0000.0001)                -1.947350000000000E+02,      /* K = 17 */
(PID.TID 0000.0001)                -2.227100000000000E+02,      /* K = 18 */
(PID.TID 0000.0001)                -2.574700000000000E+02,      /* K = 19 */
(PID.TID 0000.0001)                -2.999300000000000E+02,      /* K = 20 */
(PID.TID 0000.0001)                -3.506800000000000E+02,      /* K = 21 */
(PID.TID 0000.0001)                -4.099300000000000E+02,      /* K = 22 */
(PID.TID 0000.0001)                -4.774700000000000E+02       /* K = 23 */
(PID.TID 0000.0001)     ;
(PID.TID 0000.0001) rF =   /* W-Interf. R coordinate (  units of r ) */
(PID.TID 0000.0001)                 0.000000000000000E+00,      /* K =  1 */
(PID.TID 0000.0001)                -1.000000000000000E+01,      /* K =  2 */
(PID.TID 0000.0001)                -2.000000000000000E+01,      /* K =  3 */
(PID.TID 0000.0001)                -3.000000000000000E+01,      /* K =  4 */
(PID.TID 0000.0001)                -4.000000000000000E+01,      /* K =  5 */
(PID.TID 0000.0001)                -5.000000000000000E+01,      /* K =  6 */
(PID.TID 0000.0001)                -6.000000000000000E+01,      /* K =  7 */
(PID.TID 0000.0001)                -7.000000000000000E+01,      /* K =  8 */
(PID.TID 0000.0001)                -8.001000000000001E+01,      /* K =  9 */
(PID.TID 0000.0001)                -9.004000000000001E+01,      /* K = 10 */
(PID.TID 0000.0001)                -1.001500000000000E+02,      /* K = 11 */
(PID.TID 0000.0001)                -1.104700000000000E+02,      /* K = 12 */
(PID.TID 0000.0001)                -1.212700000000000E+02,      /* K = 13 */
(PID.TID 0000.0001)                -1.330300000000000E+02,      /* K = 14 */
(PID.TID 0000.0001)                -1.464500000000000E+02,      /* K = 15 */
(PID.TID 0000.0001)                -1.624900000000000E+02,      /* K = 16 */
(PID.TID 0000.0001)                -1.823100000000000E+02,      /* K = 17 */
(PID.TID 0000.0001)                -2.071600000000000E+02,      /* K = 18 */
(PID.TID 0000.0001)                -2.382600000000000E+02,      /* K = 19 */
(PID.TID 0000.0001)                -2.766799999999999E+02,      /* K = 20 */
(PID.TID 0000.0001)                -3.231799999999999E+02,      /* K = 21 */
(PID.TID 0000.0001)                -3.781799999999999E+02,      /* K = 22 */
(PID.TID 0000.0001)                -4.416799999999999E+02,      /* K = 23 */
(PID.TID 0000.0001)                -5.132600000000000E+02       /* K = 24 */
(PID.TID 0000.0001)     ;
(PID.TID 0000.0001) deepFacC = /* deep-model grid factor @ cell-Center (-) */
(PID.TID 0000.0001)    23 @  1.000000000000000E+00              /* K =  1: 23 */
(PID.TID 0000.0001)     ;
(PID.TID 0000.0001) deepFacF = /* deep-model grid factor @ W-Interface (-) */
(PID.TID 0000.0001)    24 @  1.000000000000000E+00              /* K =  1: 24 */
(PID.TID 0000.0001)     ;
(PID.TID 0000.0001) rotateGrid = /* use rotated grid ( True/False ) */
(PID.TID 0000.0001)                   F
(PID.TID 0000.0001)     ;
(PID.TID 0000.0001) phiEuler = /* Euler angle, rotation about original z-coordinate [rad] */
(PID.TID 0000.0001)                 0.000000000000000E+00
(PID.TID 0000.0001)     ;
(PID.TID 0000.0001) thetaEuler = /* Euler angle, rotation about new x-coordinate [rad] */
(PID.TID 0000.0001)                 0.000000000000000E+00
(PID.TID 0000.0001)     ;
(PID.TID 0000.0001) psiEuler = /* Euler angle, rotation about new z-coordinate [rad] */
(PID.TID 0000.0001)                 0.000000000000000E+00
(PID.TID 0000.0001)     ;
(PID.TID 0000.0001) dxF =  /* dxF(:,1,:,1) ( units: m ) */
(PID.TID 0000.0001)                 5.000000000000000E+03       /* I =  1 */
(PID.TID 0000.0001)     ;
(PID.TID 0000.0001) dxF =  /* dxF(1,:,1,:) ( units: m ) */
(PID.TID 0000.0001)                 5.000000000000000E+03       /* J =  1 */
(PID.TID 0000.0001)     ;
(PID.TID 0000.0001) dyF =  /* dyF(:,1,:,1) ( units: m ) */
(PID.TID 0000.0001)                 5.000000000000000E+03       /* I =  1 */
(PID.TID 0000.0001)     ;
(PID.TID 0000.0001) dyF =  /* dyF(1,:,1,:) ( units: m ) */
(PID.TID 0000.0001)                 5.000000000000000E+03       /* J =  1 */
(PID.TID 0000.0001)     ;
(PID.TID 0000.0001) dxG =  /* dxG(:,1,:,1) ( units: m ) */
(PID.TID 0000.0001)                 5.000000000000000E+03       /* I =  1 */
(PID.TID 0000.0001)     ;
(PID.TID 0000.0001) dxG =  /* dxG(1,:,1,:) ( units: m ) */
(PID.TID 0000.0001)                 5.000000000000000E+03       /* J =  1 */
(PID.TID 0000.0001)     ;
(PID.TID 0000.0001) dyG =  /* dyG(:,1,:,1) ( units: m ) */
(PID.TID 0000.0001)                 5.000000000000000E+03       /* I =  1 */
(PID.TID 0000.0001)     ;
(PID.TID 0000.0001) dyG =  /* dyG(1,:,1,:) ( units: m ) */
(PID.TID 0000.0001)                 5.000000000000000E+03       /* J =  1 */
(PID.TID 0000.0001)     ;
(PID.TID 0000.0001) dxC =  /* dxC(:,1,:,1) ( units: m ) */
(PID.TID 0000.0001)                 5.000000000000000E+03       /* I =  1 */
(PID.TID 0000.0001)     ;
(PID.TID 0000.0001) dxC =  /* dxC(1,:,1,:) ( units: m ) */
(PID.TID 0000.0001)                 5.000000000000000E+03       /* J =  1 */
(PID.TID 0000.0001)     ;
(PID.TID 0000.0001) dyC =  /* dyC(:,1,:,1) ( units: m ) */
(PID.TID 0000.0001)                 5.000000000000000E+03       /* I =  1 */
(PID.TID 0000.0001)     ;
(PID.TID 0000.0001) dyC =  /* dyC(1,:,1,:) ( units: m ) */
(PID.TID 0000.0001)                 5.000000000000000E+03       /* J =  1 */
(PID.TID 0000.0001)     ;
(PID.TID 0000.0001) dxV =  /* dxV(:,1,:,1) ( units: m ) */
(PID.TID 0000.0001)                 5.000000000000000E+03       /* I =  1 */
(PID.TID 0000.0001)     ;
(PID.TID 0000.0001) dxV =  /* dxV(1,:,1,:) ( units: m ) */
(PID.TID 0000.0001)                 5.000000000000000E+03       /* J =  1 */
(PID.TID 0000.0001)     ;
(PID.TID 0000.0001) dyU =  /* dyU(:,1,:,1) ( units: m ) */
(PID.TID 0000.0001)                 5.000000000000000E+03       /* I =  1 */
(PID.TID 0000.0001)     ;
(PID.TID 0000.0001) dyU =  /* dyU(1,:,1,:) ( units: m ) */
(PID.TID 0000.0001)                 5.000000000000000E+03       /* J =  1 */
(PID.TID 0000.0001)     ;
(PID.TID 0000.0001) rA  =  /* rA (:,1,:,1) ( units: m^2 ) */
(PID.TID 0000.0001)                 2.500000000000000E+07       /* I =  1 */
(PID.TID 0000.0001)     ;
(PID.TID 0000.0001) rA  =  /* rA (1,:,1,:) ( units: m^2 ) */
(PID.TID 0000.0001)                 2.500000000000000E+07       /* J =  1 */
(PID.TID 0000.0001)     ;
(PID.TID 0000.0001) rAw =  /* rAw(:,1,:,1) ( units: m^2 ) */
(PID.TID 0000.0001)                 2.500000000000000E+07       /* I =  1 */
(PID.TID 0000.0001)     ;
(PID.TID 0000.0001) rAw =  /* rAw(1,:,1,:) ( units: m^2 ) */
(PID.TID 0000.0001)                 2.500000000000000E+07       /* J =  1 */
(PID.TID 0000.0001)     ;
(PID.TID 0000.0001) rAs =  /* rAs(:,1,:,1) ( units: m^2 ) */
(PID.TID 0000.0001)                 2.500000000000000E+07       /* I =  1 */
(PID.TID 0000.0001)     ;
(PID.TID 0000.0001) rAs =  /* rAs(1,:,1,:) ( units: m^2 ) */
(PID.TID 0000.0001)                 2.500000000000000E+07       /* J =  1 */
(PID.TID 0000.0001)     ;
(PID.TID 0000.0001) globalArea = /* Integrated horizontal Area (m^2) */
(PID.TID 0000.0001)                 2.500000000000000E+07
(PID.TID 0000.0001)     ;
(PID.TID 0000.0001) // =======================================================
(PID.TID 0000.0001) // End of Model config. summary
(PID.TID 0000.0001) // =======================================================
(PID.TID 0000.0001) 
(PID.TID 0000.0001) == Packages configuration : Check & print summary ==
(PID.TID 0000.0001) 
(PID.TID 0000.0001) KPP_CHECK: #define ALLOW_KPP
(PID.TID 0000.0001)  kpp_freq = /* frequency of KPP calculation */
(PID.TID 0000.0001)                 3.600000000000000E+03
(PID.TID 0000.0001)     ;
(PID.TID 0000.0001) KPP_ghatUseTotalDiffus= /* non-local term fct of total diffus */
(PID.TID 0000.0001)                   T
(PID.TID 0000.0001)     ;
(PID.TID 0000.0001) KPPuseDoubleDiff = /* include double diffusive contrib */
(PID.TID 0000.0001)                   F
(PID.TID 0000.0001)     ;
(PID.TID 0000.0001) KPPuseSWfrac3D = /* for light attenuation use SWfrac3D */
(PID.TID 0000.0001)                   T
(PID.TID 0000.0001)     ;
(PID.TID 0000.0001) LimitHblStable = /* limits depth of hbl if stable cond.*/
(PID.TID 0000.0001)                   T
(PID.TID 0000.0001)     ;
(PID.TID 0000.0001)  minKPPhbl = /* minimum KPPhbl value [m] */
(PID.TID 0000.0001)                 5.000000000000000E+00
(PID.TID 0000.0001)     ;
(PID.TID 0000.0001)  epsln     = /* constant [-] */
(PID.TID 0000.0001)                 9.999999999999999E-21
(PID.TID 0000.0001)     ;
(PID.TID 0000.0001)  phepsi    = /* constant [-] */
(PID.TID 0000.0001)                 1.000000000000000E-10
(PID.TID 0000.0001)     ;
(PID.TID 0000.0001)  epsilon   = /* constant [-] */
(PID.TID 0000.0001)                 1.000000000000000E-01
(PID.TID 0000.0001)     ;
(PID.TID 0000.0001)  vonk      = /* Von Karmans constant [-] */
(PID.TID 0000.0001)                 4.000000000000000E-01
(PID.TID 0000.0001)     ;
(PID.TID 0000.0001)  dB_dz     = /* maximum N^2 in mixed layer [s^-2] */
(PID.TID 0000.0001)                 5.200000000000000E-05
(PID.TID 0000.0001)     ;
(PID.TID 0000.0001)  conc1     = /* scalar constant [-] */
(PID.TID 0000.0001)                 5.000000000000000E+00
(PID.TID 0000.0001)     ;
(PID.TID 0000.0001)  conam     = /* scalar constant [-] */
(PID.TID 0000.0001)                 1.257000000000000E+00
(PID.TID 0000.0001)     ;
(PID.TID 0000.0001)  concm     = /* scalar constant [-] */
(PID.TID 0000.0001)                 8.380000000000001E+00
(PID.TID 0000.0001)     ;
(PID.TID 0000.0001)  conc2     = /* scalar constant [-] */
(PID.TID 0000.0001)                 1.600000000000000E+01
(PID.TID 0000.0001)     ;
(PID.TID 0000.0001)  conas     = /* scalar constant [-] */
(PID.TID 0000.0001)                -2.886000000000000E+01
(PID.TID 0000.0001)     ;
(PID.TID 0000.0001)  concs     = /* scalar constant [-] */
(PID.TID 0000.0001)                 9.895999999999999E+01
(PID.TID 0000.0001)     ;
(PID.TID 0000.0001)  conc3     = /* scalar constant [-] */
(PID.TID 0000.0001)                 1.600000000000000E+01
(PID.TID 0000.0001)     ;
(PID.TID 0000.0001)  zetam     = /* scalar constant [-] */
(PID.TID 0000.0001)                -2.000000000000000E-01
(PID.TID 0000.0001)     ;
(PID.TID 0000.0001)  zetas     = /* scalar constant [-] */
(PID.TID 0000.0001)                -1.000000000000000E+00
(PID.TID 0000.0001)     ;
(PID.TID 0000.0001)  Ricr      = /* critical bulk Richardson Number [-] */
(PID.TID 0000.0001)                 3.000000000000000E-01
(PID.TID 0000.0001)     ;
(PID.TID 0000.0001)  cekman    = /* coeff for Ekman depth [-] */
(PID.TID 0000.0001)                 7.000000000000000E-01
(PID.TID 0000.0001)     ;
(PID.TID 0000.0001)  cmonob    = /* coeff for Monin-Obukhov depth [-] */
(PID.TID 0000.0001)                 1.000000000000000E+00
(PID.TID 0000.0001)     ;
(PID.TID 0000.0001)  concv     = /* buoyancy freq ratio [-] */
(PID.TID 0000.0001)                 1.800000000000000E+00
(PID.TID 0000.0001)     ;
(PID.TID 0000.0001)  hbf       = /* solar radiation depth ratio [-] */
(PID.TID 0000.0001)                 1.000000000000000E+00
(PID.TID 0000.0001)     ;
(PID.TID 0000.0001)  zmin      = /* minimum for zehat in table [m3/s3] */
(PID.TID 0000.0001)                -4.000000000000000E-07
(PID.TID 0000.0001)     ;
(PID.TID 0000.0001)  zmax      = /* maximum for zehat in table [m3/s3] */
(PID.TID 0000.0001)                 0.000000000000000E+00
(PID.TID 0000.0001)     ;
(PID.TID 0000.0001)  umin      = /* minimum for ustar in table [m/s] */
(PID.TID 0000.0001)                 0.000000000000000E+00
(PID.TID 0000.0001)     ;
(PID.TID 0000.0001)  umax      = /* maximum for ustar in table [m/s] */
(PID.TID 0000.0001)                 4.000000000000000E-02
(PID.TID 0000.0001)     ;
(PID.TID 0000.0001) num_v_smooth_Ri = /* number of vertical smoothing */
(PID.TID 0000.0001)                       0
(PID.TID 0000.0001)     ;
(PID.TID 0000.0001)  Riinfty   = /* shear instability Ri number limit [-] */
(PID.TID 0000.0001)                 7.000000000000000E-01
(PID.TID 0000.0001)     ;
(PID.TID 0000.0001)  BVSQcon   = /* Brunt-Vaisala squared (=N^2) [s^-2] */
(PID.TID 0000.0001)                -2.000000000000000E-05
(PID.TID 0000.0001)     ;
(PID.TID 0000.0001)  difm0     = /* max viscosity from shear instab. [m2/s] */
(PID.TID 0000.0001)                 5.000000000000000E-03
(PID.TID 0000.0001)     ;
(PID.TID 0000.0001)  difs0     = /* max diffusiv. from shear instab. [m2/s] */
(PID.TID 0000.0001)                 5.000000000000000E-03
(PID.TID 0000.0001)     ;
(PID.TID 0000.0001)  dift0     = /* max diffusiv. from shear instab. [m2/s] */
(PID.TID 0000.0001)                 5.000000000000000E-03
(PID.TID 0000.0001)     ;
(PID.TID 0000.0001)  difmcon   = /* convective viscosity [m2/s] */
(PID.TID 0000.0001)                 1.000000000000000E-01
(PID.TID 0000.0001)     ;
(PID.TID 0000.0001)  difscon   = /* convective diffusiv. [m2/s] */
(PID.TID 0000.0001)                 1.000000000000000E-01
(PID.TID 0000.0001)     ;
(PID.TID 0000.0001)  diftcon   = /* convective diffusiv. [m2/s] */
(PID.TID 0000.0001)                 1.000000000000000E-01
(PID.TID 0000.0001)     ;
(PID.TID 0000.0001)  Rrho0     = /* double diffusion density ratio [-] */
(PID.TID 0000.0001)                 1.900000000000000E+00
(PID.TID 0000.0001)     ;
(PID.TID 0000.0001)  dsfmax    = /* max diffusiv. for salt fingering [m2/s] */
(PID.TID 0000.0001)                 1.000000000000000E-02
(PID.TID 0000.0001)     ;
(PID.TID 0000.0001)  cstar     = /* coeff for non-locak transport [-] */
(PID.TID 0000.0001)                 1.000000000000000E+01
(PID.TID 0000.0001)     ;
(PID.TID 0000.0001) KPPwriteState = /* write KPP fields to file */
(PID.TID 0000.0001)                   T
(PID.TID 0000.0001)     ;
(PID.TID 0000.0001)  kpp_dumpFreq = /* dump freq of KPP output */
(PID.TID 0000.0001)                 0.000000000000000E+00
(PID.TID 0000.0001)     ;
(PID.TID 0000.0001)  kpp_taveFreq = /* time-averaging freq of KPP output */
(PID.TID 0000.0001)                 0.000000000000000E+00
(PID.TID 0000.0001)     ;
(PID.TID 0000.0001) 
(PID.TID 0000.0001) EXF_CHECK: #define ALLOW_EXF
(PID.TID 0000.0001) SEAICE_CHECK: #define ALLOW_SEAICE
(PID.TID 0000.0001) CTRL_CHECK:  --> Starts to check CTRL set-up
(PID.TID 0000.0001) CTRL_CHECK:  <-- Ends Normally
(PID.TID 0000.0001) 
(PID.TID 0000.0001) COST_CHECK: #define ALLOW_COST
(PID.TID 0000.0001) ECCO_CHECK:  --> Starts to check ECCO set-up
(PID.TID 0000.0001) etagcm defined by gencost =  0
(PID.TID 0000.0001) 
(PID.TID 0000.0001) // =======================================================
(PID.TID 0000.0001) // ECCO configuration >>> START <<<
(PID.TID 0000.0001) // =======================================================
(PID.TID 0000.0001) 
(PID.TID 0000.0001) gencost( 1) = theta
(PID.TID 0000.0001) -------------
(PID.TID 0000.0001)  data file = t_ref_1x1x23x13
(PID.TID 0000.0001)  model file = m_theta_month
(PID.TID 0000.0001)  error file = t.err
(PID.TID 0000.0001)  gencost_flag =  1
(PID.TID 0000.0001)  gencost_outputlevel =  1
(PID.TID 0000.0001)  gencost_kLev_select =  1
(PID.TID 0000.0001)  gencost_pointer3d =  1
(PID.TID 0000.0001) 
(PID.TID 0000.0001) gencost( 2) = salt
(PID.TID 0000.0001) -------------
(PID.TID 0000.0001)  data file = s_ref_1x1x23x13
(PID.TID 0000.0001)  model file = m_salt_month
(PID.TID 0000.0001)  error file = s.err
(PID.TID 0000.0001)  gencost_flag =  1
(PID.TID 0000.0001)  gencost_outputlevel =  1
(PID.TID 0000.0001)  gencost_kLev_select =  1
(PID.TID 0000.0001)  gencost_pointer3d =  2
(PID.TID 0000.0001) 
(PID.TID 0000.0001) // =======================================================
(PID.TID 0000.0001) // ECCO configuration  >>> END <<<
(PID.TID 0000.0001) // =======================================================
(PID.TID 0000.0001) 
(PID.TID 0000.0001) ECCO_CHECK:  <-- Ends Normally
(PID.TID 0000.0001) 
(PID.TID 0000.0001) GRDCHK_CHECK: grdchk package
(PID.TID 0000.0001) 
(PID.TID 0000.0001) // =======================================================
(PID.TID 0000.0001) // Gradient check configuration  >>> START <<<
(PID.TID 0000.0001) // =======================================================
(PID.TID 0000.0001) 
(PID.TID 0000.0001)   grdchkvarindex :                      1
(PID.TID 0000.0001)   matching CTRL xx_file:       "xx_theta"
(PID.TID 0000.0001)   eps =                         1.000E-07
(PID.TID 0000.0001)   First location:                       0
(PID.TID 0000.0001)   Last location:                        3
(PID.TID 0000.0001)   Increment:                            1
(PID.TID 0000.0001)   grdchkWhichProc:                      0
(PID.TID 0000.0001)   iLocTile =      1 ,   jLocTile =      1
(PID.TID 0000.0001) 
(PID.TID 0000.0001) // =======================================================
(PID.TID 0000.0001) // Gradient check configuration  >>> END <<<
(PID.TID 0000.0001) // =======================================================
(PID.TID 0000.0001) 
(PID.TID 0000.0001) GAD_CHECK: #define ALLOW_GENERIC_ADVDIFF
(PID.TID 0000.0001) // =======================================================
(PID.TID 0000.0001) // Check Model config. (CONFIG_CHECK):
(PID.TID 0000.0001) // CONFIG_CHECK : Normal End
(PID.TID 0000.0001) // =======================================================
(PID.TID 0000.0001) 
(PID.TID 0000.0001) Start initial hydrostatic pressure computation
(PID.TID 0000.0001) Pressure is predetermined for buoyancyRelation OCEANIC
(PID.TID 0000.0001) 
(PID.TID 0000.0001) // =======================================================
(PID.TID 0000.0001) // Begin MONITOR dynamic field statistics
(PID.TID 0000.0001) // =======================================================
(PID.TID 0000.0001) %MON time_tsnumber                =                     0
(PID.TID 0000.0001) %MON time_secondsf                =   0.0000000000000E+00
(PID.TID 0000.0001) %MON dynstat_eta_max              =   0.0000000000000E+00
(PID.TID 0000.0001) %MON dynstat_eta_min              =   0.0000000000000E+00
(PID.TID 0000.0001) %MON dynstat_eta_mean             =   0.0000000000000E+00
(PID.TID 0000.0001) %MON dynstat_eta_sd               =   0.0000000000000E+00
(PID.TID 0000.0001) %MON dynstat_eta_del2             =   0.0000000000000E+00
(PID.TID 0000.0001) %MON dynstat_uvel_max             =   0.0000000000000E+00
(PID.TID 0000.0001) %MON dynstat_uvel_min             =   0.0000000000000E+00
(PID.TID 0000.0001) %MON dynstat_uvel_mean            =   0.0000000000000E+00
(PID.TID 0000.0001) %MON dynstat_uvel_sd              =   0.0000000000000E+00
(PID.TID 0000.0001) %MON dynstat_uvel_del2            =   0.0000000000000E+00
(PID.TID 0000.0001) %MON dynstat_vvel_max             =   0.0000000000000E+00
(PID.TID 0000.0001) %MON dynstat_vvel_min             =   0.0000000000000E+00
(PID.TID 0000.0001) %MON dynstat_vvel_mean            =   0.0000000000000E+00
(PID.TID 0000.0001) %MON dynstat_vvel_sd              =   0.0000000000000E+00
(PID.TID 0000.0001) %MON dynstat_vvel_del2            =   0.0000000000000E+00
(PID.TID 0000.0001) %MON dynstat_wvel_max             =  -0.0000000000000E+00
(PID.TID 0000.0001) %MON dynstat_wvel_min             =  -0.0000000000000E+00
(PID.TID 0000.0001) %MON dynstat_wvel_mean            =   0.0000000000000E+00
(PID.TID 0000.0001) %MON dynstat_wvel_sd              =   0.0000000000000E+00
(PID.TID 0000.0001) %MON dynstat_wvel_del2            =   0.0000000000000E+00
(PID.TID 0000.0001) %MON dynstat_theta_max            =   5.0000000000000E-01
(PID.TID 0000.0001) %MON dynstat_theta_min            =  -1.9320000000000E+00
(PID.TID 0000.0001) %MON dynstat_theta_mean           =  -4.2392549585006E-01
(PID.TID 0000.0001) %MON dynstat_theta_sd             =   8.7853912549962E-01
(PID.TID 0000.0001) %MON dynstat_theta_del2           =   0.0000000000000E+00
(PID.TID 0000.0001) %MON dynstat_salt_max             =   3.4800000000000E+01
(PID.TID 0000.0001) %MON dynstat_salt_min             =   2.9007900000000E+01
(PID.TID 0000.0001) %MON dynstat_salt_mean            =   3.3593044460897E+01
(PID.TID 0000.0001) %MON dynstat_salt_sd              =   1.6851473101234E+00
(PID.TID 0000.0001) %MON dynstat_salt_del2            =   0.0000000000000E+00
(PID.TID 0000.0001) %MON dynstat_sst_max              =  -1.9300000000000E+00
(PID.TID 0000.0001) %MON dynstat_sst_min              =  -1.9300000000000E+00
(PID.TID 0000.0001) %MON dynstat_sst_mean             =  -1.9300000000000E+00
(PID.TID 0000.0001) %MON dynstat_sst_sd               =   0.0000000000000E+00
(PID.TID 0000.0001) %MON dynstat_sst_del2             =   0.0000000000000E+00
(PID.TID 0000.0001) %MON dynstat_sss_max              =   2.9007900000000E+01
(PID.TID 0000.0001) %MON dynstat_sss_min              =   2.9007900000000E+01
(PID.TID 0000.0001) %MON dynstat_sss_mean             =   2.9007900000000E+01
(PID.TID 0000.0001) %MON dynstat_sss_sd               =   0.0000000000000E+00
(PID.TID 0000.0001) %MON dynstat_sss_del2             =   0.0000000000000E+00
(PID.TID 0000.0001) %MON forcing_qnet_max             =   0.0000000000000E+00
(PID.TID 0000.0001) %MON forcing_qnet_min             =   0.0000000000000E+00
(PID.TID 0000.0001) %MON forcing_qnet_mean            =   0.0000000000000E+00
(PID.TID 0000.0001) %MON forcing_qnet_sd              =   0.0000000000000E+00
(PID.TID 0000.0001) %MON forcing_qnet_del2            =   0.0000000000000E+00
(PID.TID 0000.0001) %MON forcing_qsw_max              =   0.0000000000000E+00
(PID.TID 0000.0001) %MON forcing_qsw_min              =   0.0000000000000E+00
(PID.TID 0000.0001) %MON forcing_qsw_mean             =   0.0000000000000E+00
(PID.TID 0000.0001) %MON forcing_qsw_sd               =   0.0000000000000E+00
(PID.TID 0000.0001) %MON forcing_qsw_del2             =   0.0000000000000E+00
(PID.TID 0000.0001) %MON forcing_empmr_max            =   0.0000000000000E+00
(PID.TID 0000.0001) %MON forcing_empmr_min            =   0.0000000000000E+00
(PID.TID 0000.0001) %MON forcing_empmr_mean           =   0.0000000000000E+00
(PID.TID 0000.0001) %MON forcing_empmr_sd             =   0.0000000000000E+00
(PID.TID 0000.0001) %MON forcing_empmr_del2           =   0.0000000000000E+00
(PID.TID 0000.0001) %MON forcing_fu_max               =   0.0000000000000E+00
(PID.TID 0000.0001) %MON forcing_fu_min               =   0.0000000000000E+00
(PID.TID 0000.0001) %MON forcing_fu_mean              =   0.0000000000000E+00
(PID.TID 0000.0001) %MON forcing_fu_sd                =   0.0000000000000E+00
(PID.TID 0000.0001) %MON forcing_fu_del2              =   0.0000000000000E+00
(PID.TID 0000.0001) %MON forcing_fv_max               =   0.0000000000000E+00
(PID.TID 0000.0001) %MON forcing_fv_min               =   0.0000000000000E+00
(PID.TID 0000.0001) %MON forcing_fv_mean              =   0.0000000000000E+00
(PID.TID 0000.0001) %MON forcing_fv_sd                =   0.0000000000000E+00
(PID.TID 0000.0001) %MON forcing_fv_del2              =   0.0000000000000E+00
(PID.TID 0000.0001) %MON trAdv_CFL_u_max              =   0.0000000000000E+00
(PID.TID 0000.0001) %MON trAdv_CFL_v_max              =   0.0000000000000E+00
(PID.TID 0000.0001) %MON trAdv_CFL_w_max              =   0.0000000000000E+00
(PID.TID 0000.0001) %MON advcfl_uvel_max              =   0.0000000000000E+00
(PID.TID 0000.0001) %MON advcfl_vvel_max              =   0.0000000000000E+00
(PID.TID 0000.0001) %MON advcfl_wvel_max              =   0.0000000000000E+00
(PID.TID 0000.0001) %MON advcfl_W_hf_max              =   0.0000000000000E+00
(PID.TID 0000.0001) %MON pe_b_mean                    =   0.0000000000000E+00
(PID.TID 0000.0001) %MON ke_max                       =   0.0000000000000E+00
(PID.TID 0000.0001) %MON ke_mean                      =   0.0000000000000E+00
(PID.TID 0000.0001) %MON ke_vol                       =   1.2831500000000E+10
(PID.TID 0000.0001) %MON vort_r_min                   =   0.0000000000000E+00
(PID.TID 0000.0001) %MON vort_r_max                   =   0.0000000000000E+00
(PID.TID 0000.0001) %MON vort_a_mean                  =   1.0000000000000E-04
(PID.TID 0000.0001) %MON vort_a_sd                    =   0.0000000000000E+00
(PID.TID 0000.0001) %MON vort_p_mean                  =   1.0000000000000E-04
(PID.TID 0000.0001) %MON vort_p_sd                    =   0.0000000000000E+00
(PID.TID 0000.0001) %MON surfExpan_theta_mean         =   0.0000000000000E+00
(PID.TID 0000.0001) %MON surfExpan_salt_mean          =   0.0000000000000E+00
(PID.TID 0000.0001) // =======================================================
(PID.TID 0000.0001) // End MONITOR dynamic field statistics
(PID.TID 0000.0001) // =======================================================
(PID.TID 0000.0001) // =======================================================
(PID.TID 0000.0001) // Begin MONITOR SEAICE statistics
(PID.TID 0000.0001) // =======================================================
(PID.TID 0000.0001) %MON seaice_tsnumber              =                     0
(PID.TID 0000.0001) %MON seaice_time_sec              =   0.0000000000000E+00
(PID.TID 0000.0001) %MON seaice_area_max              =   0.0000000000000E+00
(PID.TID 0000.0001) %MON seaice_area_min              =   0.0000000000000E+00
(PID.TID 0000.0001) %MON seaice_area_mean             =   0.0000000000000E+00
(PID.TID 0000.0001) %MON seaice_area_sd               =   0.0000000000000E+00
(PID.TID 0000.0001) %MON seaice_area_del2             =   0.0000000000000E+00
(PID.TID 0000.0001) %MON seaice_heff_max              =   0.0000000000000E+00
(PID.TID 0000.0001) %MON seaice_heff_min              =   0.0000000000000E+00
(PID.TID 0000.0001) %MON seaice_heff_mean             =   0.0000000000000E+00
(PID.TID 0000.0001) %MON seaice_heff_sd               =   0.0000000000000E+00
(PID.TID 0000.0001) %MON seaice_heff_del2             =   0.0000000000000E+00
(PID.TID 0000.0001) %MON seaice_hsnow_max             =   0.0000000000000E+00
(PID.TID 0000.0001) %MON seaice_hsnow_min             =   0.0000000000000E+00
(PID.TID 0000.0001) %MON seaice_hsnow_mean            =   0.0000000000000E+00
(PID.TID 0000.0001) %MON seaice_hsnow_sd              =   0.0000000000000E+00
(PID.TID 0000.0001) %MON seaice_hsnow_del2            =   0.0000000000000E+00
(PID.TID 0000.0001) %MON seaice_hsalt_max             =   0.0000000000000E+00
(PID.TID 0000.0001) %MON seaice_hsalt_min             =   0.0000000000000E+00
(PID.TID 0000.0001) %MON seaice_hsalt_mean            =   0.0000000000000E+00
(PID.TID 0000.0001) %MON seaice_hsalt_sd              =   0.0000000000000E+00
(PID.TID 0000.0001) %MON seaice_hsalt_del2            =   0.0000000000000E+00
(PID.TID 0000.0001) // =======================================================
(PID.TID 0000.0001) // End MONITOR SEAICE statistics
(PID.TID 0000.0001) // =======================================================
(PID.TID 0000.0001) whio : write lev 3 rec   1
(PID.TID 0000.0001) // =======================================================
(PID.TID 0000.0001) // Begin MONITOR EXF statistics
(PID.TID 0000.0001) // =======================================================
(PID.TID 0000.0001) %MON exf_tsnumber                 =                     0
(PID.TID 0000.0001) %MON exf_time_sec                 =   0.0000000000000E+00
(PID.TID 0000.0001) %MON exf_ustress_max              =   5.9520928469939E-03
(PID.TID 0000.0001) %MON exf_ustress_min              =   5.9520928469939E-03
(PID.TID 0000.0001) %MON exf_ustress_mean             =   5.9520928469939E-03
(PID.TID 0000.0001) %MON exf_ustress_sd               =   8.6736173798840E-19
(PID.TID 0000.0001) %MON exf_ustress_del2             =   0.0000000000000E+00
(PID.TID 0000.0001) %MON exf_vstress_max              =   5.9520928469939E-03
(PID.TID 0000.0001) %MON exf_vstress_min              =   5.9520928469939E-03
(PID.TID 0000.0001) %MON exf_vstress_mean             =   5.9520928469939E-03
(PID.TID 0000.0001) %MON exf_vstress_sd               =   8.6736173798840E-19
(PID.TID 0000.0001) %MON exf_vstress_del2             =   0.0000000000000E+00
(PID.TID 0000.0001) %MON exf_hflux_max                =   2.3771234124791E+02
(PID.TID 0000.0001) %MON exf_hflux_min                =   2.3771234124791E+02
(PID.TID 0000.0001) %MON exf_hflux_mean               =   2.3771234124791E+02
(PID.TID 0000.0001) %MON exf_hflux_sd                 =   0.0000000000000E+00
(PID.TID 0000.0001) %MON exf_hflux_del2               =   6.7235203387250E+02
(PID.TID 0000.0001) %MON exf_sflux_max                =   2.0657967531776E-08
(PID.TID 0000.0001) %MON exf_sflux_min                =   2.0657967531776E-08
(PID.TID 0000.0001) %MON exf_sflux_mean               =   2.0657967531776E-08
(PID.TID 0000.0001) %MON exf_sflux_sd                 =   0.0000000000000E+00
(PID.TID 0000.0001) %MON exf_sflux_del2               =   5.8429555709000E-08
(PID.TID 0000.0001) %MON exf_uwind_max                =   1.0000000000000E+00
(PID.TID 0000.0001) %MON exf_uwind_min                =   1.0000000000000E+00
(PID.TID 0000.0001) %MON exf_uwind_mean               =   1.0000000000000E+00
(PID.TID 0000.0001) %MON exf_uwind_sd                 =   0.0000000000000E+00
(PID.TID 0000.0001) %MON exf_uwind_del2               =   2.8284271247462E+00
(PID.TID 0000.0001) %MON exf_vwind_max                =   1.0000000000000E+00
(PID.TID 0000.0001) %MON exf_vwind_min                =   1.0000000000000E+00
(PID.TID 0000.0001) %MON exf_vwind_mean               =   1.0000000000000E+00
(PID.TID 0000.0001) %MON exf_vwind_sd                 =   0.0000000000000E+00
(PID.TID 0000.0001) %MON exf_vwind_del2               =   2.8284271247462E+00
(PID.TID 0000.0001) %MON exf_wspeed_max               =   1.4142135623731E+00
(PID.TID 0000.0001) %MON exf_wspeed_min               =   1.4142135623731E+00
(PID.TID 0000.0001) %MON exf_wspeed_mean              =   1.4142135623731E+00
(PID.TID 0000.0001) %MON exf_wspeed_sd                =   0.0000000000000E+00
(PID.TID 0000.0001) %MON exf_wspeed_del2              =   4.0000000000000E+00
(PID.TID 0000.0001) %MON exf_atemp_max                =   2.5300109100342E+02
(PID.TID 0000.0001) %MON exf_atemp_min                =   2.5300109100342E+02
(PID.TID 0000.0001) %MON exf_atemp_mean               =   2.5300109100342E+02
(PID.TID 0000.0001) %MON exf_atemp_sd                 =   0.0000000000000E+00
(PID.TID 0000.0001) %MON exf_atemp_del2               =   5.7018005011223E+01
(PID.TID 0000.0001) %MON exf_lwflux_max               =   1.0645410928315E+02
(PID.TID 0000.0001) %MON exf_lwflux_min               =   1.0645410928315E+02
(PID.TID 0000.0001) %MON exf_lwflux_mean              =   1.0645410928315E+02
(PID.TID 0000.0001) %MON exf_lwflux_sd                =   0.0000000000000E+00
(PID.TID 0000.0001) %MON exf_lwflux_del2              =   3.0109769023715E+02
(PID.TID 0000.0001) %MON exf_evap_max                 =   2.0657967531776E-08
(PID.TID 0000.0001) %MON exf_evap_min                 =   2.0657967531776E-08
(PID.TID 0000.0001) %MON exf_evap_mean                =   2.0657967531776E-08
(PID.TID 0000.0001) %MON exf_evap_sd                  =   0.0000000000000E+00
(PID.TID 0000.0001) %MON exf_evap_del2                =   5.8429555709000E-08
(PID.TID 0000.0001) %MON exf_swflux_max               =  -1.9420749807358E+01
(PID.TID 0000.0001) %MON exf_swflux_min               =  -1.9420749807358E+01
(PID.TID 0000.0001) %MON exf_swflux_mean              =  -1.9420749807358E+01
(PID.TID 0000.0001) %MON exf_swflux_sd                =   0.0000000000000E+00
(PID.TID 0000.0001) %MON exf_swflux_del2              =   5.4930175538040E+01
(PID.TID 0000.0001) %MON exf_swdown_max               =   2.1578610897064E+01
(PID.TID 0000.0001) %MON exf_swdown_min               =   2.1578610897064E+01
(PID.TID 0000.0001) %MON exf_swdown_mean              =   2.1578610897064E+01
(PID.TID 0000.0001) %MON exf_swdown_sd                =   0.0000000000000E+00
(PID.TID 0000.0001) %MON exf_swdown_del2              =   6.1033528375600E+01
(PID.TID 0000.0001) %MON exf_lwdown_max               =   1.9115727233887E+02
(PID.TID 0000.0001) %MON exf_lwdown_min               =   1.9115727233887E+02
(PID.TID 0000.0001) %MON exf_lwdown_mean              =   1.9115727233887E+02
(PID.TID 0000.0001) %MON exf_lwdown_sd                =   0.0000000000000E+00
(PID.TID 0000.0001) %MON exf_lwdown_del2              =   5.4067441417575E+02
(PID.TID 0000.0001) // =======================================================
(PID.TID 0000.0001) // End MONITOR EXF statistics
(PID.TID 0000.0001) // =======================================================
 ph-ice B            0  -1.9299999999999999        3.1916247108025107E-003   1.5958123554012554E-003
 ph-ice C            0   7978.8401425578732     
(PID.TID 0000.0001) SOLVE_FOR_PRESSURE: putPmEinXvector =    F
 cg2d: Sum(rhs),rhsMax =   1.00000000000000E+00  5.58645366562891E-06
(PID.TID 0000.0001)      cg2d_init_res =   1.00000000000000E+00
(PID.TID 0000.0001)      cg2d_iters(min,last) =      -1       1
(PID.TID 0000.0001)      cg2d_last_res =   1.11022302462516E-16
(PID.TID 0000.0001) // =======================================================
(PID.TID 0000.0001) // Begin MONITOR dynamic field statistics
(PID.TID 0000.0001) // =======================================================
(PID.TID 0000.0001) %MON time_tsnumber                =                     1
(PID.TID 0000.0001) %MON time_secondsf                =   3.6000000000000E+03
(PID.TID 0000.0001) %MON dynstat_eta_max              =  -1.4864099832467E-03
(PID.TID 0000.0001) %MON dynstat_eta_min              =  -1.4864099832467E-03
(PID.TID 0000.0001) %MON dynstat_eta_mean             =  -1.4864099832467E-03
(PID.TID 0000.0001) %MON dynstat_eta_sd               =   0.0000000000000E+00
(PID.TID 0000.0001) %MON dynstat_eta_del2             =   0.0000000000000E+00
(PID.TID 0000.0001) %MON dynstat_uvel_max             =   1.4545624427448E-03
(PID.TID 0000.0001) %MON dynstat_uvel_min             =   1.6617788009547E-71
(PID.TID 0000.0001) %MON dynstat_uvel_mean            =   4.0650354258764E-05
(PID.TID 0000.0001) %MON dynstat_uvel_sd              =   2.1109624992349E-04
(PID.TID 0000.0001) %MON dynstat_uvel_del2            =   0.0000000000000E+00
(PID.TID 0000.0001) %MON dynstat_vvel_max             =   1.4545624427448E-03
(PID.TID 0000.0001) %MON dynstat_vvel_min             =   1.6617788009547E-71
(PID.TID 0000.0001) %MON dynstat_vvel_mean            =   4.0650354258764E-05
(PID.TID 0000.0001) %MON dynstat_vvel_sd              =   2.1109624992349E-04
(PID.TID 0000.0001) %MON dynstat_vvel_del2            =   0.0000000000000E+00
(PID.TID 0000.0001) %MON dynstat_wvel_max             =  -0.0000000000000E+00
(PID.TID 0000.0001) %MON dynstat_wvel_min             =  -0.0000000000000E+00
(PID.TID 0000.0001) %MON dynstat_wvel_mean            =   0.0000000000000E+00
(PID.TID 0000.0001) %MON dynstat_wvel_sd              =   0.0000000000000E+00
(PID.TID 0000.0001) %MON dynstat_wvel_del2            =   0.0000000000000E+00
(PID.TID 0000.0001) %MON dynstat_theta_max            =   4.9999999999901E-01
(PID.TID 0000.0001) %MON dynstat_theta_min            =  -1.9277401192852E+00
(PID.TID 0000.0001) %MON dynstat_theta_mean           =  -4.2410194369038E-01
(PID.TID 0000.0001) %MON dynstat_theta_sd             =   8.7835102688968E-01
(PID.TID 0000.0001) %MON dynstat_theta_del2           =   0.0000000000000E+00
(PID.TID 0000.0001) %MON dynstat_salt_max             =   3.4800000000000E+01
(PID.TID 0000.0001) %MON dynstat_salt_min             =   2.9009178193889E+01
(PID.TID 0000.0001) %MON dynstat_salt_mean            =   3.3593104493601E+01
(PID.TID 0000.0001) %MON dynstat_salt_sd              =   1.6849810426375E+00
(PID.TID 0000.0001) %MON dynstat_salt_del2            =   0.0000000000000E+00
(PID.TID 0000.0001) %MON dynstat_sst_max              =  -1.9277401192852E+00
(PID.TID 0000.0001) %MON dynstat_sst_min              =  -1.9277401192852E+00
(PID.TID 0000.0001) %MON dynstat_sst_mean             =  -1.9277401192852E+00
(PID.TID 0000.0001) %MON dynstat_sst_sd               =   0.0000000000000E+00
(PID.TID 0000.0001) %MON dynstat_sst_del2             =   0.0000000000000E+00
(PID.TID 0000.0001) %MON dynstat_sss_max              =   2.9009178193889E+01
(PID.TID 0000.0001) %MON dynstat_sss_min              =   2.9009178193889E+01
(PID.TID 0000.0001) %MON dynstat_sss_mean             =   2.9009178193889E+01
(PID.TID 0000.0001) %MON dynstat_sss_sd               =   0.0000000000000E+00
(PID.TID 0000.0001) %MON dynstat_sss_del2             =   0.0000000000000E+00
(PID.TID 0000.0001) %MON forcing_qnet_max             =   1.0298145033106E+02
(PID.TID 0000.0001) %MON forcing_qnet_min             =   1.0298145033106E+02
(PID.TID 0000.0001) %MON forcing_qnet_mean            =   1.0298145033106E+02
(PID.TID 0000.0001) %MON forcing_qnet_sd              =   0.0000000000000E+00
(PID.TID 0000.0001) %MON forcing_qnet_del2            =   0.0000000000000E+00
(PID.TID 0000.0001) %MON forcing_qsw_max              =  -1.9420749807358E+01
(PID.TID 0000.0001) %MON forcing_qsw_min              =  -1.9420749807358E+01
(PID.TID 0000.0001) %MON forcing_qsw_mean             =  -1.9420749807358E+01
(PID.TID 0000.0001) %MON forcing_qsw_sd               =   0.0000000000000E+00
(PID.TID 0000.0001) %MON forcing_qsw_del2             =   0.0000000000000E+00
(PID.TID 0000.0001) %MON forcing_empmr_max            =   4.2403973688692E-04
(PID.TID 0000.0001) %MON forcing_empmr_min            =   4.2403973688692E-04
(PID.TID 0000.0001) %MON forcing_empmr_mean           =   4.2403973688692E-04
(PID.TID 0000.0001) %MON forcing_empmr_sd             =   0.0000000000000E+00
(PID.TID 0000.0001) %MON forcing_empmr_del2           =   0.0000000000000E+00
(PID.TID 0000.0001) %MON forcing_fu_max               =   5.9520928469939E-03
(PID.TID 0000.0001) %MON forcing_fu_min               =   5.9520928469939E-03
(PID.TID 0000.0001) %MON forcing_fu_mean              =   5.9520928469939E-03
(PID.TID 0000.0001) %MON forcing_fu_sd                =   8.6736173798840E-19
(PID.TID 0000.0001) %MON forcing_fu_del2              =   0.0000000000000E+00
(PID.TID 0000.0001) %MON forcing_fv_max               =   5.9520928469939E-03
(PID.TID 0000.0001) %MON forcing_fv_min               =   5.9520928469939E-03
(PID.TID 0000.0001) %MON forcing_fv_mean              =   5.9520928469939E-03
(PID.TID 0000.0001) %MON forcing_fv_sd                =   8.6736173798840E-19
(PID.TID 0000.0001) %MON forcing_fv_del2              =   0.0000000000000E+00
(PID.TID 0000.0001) %MON trAdv_CFL_u_max              =   1.0472849587763E-03
(PID.TID 0000.0001) %MON trAdv_CFL_v_max              =   1.0472849587763E-03
(PID.TID 0000.0001) %MON trAdv_CFL_w_max              =   0.0000000000000E+00
(PID.TID 0000.0001) %MON advcfl_uvel_max              =   1.0472849587763E-03
(PID.TID 0000.0001) %MON advcfl_vvel_max              =   1.0472849587763E-03
(PID.TID 0000.0001) %MON advcfl_wvel_max              =   0.0000000000000E+00
(PID.TID 0000.0001) %MON advcfl_W_hf_max              =   0.0000000000000E+00
(PID.TID 0000.0001) %MON pe_b_mean                    =  -1.9068430839747E-08
(PID.TID 0000.0001) %MON ke_max                       =   2.1157518998437E-06
(PID.TID 0000.0001) %MON ke_mean                      =   4.6214078033125E-08
(PID.TID 0000.0001) %MON ke_vol                       =   1.2831500000000E+10
(PID.TID 0000.0001) %MON vort_r_min                   =   0.0000000000000E+00
(PID.TID 0000.0001) %MON vort_r_max                   =   0.0000000000000E+00
(PID.TID 0000.0001) %MON vort_a_mean                  =   1.0000000000000E-04
(PID.TID 0000.0001) %MON vort_a_sd                    =   0.0000000000000E+00
(PID.TID 0000.0001) %MON vort_p_mean                  =   1.0000000000000E-04
(PID.TID 0000.0001) %MON vort_p_sd                    =   0.0000000000000E+00
(PID.TID 0000.0001) %MON surfExpan_theta_mean         =   0.0000000000000E+00
(PID.TID 0000.0001) %MON surfExpan_salt_mean          =   0.0000000000000E+00
(PID.TID 0000.0001) // =======================================================
(PID.TID 0000.0001) // End MONITOR dynamic field statistics
(PID.TID 0000.0001) // =======================================================
(PID.TID 0000.0001) // =======================================================
(PID.TID 0000.0001) // Begin MONITOR SEAICE statistics
(PID.TID 0000.0001) // =======================================================
(PID.TID 0000.0001) %MON seaice_tsnumber              =                     1
(PID.TID 0000.0001) %MON seaice_time_sec              =   3.6000000000000E+03
(PID.TID 0000.0001) %MON seaice_area_max              =   3.1916247108025E-03
(PID.TID 0000.0001) %MON seaice_area_min              =   3.1916247108025E-03
(PID.TID 0000.0001) %MON seaice_area_mean             =   3.1916247108025E-03
(PID.TID 0000.0001) %MON seaice_area_sd               =   0.0000000000000E+00
(PID.TID 0000.0001) %MON seaice_area_del2             =   0.0000000000000E+00
(PID.TID 0000.0001) %MON seaice_heff_max              =   1.5958123554013E-03
(PID.TID 0000.0001) %MON seaice_heff_min              =   1.5958123554013E-03
(PID.TID 0000.0001) %MON seaice_heff_mean             =   1.5958123554013E-03
(PID.TID 0000.0001) %MON seaice_heff_sd               =   0.0000000000000E+00
(PID.TID 0000.0001) %MON seaice_heff_del2             =   0.0000000000000E+00
(PID.TID 0000.0001) %MON seaice_hsnow_max             =   0.0000000000000E+00
(PID.TID 0000.0001) %MON seaice_hsnow_min             =   0.0000000000000E+00
(PID.TID 0000.0001) %MON seaice_hsnow_mean            =   0.0000000000000E+00
(PID.TID 0000.0001) %MON seaice_hsnow_sd              =   0.0000000000000E+00
(PID.TID 0000.0001) %MON seaice_hsnow_del2            =   0.0000000000000E+00
(PID.TID 0000.0001) %MON seaice_hsalt_max             =   1.2637488106219E+01
(PID.TID 0000.0001) %MON seaice_hsalt_min             =   1.2637488106219E+01
(PID.TID 0000.0001) %MON seaice_hsalt_mean            =   1.2637488106219E+01
(PID.TID 0000.0001) %MON seaice_hsalt_sd              =   0.0000000000000E+00
(PID.TID 0000.0001) %MON seaice_hsalt_del2            =   0.0000000000000E+00
(PID.TID 0000.0001) // =======================================================
(PID.TID 0000.0001) // End MONITOR SEAICE statistics
(PID.TID 0000.0001) // =======================================================
(PID.TID 0000.0001) // =======================================================
(PID.TID 0000.0001) // Begin MONITOR EXF statistics
(PID.TID 0000.0001) // =======================================================
(PID.TID 0000.0001) %MON exf_tsnumber                 =                     1
(PID.TID 0000.0001) %MON exf_time_sec                 =   3.6000000000000E+03
(PID.TID 0000.0001) %MON exf_ustress_max              =   5.9519874353662E-03
(PID.TID 0000.0001) %MON exf_ustress_min              =   5.9519874353662E-03
(PID.TID 0000.0001) %MON exf_ustress_mean             =   5.9519874353662E-03
(PID.TID 0000.0001) %MON exf_ustress_sd               =   0.0000000000000E+00
(PID.TID 0000.0001) %MON exf_ustress_del2             =   0.0000000000000E+00
(PID.TID 0000.0001) %MON exf_vstress_max              =   5.9519874353662E-03
(PID.TID 0000.0001) %MON exf_vstress_min              =   5.9519874353662E-03
(PID.TID 0000.0001) %MON exf_vstress_mean             =   5.9519874353662E-03
(PID.TID 0000.0001) %MON exf_vstress_sd               =   0.0000000000000E+00
(PID.TID 0000.0001) %MON exf_vstress_del2             =   0.0000000000000E+00
(PID.TID 0000.0001) %MON exf_hflux_max                =   2.3765059953604E+02
(PID.TID 0000.0001) %MON exf_hflux_min                =   2.3765059953604E+02
(PID.TID 0000.0001) %MON exf_hflux_mean               =   2.3765059953604E+02
(PID.TID 0000.0001) %MON exf_hflux_sd                 =   0.0000000000000E+00
(PID.TID 0000.0001) %MON exf_hflux_del2               =   6.7217740193993E+02
(PID.TID 0000.0001) %MON exf_sflux_max                =   2.0660670803051E-08
(PID.TID 0000.0001) %MON exf_sflux_min                =   2.0660670803051E-08
(PID.TID 0000.0001) %MON exf_sflux_mean               =   2.0660670803051E-08
(PID.TID 0000.0001) %MON exf_sflux_sd                 =   0.0000000000000E+00
(PID.TID 0000.0001) %MON exf_sflux_del2               =   5.8437201714800E-08
(PID.TID 0000.0001) %MON exf_uwind_max                =   1.0000000000000E+00
(PID.TID 0000.0001) %MON exf_uwind_min                =   1.0000000000000E+00
(PID.TID 0000.0001) %MON exf_uwind_mean               =   1.0000000000000E+00
(PID.TID 0000.0001) %MON exf_uwind_sd                 =   0.0000000000000E+00
(PID.TID 0000.0001) %MON exf_uwind_del2               =   0.0000000000000E+00
(PID.TID 0000.0001) %MON exf_vwind_max                =   1.0000000000000E+00
(PID.TID 0000.0001) %MON exf_vwind_min                =   1.0000000000000E+00
(PID.TID 0000.0001) %MON exf_vwind_mean               =   1.0000000000000E+00
(PID.TID 0000.0001) %MON exf_vwind_sd                 =   0.0000000000000E+00
(PID.TID 0000.0001) %MON exf_vwind_del2               =   0.0000000000000E+00
(PID.TID 0000.0001) %MON exf_wspeed_max               =   1.4142135623731E+00
(PID.TID 0000.0001) %MON exf_wspeed_min               =   1.4142135623731E+00
(PID.TID 0000.0001) %MON exf_wspeed_mean              =   1.4142135623731E+00
(PID.TID 0000.0001) %MON exf_wspeed_sd                =   0.0000000000000E+00
(PID.TID 0000.0001) %MON exf_wspeed_del2              =   4.0000000000000E+00
(PID.TID 0000.0001) %MON exf_atemp_max                =   2.5300548934937E+02
(PID.TID 0000.0001) %MON exf_atemp_min                =   2.5300548934937E+02
(PID.TID 0000.0001) %MON exf_atemp_mean               =   2.5300548934937E+02
(PID.TID 0000.0001) %MON exf_atemp_sd                 =   0.0000000000000E+00
(PID.TID 0000.0001) %MON exf_atemp_del2               =   5.7005564610241E+01
(PID.TID 0000.0001) %MON exf_lwflux_max               =   1.0643446971386E+02
(PID.TID 0000.0001) %MON exf_lwflux_min               =   1.0643446971386E+02
(PID.TID 0000.0001) %MON exf_lwflux_mean              =   1.0643446971386E+02
(PID.TID 0000.0001) %MON exf_lwflux_sd                =   1.4210854715202E-14
(PID.TID 0000.0001) %MON exf_lwflux_del2              =   3.0104214114665E+02
(PID.TID 0000.0001) %MON exf_evap_max                 =   2.0660670803051E-08
(PID.TID 0000.0001) %MON exf_evap_min                 =   2.0660670803051E-08
(PID.TID 0000.0001) %MON exf_evap_mean                =   2.0660670803051E-08
(PID.TID 0000.0001) %MON exf_evap_sd                  =   0.0000000000000E+00
(PID.TID 0000.0001) %MON exf_evap_del2                =   5.8437201714800E-08
(PID.TID 0000.0001) %MON exf_swflux_max               =  -1.9455544352531E+01
(PID.TID 0000.0001) %MON exf_swflux_min               =  -1.9455544352531E+01
(PID.TID 0000.0001) %MON exf_swflux_mean              =  -1.9455544352531E+01
(PID.TID 0000.0001) %MON exf_swflux_sd                =   0.0000000000000E+00
(PID.TID 0000.0001) %MON exf_swflux_del2              =   5.5028589373402E+01
(PID.TID 0000.0001) %MON exf_swdown_max               =   2.1617271502813E+01
(PID.TID 0000.0001) %MON exf_swdown_min               =   2.1617271502813E+01
(PID.TID 0000.0001) %MON exf_swdown_mean              =   2.1617271502813E+01
(PID.TID 0000.0001) %MON exf_swdown_sd                =   0.0000000000000E+00
(PID.TID 0000.0001) %MON exf_swdown_del2              =   6.1142877081558E+01
(PID.TID 0000.0001) %MON exf_lwdown_max               =   1.9118683115641E+02
(PID.TID 0000.0001) %MON exf_lwdown_min               =   1.9118683115641E+02
(PID.TID 0000.0001) %MON exf_lwdown_mean              =   1.9118683115641E+02
(PID.TID 0000.0001) %MON exf_lwdown_sd                =   0.0000000000000E+00
(PID.TID 0000.0001) %MON exf_lwdown_del2              =   5.4075801913707E+02
(PID.TID 0000.0001) // =======================================================
(PID.TID 0000.0001) // End MONITOR EXF statistics
(PID.TID 0000.0001) // =======================================================
 ph-ice B            1  -1.9277401192852257        8.8874460328754405E-003   3.0949874887839192E-003
 ph-ice C            1   30196.838058137710     
 cg2d: Sum(rhs),rhsMax =   1.00000000000000E+00  1.08502544220595E-05
(PID.TID 0000.0001)      cg2d_init_res =   4.85131550991355E-01
(PID.TID 0000.0001)      cg2d_iters(min,last) =      -1       1
(PID.TID 0000.0001)      cg2d_last_res =   5.55111512312578E-17
(PID.TID 0000.0001) // =======================================================
(PID.TID 0000.0001) // Begin MONITOR dynamic field statistics
(PID.TID 0000.0001) // =======================================================
(PID.TID 0000.0001) %MON time_tsnumber                =                     2
(PID.TID 0000.0001) %MON time_secondsf                =   7.2000000000000E+03
(PID.TID 0000.0001) %MON dynstat_eta_max              =  -2.8869704214922E-03
(PID.TID 0000.0001) %MON dynstat_eta_min              =  -2.8869704214922E-03
(PID.TID 0000.0001) %MON dynstat_eta_mean             =  -2.8869704214922E-03
(PID.TID 0000.0001) %MON dynstat_eta_sd               =   0.0000000000000E+00
(PID.TID 0000.0001) %MON dynstat_eta_del2             =   0.0000000000000E+00
(PID.TID 0000.0001) %MON dynstat_uvel_max             =   3.2471527296750E-03
(PID.TID 0000.0001) %MON dynstat_uvel_min             =   3.9668489828624E-71
(PID.TID 0000.0001) %MON dynstat_uvel_mean            =   1.0450657929753E-04
(PID.TID 0000.0001) %MON dynstat_uvel_sd              =   4.9531914257108E-04
(PID.TID 0000.0001) %MON dynstat_uvel_del2            =   0.0000000000000E+00
(PID.TID 0000.0001) %MON dynstat_vvel_max             =   1.9346992626645E-03
(PID.TID 0000.0001) %MON dynstat_vvel_min             =   1.0694603406757E-71
(PID.TID 0000.0001) %MON dynstat_vvel_mean            =   5.7677371191434E-05
(PID.TID 0000.0001) %MON dynstat_vvel_sd              =   2.8645089643755E-04
(PID.TID 0000.0001) %MON dynstat_vvel_del2            =   0.0000000000000E+00
(PID.TID 0000.0001) %MON dynstat_wvel_max             =  -0.0000000000000E+00
(PID.TID 0000.0001) %MON dynstat_wvel_min             =  -0.0000000000000E+00
(PID.TID 0000.0001) %MON dynstat_wvel_mean            =   0.0000000000000E+00
(PID.TID 0000.0001) %MON dynstat_wvel_sd              =   0.0000000000000E+00
(PID.TID 0000.0001) %MON dynstat_wvel_del2            =   0.0000000000000E+00
(PID.TID 0000.0001) %MON dynstat_theta_max            =   4.9999999999854E-01
(PID.TID 0000.0001) %MON dynstat_theta_min            =  -1.9227424894969E+00
(PID.TID 0000.0001) %MON dynstat_theta_mean           =  -4.2429168002627E-01
(PID.TID 0000.0001) %MON dynstat_theta_sd             =   8.7824084286821E-01
(PID.TID 0000.0001) %MON dynstat_theta_del2           =   0.0000000000000E+00
(PID.TID 0000.0001) %MON dynstat_salt_max             =   3.4800000000000E+01
(PID.TID 0000.0001) %MON dynstat_salt_min             =   2.9010853043265E+01
(PID.TID 0000.0001) %MON dynstat_salt_mean            =   3.3593161128674E+01
(PID.TID 0000.0001) %MON dynstat_salt_sd              =   1.6848244760681E+00
(PID.TID 0000.0001) %MON dynstat_salt_del2            =   0.0000000000000E+00
(PID.TID 0000.0001) %MON dynstat_sst_max              =  -1.9227424894969E+00
(PID.TID 0000.0001) %MON dynstat_sst_min              =  -1.9227424894969E+00
(PID.TID 0000.0001) %MON dynstat_sst_mean             =  -1.9227424894969E+00
(PID.TID 0000.0001) %MON dynstat_sst_sd               =   0.0000000000000E+00
(PID.TID 0000.0001) %MON dynstat_sst_del2             =   0.0000000000000E+00
(PID.TID 0000.0001) %MON dynstat_sss_max              =   2.9010853043265E+01
(PID.TID 0000.0001) %MON dynstat_sss_min              =   2.9010853043265E+01
(PID.TID 0000.0001) %MON dynstat_sss_mean             =   2.9010853043265E+01
(PID.TID 0000.0001) %MON dynstat_sss_sd               =   0.0000000000000E+00
(PID.TID 0000.0001) %MON dynstat_sss_del2             =   0.0000000000000E+00
(PID.TID 0000.0001) %MON forcing_qnet_max             =   1.1073710516761E+02
(PID.TID 0000.0001) %MON forcing_qnet_min             =   1.1073710516761E+02
(PID.TID 0000.0001) %MON forcing_qnet_mean            =   1.1073710516761E+02
(PID.TID 0000.0001) %MON forcing_qnet_sd              =   0.0000000000000E+00
(PID.TID 0000.0001) %MON forcing_qnet_del2            =   0.0000000000000E+00
(PID.TID 0000.0001) %MON forcing_qsw_max              =  -1.9399501588726E+01
(PID.TID 0000.0001) %MON forcing_qsw_min              =  -1.9399501588726E+01
(PID.TID 0000.0001) %MON forcing_qsw_mean             =  -1.9399501588726E+01
(PID.TID 0000.0001) %MON forcing_qsw_sd               =   0.0000000000000E+00
(PID.TID 0000.0001) %MON forcing_qsw_del2             =   0.0000000000000E+00
(PID.TID 0000.0001) %MON forcing_empmr_max            =   3.9954876946581E-04
(PID.TID 0000.0001) %MON forcing_empmr_min            =   3.9954876946581E-04
(PID.TID 0000.0001) %MON forcing_empmr_mean           =   3.9954876946581E-04
(PID.TID 0000.0001) %MON forcing_empmr_sd             =   0.0000000000000E+00
(PID.TID 0000.0001) %MON forcing_empmr_del2           =   0.0000000000000E+00
(PID.TID 0000.0001) %MON forcing_fu_max               =   5.9329909251891E-03
(PID.TID 0000.0001) %MON forcing_fu_min               =   5.9329909251891E-03
(PID.TID 0000.0001) %MON forcing_fu_mean              =   5.9329909251891E-03
(PID.TID 0000.0001) %MON forcing_fu_sd                =   0.0000000000000E+00
(PID.TID 0000.0001) %MON forcing_fu_del2              =   0.0000000000000E+00
(PID.TID 0000.0001) %MON forcing_fv_max               =   5.9329909251891E-03
(PID.TID 0000.0001) %MON forcing_fv_min               =   5.9329909251891E-03
(PID.TID 0000.0001) %MON forcing_fv_mean              =   5.9329909251891E-03
(PID.TID 0000.0001) %MON forcing_fv_sd                =   0.0000000000000E+00
(PID.TID 0000.0001) %MON forcing_fv_del2              =   0.0000000000000E+00
(PID.TID 0000.0001) %MON trAdv_CFL_u_max              =   2.3379499653660E-03
(PID.TID 0000.0001) %MON trAdv_CFL_v_max              =   1.3929834691184E-03
(PID.TID 0000.0001) %MON trAdv_CFL_w_max              =   0.0000000000000E+00
(PID.TID 0000.0001) %MON advcfl_uvel_max              =   2.3379499653660E-03
(PID.TID 0000.0001) %MON advcfl_vvel_max              =   1.3929834691184E-03
(PID.TID 0000.0001) %MON advcfl_wvel_max              =   0.0000000000000E+00
(PID.TID 0000.0001) %MON advcfl_W_hf_max              =   0.0000000000000E+00
(PID.TID 0000.0001) %MON pe_b_mean                    =  -7.1713416732676E-08
(PID.TID 0000.0001) %MON ke_max                       =   7.1435310433952E-06
(PID.TID 0000.0001) %MON ke_mean                      =   1.7082173666562E-07
(PID.TID 0000.0001) %MON ke_vol                       =   1.2831500000000E+10
(PID.TID 0000.0001) %MON vort_r_min                   =   0.0000000000000E+00
(PID.TID 0000.0001) %MON vort_r_max                   =   0.0000000000000E+00
(PID.TID 0000.0001) %MON vort_a_mean                  =   1.0000000000000E-04
(PID.TID 0000.0001) %MON vort_a_sd                    =   0.0000000000000E+00
(PID.TID 0000.0001) %MON vort_p_mean                  =   1.0000000000000E-04
(PID.TID 0000.0001) %MON vort_p_sd                    =   0.0000000000000E+00
(PID.TID 0000.0001) %MON surfExpan_theta_mean         =   0.0000000000000E+00
(PID.TID 0000.0001) %MON surfExpan_salt_mean          =   0.0000000000000E+00
(PID.TID 0000.0001) // =======================================================
(PID.TID 0000.0001) // End MONITOR dynamic field statistics
(PID.TID 0000.0001) // =======================================================
(PID.TID 0000.0001) // =======================================================
(PID.TID 0000.0001) // Begin MONITOR SEAICE statistics
(PID.TID 0000.0001) // =======================================================
(PID.TID 0000.0001) %MON seaice_tsnumber              =                     2
(PID.TID 0000.0001) %MON seaice_time_sec              =   7.2000000000000E+03
(PID.TID 0000.0001) %MON seaice_area_max              =   8.8874460328754E-03
(PID.TID 0000.0001) %MON seaice_area_min              =   8.8874460328754E-03
(PID.TID 0000.0001) %MON seaice_area_mean             =   8.8874460328754E-03
(PID.TID 0000.0001) %MON seaice_area_sd               =   0.0000000000000E+00
(PID.TID 0000.0001) %MON seaice_area_del2             =   0.0000000000000E+00
(PID.TID 0000.0001) %MON seaice_heff_max              =   3.0949874887839E-03
(PID.TID 0000.0001) %MON seaice_heff_min              =   3.0949874887839E-03
(PID.TID 0000.0001) %MON seaice_heff_mean             =   3.0949874887839E-03
(PID.TID 0000.0001) %MON seaice_heff_sd               =   0.0000000000000E+00
(PID.TID 0000.0001) %MON seaice_heff_del2             =   0.0000000000000E+00
(PID.TID 0000.0001) %MON seaice_hsnow_max             =   0.0000000000000E+00
(PID.TID 0000.0001) %MON seaice_hsnow_min             =   0.0000000000000E+00
(PID.TID 0000.0001) %MON seaice_hsnow_mean            =   0.0000000000000E+00
(PID.TID 0000.0001) %MON seaice_hsnow_sd              =   0.0000000000000E+00
(PID.TID 0000.0001) %MON seaice_hsnow_del2            =   0.0000000000000E+00
(PID.TID 0000.0001) %MON seaice_hsalt_max             =   2.4510214040782E+01
(PID.TID 0000.0001) %MON seaice_hsalt_min             =   2.4510214040782E+01
(PID.TID 0000.0001) %MON seaice_hsalt_mean            =   2.4510214040782E+01
(PID.TID 0000.0001) %MON seaice_hsalt_sd              =   0.0000000000000E+00
(PID.TID 0000.0001) %MON seaice_hsalt_del2            =   0.0000000000000E+00
(PID.TID 0000.0001) // =======================================================
(PID.TID 0000.0001) // End MONITOR SEAICE statistics
(PID.TID 0000.0001) // =======================================================
(PID.TID 0000.0001) // =======================================================
(PID.TID 0000.0001) // Begin MONITOR EXF statistics
(PID.TID 0000.0001) // =======================================================
(PID.TID 0000.0001) %MON exf_tsnumber                 =                     2
(PID.TID 0000.0001) %MON exf_time_sec                 =   7.2000000000000E+03
(PID.TID 0000.0001) %MON exf_ustress_max              =   5.9520090280875E-03
(PID.TID 0000.0001) %MON exf_ustress_min              =   5.9520090280875E-03
(PID.TID 0000.0001) %MON exf_ustress_mean             =   5.9520090280875E-03
(PID.TID 0000.0001) %MON exf_ustress_sd               =   0.0000000000000E+00
(PID.TID 0000.0001) %MON exf_ustress_del2             =   0.0000000000000E+00
(PID.TID 0000.0001) %MON exf_vstress_max              =   5.9520090280875E-03
(PID.TID 0000.0001) %MON exf_vstress_min              =   5.9520090280875E-03
(PID.TID 0000.0001) %MON exf_vstress_mean             =   5.9520090280875E-03
(PID.TID 0000.0001) %MON exf_vstress_sd               =   0.0000000000000E+00
(PID.TID 0000.0001) %MON exf_vstress_del2             =   0.0000000000000E+00
(PID.TID 0000.0001) %MON exf_hflux_max                =   2.3763014017697E+02
(PID.TID 0000.0001) %MON exf_hflux_min                =   2.3763014017697E+02
(PID.TID 0000.0001) %MON exf_hflux_mean               =   2.3763014017697E+02
(PID.TID 0000.0001) %MON exf_hflux_sd                 =   0.0000000000000E+00
(PID.TID 0000.0001) %MON exf_hflux_del2               =   6.7211953413377E+02
(PID.TID 0000.0001) %MON exf_sflux_max                =   2.0667951405096E-08
(PID.TID 0000.0001) %MON exf_sflux_min                =   2.0667951405096E-08
(PID.TID 0000.0001) %MON exf_sflux_mean               =   2.0667951405096E-08
(PID.TID 0000.0001) %MON exf_sflux_sd                 =   0.0000000000000E+00
(PID.TID 0000.0001) %MON exf_sflux_del2               =   5.8457794367110E-08
(PID.TID 0000.0001) %MON exf_uwind_max                =   1.0000000000000E+00
(PID.TID 0000.0001) %MON exf_uwind_min                =   1.0000000000000E+00
(PID.TID 0000.0001) %MON exf_uwind_mean               =   1.0000000000000E+00
(PID.TID 0000.0001) %MON exf_uwind_sd                 =   0.0000000000000E+00
(PID.TID 0000.0001) %MON exf_uwind_del2               =   0.0000000000000E+00
(PID.TID 0000.0001) %MON exf_vwind_max                =   1.0000000000000E+00
(PID.TID 0000.0001) %MON exf_vwind_min                =   1.0000000000000E+00
(PID.TID 0000.0001) %MON exf_vwind_mean               =   1.0000000000000E+00
(PID.TID 0000.0001) %MON exf_vwind_sd                 =   0.0000000000000E+00
(PID.TID 0000.0001) %MON exf_vwind_del2               =   0.0000000000000E+00
(PID.TID 0000.0001) %MON exf_wspeed_max               =   1.4142135623731E+00
(PID.TID 0000.0001) %MON exf_wspeed_min               =   1.4142135623731E+00
(PID.TID 0000.0001) %MON exf_wspeed_mean              =   1.4142135623731E+00
(PID.TID 0000.0001) %MON exf_wspeed_sd                =   0.0000000000000E+00
(PID.TID 0000.0001) %MON exf_wspeed_del2              =   4.0000000000000E+00
(PID.TID 0000.0001) %MON exf_atemp_max                =   2.5300988769531E+02
(PID.TID 0000.0001) %MON exf_atemp_min                =   2.5300988769531E+02
(PID.TID 0000.0001) %MON exf_atemp_mean               =   2.5300988769531E+02
(PID.TID 0000.0001) %MON exf_atemp_sd                 =   0.0000000000000E+00
(PID.TID 0000.0001) %MON exf_atemp_del2               =   5.6993124209260E+01
(PID.TID 0000.0001) %MON exf_lwflux_max               =   1.0642684777112E+02
(PID.TID 0000.0001) %MON exf_lwflux_min               =   1.0642684777112E+02
(PID.TID 0000.0001) %MON exf_lwflux_mean              =   1.0642684777112E+02
(PID.TID 0000.0001) %MON exf_lwflux_sd                =   0.0000000000000E+00
(PID.TID 0000.0001) %MON exf_lwflux_del2              =   3.0102058303708E+02
(PID.TID 0000.0001) %MON exf_evap_max                 =   2.0667951405096E-08
(PID.TID 0000.0001) %MON exf_evap_min                 =   2.0667951405096E-08
(PID.TID 0000.0001) %MON exf_evap_mean                =   2.0667951405096E-08
(PID.TID 0000.0001) %MON exf_evap_sd                  =   0.0000000000000E+00
(PID.TID 0000.0001) %MON exf_evap_del2                =   5.8457794367110E-08
(PID.TID 0000.0001) %MON exf_swflux_max               =  -1.9490338897705E+01
(PID.TID 0000.0001) %MON exf_swflux_min               =  -1.9490338897705E+01
(PID.TID 0000.0001) %MON exf_swflux_mean              =  -1.9490338897705E+01
(PID.TID 0000.0001) %MON exf_swflux_sd                =   0.0000000000000E+00
(PID.TID 0000.0001) %MON exf_swflux_del2              =   5.5127003208765E+01
(PID.TID 0000.0001) %MON exf_swdown_max               =   2.1655932108561E+01
(PID.TID 0000.0001) %MON exf_swdown_min               =   2.1655932108561E+01
(PID.TID 0000.0001) %MON exf_swdown_mean              =   2.1655932108561E+01
(PID.TID 0000.0001) %MON exf_swdown_sd                =   0.0000000000000E+00
(PID.TID 0000.0001) %MON exf_swdown_del2              =   6.1252225787516E+01
(PID.TID 0000.0001) %MON exf_lwdown_max               =   1.9121638997396E+02
(PID.TID 0000.0001) %MON exf_lwdown_min               =   1.9121638997396E+02
(PID.TID 0000.0001) %MON exf_lwdown_mean              =   1.9121638997396E+02
(PID.TID 0000.0001) %MON exf_lwdown_sd                =   0.0000000000000E+00
(PID.TID 0000.0001) %MON exf_lwdown_del2              =   5.4084162409839E+02
(PID.TID 0000.0001) // =======================================================
(PID.TID 0000.0001) // End MONITOR EXF statistics
(PID.TID 0000.0001) // =======================================================
 ph-ice B            2  -1.9227424894968665        1.4502445408586207E-002   4.3835457704633485E-003
 ph-ice C            2   66451.944493313364     
 cg2d: Sum(rhs),rhsMax =   1.00000000000000E+00  1.54112068175756E-05
(PID.TID 0000.0001)      cg2d_init_res =   2.95950372316838E-01
(PID.TID 0000.0001)      cg2d_iters(min,last) =      -1       1
(PID.TID 0000.0001)      cg2d_last_res =   5.55111512312578E-17
(PID.TID 0000.0001) // =======================================================
(PID.TID 0000.0001) // Begin MONITOR dynamic field statistics
(PID.TID 0000.0001) // =======================================================
(PID.TID 0000.0001) %MON time_tsnumber                =                     3
(PID.TID 0000.0001) %MON time_secondsf                =   1.0800000000000E+04
(PID.TID 0000.0001) %MON dynstat_eta_max              =  -4.1005211962005E-03
(PID.TID 0000.0001) %MON dynstat_eta_min              =  -4.1005211962005E-03
(PID.TID 0000.0001) %MON dynstat_eta_mean             =  -4.1005211962005E-03
(PID.TID 0000.0001) %MON dynstat_eta_sd               =   0.0000000000000E+00
(PID.TID 0000.0001) %MON dynstat_eta_del2             =   0.0000000000000E+00
(PID.TID 0000.0001) %MON dynstat_uvel_max             =   4.7710700866736E-03
(PID.TID 0000.0001) %MON dynstat_uvel_min             =   6.8802050158674E-71
(PID.TID 0000.0001) %MON dynstat_uvel_mean            =   1.6909794551469E-04
(PID.TID 0000.0001) %MON dynstat_uvel_sd              =   7.5993009588851E-04
(PID.TID 0000.0001) %MON dynstat_uvel_del2            =   0.0000000000000E+00
(PID.TID 0000.0001) %MON dynstat_vvel_max             =   1.7154442779433E-03
(PID.TID 0000.0001) %MON dynstat_vvel_min             =  -3.2492781419034E-09
(PID.TID 0000.0001) %MON dynstat_vvel_mean            =   4.6411734966736E-05
(PID.TID 0000.0001) %MON dynstat_vvel_sd              =   2.4750912321329E-04
(PID.TID 0000.0001) %MON dynstat_vvel_del2            =   0.0000000000000E+00
(PID.TID 0000.0001) %MON dynstat_wvel_max             =  -0.0000000000000E+00
(PID.TID 0000.0001) %MON dynstat_wvel_min             =  -0.0000000000000E+00
(PID.TID 0000.0001) %MON dynstat_wvel_mean            =   0.0000000000000E+00
(PID.TID 0000.0001) %MON dynstat_wvel_sd              =   0.0000000000000E+00
(PID.TID 0000.0001) %MON dynstat_wvel_del2            =   0.0000000000000E+00
(PID.TID 0000.0001) %MON dynstat_theta_max            =   4.9999999999808E-01
(PID.TID 0000.0001) %MON dynstat_theta_min            =  -1.9169494216547E+00
(PID.TID 0000.0001) %MON dynstat_theta_mean           =  -4.2451081904338E-01
(PID.TID 0000.0001) %MON dynstat_theta_sd             =   8.7822928162154E-01
(PID.TID 0000.0001) %MON dynstat_theta_del2           =   0.0000000000000E+00
(PID.TID 0000.0001) %MON dynstat_salt_max             =   3.4799999999999E+01
(PID.TID 0000.0001) %MON dynstat_salt_min             =   2.9012586413447E+01
(PID.TID 0000.0001) %MON dynstat_salt_mean            =   3.3593210361245E+01
(PID.TID 0000.0001) %MON dynstat_salt_sd              =   1.6846884243648E+00
(PID.TID 0000.0001) %MON dynstat_salt_del2            =   0.0000000000000E+00
(PID.TID 0000.0001) %MON dynstat_sst_max              =  -1.9169494216547E+00
(PID.TID 0000.0001) %MON dynstat_sst_min              =  -1.9169494216547E+00
(PID.TID 0000.0001) %MON dynstat_sst_mean             =  -1.9169494216547E+00
(PID.TID 0000.0001) %MON dynstat_sst_sd               =   0.0000000000000E+00
(PID.TID 0000.0001) %MON dynstat_sst_del2             =   0.0000000000000E+00
(PID.TID 0000.0001) %MON dynstat_sss_max              =   2.9012586413447E+01
(PID.TID 0000.0001) %MON dynstat_sss_min              =   2.9012586413447E+01
(PID.TID 0000.0001) %MON dynstat_sss_mean             =   2.9012586413447E+01
(PID.TID 0000.0001) %MON dynstat_sss_sd               =   0.0000000000000E+00
(PID.TID 0000.0001) %MON dynstat_sss_del2             =   0.0000000000000E+00
(PID.TID 0000.0001) %MON forcing_qnet_max             =   1.2789759151976E+02
(PID.TID 0000.0001) %MON forcing_qnet_min             =   1.2789759151976E+02
(PID.TID 0000.0001) %MON forcing_qnet_mean            =   1.2789759151976E+02
(PID.TID 0000.0001) %MON forcing_qnet_sd              =   0.0000000000000E+00
(PID.TID 0000.0001) %MON forcing_qnet_del2            =   0.0000000000000E+00
(PID.TID 0000.0001) %MON forcing_qsw_max              =  -1.9329504774971E+01
(PID.TID 0000.0001) %MON forcing_qsw_min              =  -1.9329504774971E+01
(PID.TID 0000.0001) %MON forcing_qsw_mean             =  -1.9329504774971E+01
(PID.TID 0000.0001) %MON forcing_qsw_sd               =   0.0000000000000E+00
(PID.TID 0000.0001) %MON forcing_qsw_del2             =   0.0000000000000E+00
(PID.TID 0000.0001) %MON forcing_empmr_max            =   3.4619906822923E-04
(PID.TID 0000.0001) %MON forcing_empmr_min            =   3.4619906822923E-04
(PID.TID 0000.0001) %MON forcing_empmr_mean           =   3.4619906822923E-04
(PID.TID 0000.0001) %MON forcing_empmr_sd             =   0.0000000000000E+00
(PID.TID 0000.0001) %MON forcing_empmr_del2           =   0.0000000000000E+00
(PID.TID 0000.0001) %MON forcing_fu_max               =   5.8991108690632E-03
(PID.TID 0000.0001) %MON forcing_fu_min               =   5.8991108690632E-03
(PID.TID 0000.0001) %MON forcing_fu_mean              =   5.8991108690632E-03
(PID.TID 0000.0001) %MON forcing_fu_sd                =   0.0000000000000E+00
(PID.TID 0000.0001) %MON forcing_fu_del2              =   0.0000000000000E+00
(PID.TID 0000.0001) %MON forcing_fv_max               =   5.8991108690632E-03
(PID.TID 0000.0001) %MON forcing_fv_min               =   5.8991108690632E-03
(PID.TID 0000.0001) %MON forcing_fv_mean              =   5.8991108690632E-03
(PID.TID 0000.0001) %MON forcing_fv_sd                =   0.0000000000000E+00
(PID.TID 0000.0001) %MON forcing_fv_del2              =   0.0000000000000E+00
(PID.TID 0000.0001) %MON trAdv_CFL_u_max              =   3.4351704624050E-03
(PID.TID 0000.0001) %MON trAdv_CFL_v_max              =   1.2351198801192E-03
(PID.TID 0000.0001) %MON trAdv_CFL_w_max              =   0.0000000000000E+00
(PID.TID 0000.0001) %MON advcfl_uvel_max              =   3.4351704624050E-03
(PID.TID 0000.0001) %MON advcfl_vvel_max              =   1.2351198801192E-03
(PID.TID 0000.0001) %MON advcfl_wvel_max              =   0.0000000000000E+00
(PID.TID 0000.0001) %MON advcfl_W_hf_max              =   0.0000000000000E+00
(PID.TID 0000.0001) %MON pe_b_mean                    =  -1.4381119503965E-07
(PID.TID 0000.0001) %MON ke_max                       =   1.2852929421340E-05
(PID.TID 0000.0001) %MON ke_mean                      =   3.3475134051542E-07
(PID.TID 0000.0001) %MON ke_vol                       =   1.2831500000000E+10
(PID.TID 0000.0001) %MON vort_r_min                   =   0.0000000000000E+00
(PID.TID 0000.0001) %MON vort_r_max                   =   0.0000000000000E+00
(PID.TID 0000.0001) %MON vort_a_mean                  =   1.0000000000000E-04
(PID.TID 0000.0001) %MON vort_a_sd                    =   0.0000000000000E+00
(PID.TID 0000.0001) %MON vort_p_mean                  =   1.0000000000000E-04
(PID.TID 0000.0001) %MON vort_p_sd                    =   0.0000000000000E+00
(PID.TID 0000.0001) %MON surfExpan_theta_mean         =   0.0000000000000E+00
(PID.TID 0000.0001) %MON surfExpan_salt_mean          =   0.0000000000000E+00
(PID.TID 0000.0001) // =======================================================
(PID.TID 0000.0001) // End MONITOR dynamic field statistics
(PID.TID 0000.0001) // =======================================================
(PID.TID 0000.0001) // =======================================================
(PID.TID 0000.0001) // Begin MONITOR SEAICE statistics
(PID.TID 0000.0001) // =======================================================
(PID.TID 0000.0001) %MON seaice_tsnumber              =                     3
(PID.TID 0000.0001) %MON seaice_time_sec              =   1.0800000000000E+04
(PID.TID 0000.0001) %MON seaice_area_max              =   1.4502445408586E-02
(PID.TID 0000.0001) %MON seaice_area_min              =   1.4502445408586E-02
(PID.TID 0000.0001) %MON seaice_area_mean             =   1.4502445408586E-02
(PID.TID 0000.0001) %MON seaice_area_sd               =   0.0000000000000E+00
(PID.TID 0000.0001) %MON seaice_area_del2             =   0.0000000000000E+00
(PID.TID 0000.0001) %MON seaice_heff_max              =   4.3835457704633E-03
(PID.TID 0000.0001) %MON seaice_heff_min              =   4.3835457704633E-03
(PID.TID 0000.0001) %MON seaice_heff_mean             =   4.3835457704633E-03
(PID.TID 0000.0001) %MON seaice_heff_sd               =   0.0000000000000E+00
(PID.TID 0000.0001) %MON seaice_heff_del2             =   0.0000000000000E+00
(PID.TID 0000.0001) %MON seaice_hsnow_max             =   0.0000000000000E+00
(PID.TID 0000.0001) %MON seaice_hsnow_min             =   0.0000000000000E+00
(PID.TID 0000.0001) %MON seaice_hsnow_mean            =   0.0000000000000E+00
(PID.TID 0000.0001) %MON seaice_hsnow_sd              =   0.0000000000000E+00
(PID.TID 0000.0001) %MON seaice_hsnow_del2            =   0.0000000000000E+00
(PID.TID 0000.0001) %MON seaice_hsalt_max             =   3.4715547801445E+01
(PID.TID 0000.0001) %MON seaice_hsalt_min             =   3.4715547801445E+01
(PID.TID 0000.0001) %MON seaice_hsalt_mean            =   3.4715547801445E+01
(PID.TID 0000.0001) %MON seaice_hsalt_sd              =   0.0000000000000E+00
(PID.TID 0000.0001) %MON seaice_hsalt_del2            =   0.0000000000000E+00
(PID.TID 0000.0001) // =======================================================
(PID.TID 0000.0001) // End MONITOR SEAICE statistics
(PID.TID 0000.0001) // =======================================================
(PID.TID 0000.0001) // =======================================================
(PID.TID 0000.0001) // Begin MONITOR EXF statistics
(PID.TID 0000.0001) // =======================================================
(PID.TID 0000.0001) %MON exf_tsnumber                 =                     3
(PID.TID 0000.0001) %MON exf_time_sec                 =   1.0800000000000E+04
(PID.TID 0000.0001) %MON exf_ustress_max              =   5.9520675214603E-03
(PID.TID 0000.0001) %MON exf_ustress_min              =   5.9520675214603E-03
(PID.TID 0000.0001) %MON exf_ustress_mean             =   5.9520675214603E-03
(PID.TID 0000.0001) %MON exf_ustress_sd               =   8.6736173798840E-19
(PID.TID 0000.0001) %MON exf_ustress_del2             =   0.0000000000000E+00
(PID.TID 0000.0001) %MON exf_vstress_max              =   5.9520675214603E-03
(PID.TID 0000.0001) %MON exf_vstress_min              =   5.9520675214603E-03
(PID.TID 0000.0001) %MON exf_vstress_mean             =   5.9520675214603E-03
(PID.TID 0000.0001) %MON exf_vstress_sd               =   8.6736173798840E-19
(PID.TID 0000.0001) %MON exf_vstress_del2             =   0.0000000000000E+00
(PID.TID 0000.0001) %MON exf_hflux_max                =   2.3762168371092E+02
(PID.TID 0000.0001) %MON exf_hflux_min                =   2.3762168371092E+02
(PID.TID 0000.0001) %MON exf_hflux_mean               =   2.3762168371092E+02
(PID.TID 0000.0001) %MON exf_hflux_sd                 =   0.0000000000000E+00
(PID.TID 0000.0001) %MON exf_hflux_del2               =   6.7209561563582E+02
(PID.TID 0000.0001) %MON exf_sflux_max                =   2.0676564742007E-08
(PID.TID 0000.0001) %MON exf_sflux_min                =   2.0676564742007E-08
(PID.TID 0000.0001) %MON exf_sflux_mean               =   2.0676564742007E-08
(PID.TID 0000.0001) %MON exf_sflux_sd                 =   3.3087224502121E-24
(PID.TID 0000.0001) %MON exf_sflux_del2               =   5.8482156562864E-08
(PID.TID 0000.0001) %MON exf_uwind_max                =   1.0000000000000E+00
(PID.TID 0000.0001) %MON exf_uwind_min                =   1.0000000000000E+00
(PID.TID 0000.0001) %MON exf_uwind_mean               =   1.0000000000000E+00
(PID.TID 0000.0001) %MON exf_uwind_sd                 =   0.0000000000000E+00
(PID.TID 0000.0001) %MON exf_uwind_del2               =   0.0000000000000E+00
(PID.TID 0000.0001) %MON exf_vwind_max                =   1.0000000000000E+00
(PID.TID 0000.0001) %MON exf_vwind_min                =   1.0000000000000E+00
(PID.TID 0000.0001) %MON exf_vwind_mean               =   1.0000000000000E+00
(PID.TID 0000.0001) %MON exf_vwind_sd                 =   0.0000000000000E+00
(PID.TID 0000.0001) %MON exf_vwind_del2               =   0.0000000000000E+00
(PID.TID 0000.0001) %MON exf_wspeed_max               =   1.4142135623731E+00
(PID.TID 0000.0001) %MON exf_wspeed_min               =   1.4142135623731E+00
(PID.TID 0000.0001) %MON exf_wspeed_mean              =   1.4142135623731E+00
(PID.TID 0000.0001) %MON exf_wspeed_sd                =   0.0000000000000E+00
(PID.TID 0000.0001) %MON exf_wspeed_del2              =   4.0000000000000E+00
(PID.TID 0000.0001) %MON exf_atemp_max                =   2.5301428604126E+02
(PID.TID 0000.0001) %MON exf_atemp_min                =   2.5301428604126E+02
(PID.TID 0000.0001) %MON exf_atemp_mean               =   2.5301428604126E+02
(PID.TID 0000.0001) %MON exf_atemp_sd                 =   0.0000000000000E+00
(PID.TID 0000.0001) %MON exf_atemp_del2               =   5.6980683808279E+01
(PID.TID 0000.0001) %MON exf_lwflux_max               =   1.0642271888607E+02
(PID.TID 0000.0001) %MON exf_lwflux_min               =   1.0642271888607E+02
(PID.TID 0000.0001) %MON exf_lwflux_mean              =   1.0642271888607E+02
(PID.TID 0000.0001) %MON exf_lwflux_sd                =   0.0000000000000E+00
(PID.TID 0000.0001) %MON exf_lwflux_del2              =   3.0100890478660E+02
(PID.TID 0000.0001) %MON exf_evap_max                 =   2.0676564742007E-08
(PID.TID 0000.0001) %MON exf_evap_min                 =   2.0676564742007E-08
(PID.TID 0000.0001) %MON exf_evap_mean                =   2.0676564742007E-08
(PID.TID 0000.0001) %MON exf_evap_sd                  =   3.3087224502121E-24
(PID.TID 0000.0001) %MON exf_evap_del2                =   5.8482156562864E-08
(PID.TID 0000.0001) %MON exf_swflux_max               =  -1.9525133442879E+01
(PID.TID 0000.0001) %MON exf_swflux_min               =  -1.9525133442879E+01
(PID.TID 0000.0001) %MON exf_swflux_mean              =  -1.9525133442879E+01
(PID.TID 0000.0001) %MON exf_swflux_sd                =   0.0000000000000E+00
(PID.TID 0000.0001) %MON exf_swflux_del2              =   5.5225417044127E+01
(PID.TID 0000.0001) %MON exf_swdown_max               =   2.1694592714310E+01
(PID.TID 0000.0001) %MON exf_swdown_min               =   2.1694592714310E+01
(PID.TID 0000.0001) %MON exf_swdown_mean              =   2.1694592714310E+01
(PID.TID 0000.0001) %MON exf_swdown_sd                =   0.0000000000000E+00
(PID.TID 0000.0001) %MON exf_swdown_del2              =   6.1361574493475E+01
(PID.TID 0000.0001) %MON exf_lwdown_max               =   1.9124594879150E+02
(PID.TID 0000.0001) %MON exf_lwdown_min               =   1.9124594879150E+02
(PID.TID 0000.0001) %MON exf_lwdown_mean              =   1.9124594879150E+02
(PID.TID 0000.0001) %MON exf_lwdown_sd                =   0.0000000000000E+00
(PID.TID 0000.0001) %MON exf_lwdown_del2              =   5.4092522905971E+02
(PID.TID 0000.0001) // =======================================================
(PID.TID 0000.0001) // End MONITOR EXF statistics
(PID.TID 0000.0001) // =======================================================
 ph-ice B            3  -1.9169494216546736        2.0024314539518757E-002   5.4303730638170320E-003
 ph-ice C            3   116511.34030333775     
 cg2d: Sum(rhs),rhsMax =   1.00000000000000E+00  1.91657331966560E-05
(PID.TID 0000.0001)      cg2d_init_res =   1.95897873592912E-01
(PID.TID 0000.0001)      cg2d_iters(min,last) =      -1       1
(PID.TID 0000.0001)      cg2d_last_res =   2.77555756156289E-17
(PID.TID 0000.0001) // =======================================================
(PID.TID 0000.0001) // Begin MONITOR dynamic field statistics
(PID.TID 0000.0001) // =======================================================
(PID.TID 0000.0001) %MON time_tsnumber                =                     4
(PID.TID 0000.0001) %MON time_secondsf                =   1.4400000000000E+04
(PID.TID 0000.0001) %MON dynstat_eta_max              =  -5.0995029879143E-03
(PID.TID 0000.0001) %MON dynstat_eta_min              =  -5.0995029879143E-03
(PID.TID 0000.0001) %MON dynstat_eta_mean             =  -5.0995029879143E-03
(PID.TID 0000.0001) %MON dynstat_eta_sd               =   0.0000000000000E+00
(PID.TID 0000.0001) %MON dynstat_eta_del2             =   0.0000000000000E+00
(PID.TID 0000.0001) %MON dynstat_uvel_max             =   5.9644288552472E-03
(PID.TID 0000.0001) %MON dynstat_uvel_min             =   1.6662218320609E-70
(PID.TID 0000.0001) %MON dynstat_uvel_mean            =   2.2329673405449E-04
(PID.TID 0000.0001) %MON dynstat_uvel_sd              =   9.7653318627453E-04
(PID.TID 0000.0001) %MON dynstat_uvel_del2            =   0.0000000000000E+00
(PID.TID 0000.0001) %MON dynstat_vvel_max             =   1.0546227129408E-03
(PID.TID 0000.0001) %MON dynstat_vvel_min             =  -3.4879521718225E-04
(PID.TID 0000.0001) %MON dynstat_vvel_mean            =   1.1508680854853E-05
(PID.TID 0000.0001) %MON dynstat_vvel_sd              =   1.5508095837566E-04
(PID.TID 0000.0001) %MON dynstat_vvel_del2            =   0.0000000000000E+00
(PID.TID 0000.0001) %MON dynstat_wvel_max             =  -0.0000000000000E+00
(PID.TID 0000.0001) %MON dynstat_wvel_min             =  -0.0000000000000E+00
(PID.TID 0000.0001) %MON dynstat_wvel_mean            =   0.0000000000000E+00
(PID.TID 0000.0001) %MON dynstat_wvel_sd              =   0.0000000000000E+00
(PID.TID 0000.0001) %MON dynstat_wvel_del2            =   0.0000000000000E+00
(PID.TID 0000.0001) %MON dynstat_theta_max            =   4.9999999999761E-01
(PID.TID 0000.0001) %MON dynstat_theta_min            =  -1.9115569476882E+00
(PID.TID 0000.0001) %MON dynstat_theta_mean           =  -4.2476387225841E-01
(PID.TID 0000.0001) %MON dynstat_theta_sd             =   8.7832884534888E-01
(PID.TID 0000.0001) %MON dynstat_theta_del2           =   0.0000000000000E+00
(PID.TID 0000.0001) %MON dynstat_salt_max             =   3.4799999999999E+01
(PID.TID 0000.0001) %MON dynstat_salt_min             =   2.9014205712871E+01
(PID.TID 0000.0001) %MON dynstat_salt_mean            =   3.3593251100241E+01
(PID.TID 0000.0001) %MON dynstat_salt_sd              =   1.6845758392181E+00
(PID.TID 0000.0001) %MON dynstat_salt_del2            =   0.0000000000000E+00
(PID.TID 0000.0001) %MON dynstat_sst_max              =  -1.9115569476882E+00
(PID.TID 0000.0001) %MON dynstat_sst_min              =  -1.9115569476882E+00
(PID.TID 0000.0001) %MON dynstat_sst_mean             =  -1.9115569476882E+00
(PID.TID 0000.0001) %MON dynstat_sst_sd               =   0.0000000000000E+00
(PID.TID 0000.0001) %MON dynstat_sst_del2             =   0.0000000000000E+00
(PID.TID 0000.0001) %MON dynstat_sss_max              =   2.9014205712871E+01
(PID.TID 0000.0001) %MON dynstat_sss_min              =   2.9014205712871E+01
(PID.TID 0000.0001) %MON dynstat_sss_mean             =   2.9014205712871E+01
(PID.TID 0000.0001) %MON dynstat_sss_sd               =   0.0000000000000E+00
(PID.TID 0000.0001) %MON dynstat_sss_del2             =   0.0000000000000E+00
(PID.TID 0000.0001) %MON forcing_qnet_max             =   1.4769116497153E+02
(PID.TID 0000.0001) %MON forcing_qnet_min             =   1.4769116497153E+02
(PID.TID 0000.0001) %MON forcing_qnet_mean            =   1.4769116497153E+02
(PID.TID 0000.0001) %MON forcing_qnet_sd              =   2.8421709430404E-14
(PID.TID 0000.0001) %MON forcing_qnet_del2            =   0.0000000000000E+00
(PID.TID 0000.0001) %MON forcing_qsw_max              =  -1.9262155381137E+01
(PID.TID 0000.0001) %MON forcing_qsw_min              =  -1.9262155381137E+01
(PID.TID 0000.0001) %MON forcing_qsw_mean             =  -1.9262155381137E+01
(PID.TID 0000.0001) %MON forcing_qsw_sd               =   0.0000000000000E+00
(PID.TID 0000.0001) %MON forcing_qsw_del2             =   0.0000000000000E+00
(PID.TID 0000.0001) %MON forcing_empmr_max            =   2.8498730558087E-04
(PID.TID 0000.0001) %MON forcing_empmr_min            =   2.8498730558087E-04
(PID.TID 0000.0001) %MON forcing_empmr_mean           =   2.8498730558087E-04
(PID.TID 0000.0001) %MON forcing_empmr_sd             =   0.0000000000000E+00
(PID.TID 0000.0001) %MON forcing_empmr_del2           =   0.0000000000000E+00
(PID.TID 0000.0001) %MON forcing_fu_max               =   5.8657479871621E-03
(PID.TID 0000.0001) %MON forcing_fu_min               =   5.8657479871621E-03
(PID.TID 0000.0001) %MON forcing_fu_mean              =   5.8657479871621E-03
(PID.TID 0000.0001) %MON forcing_fu_sd                =   0.0000000000000E+00
(PID.TID 0000.0001) %MON forcing_fu_del2              =   0.0000000000000E+00
(PID.TID 0000.0001) %MON forcing_fv_max               =   5.8657479871621E-03
(PID.TID 0000.0001) %MON forcing_fv_min               =   5.8657479871621E-03
(PID.TID 0000.0001) %MON forcing_fv_mean              =   5.8657479871621E-03
(PID.TID 0000.0001) %MON forcing_fv_sd                =   0.0000000000000E+00
(PID.TID 0000.0001) %MON forcing_fv_del2              =   0.0000000000000E+00
(PID.TID 0000.0001) %MON trAdv_CFL_u_max              =   4.2943887757780E-03
(PID.TID 0000.0001) %MON trAdv_CFL_v_max              =   7.5932835331735E-04
(PID.TID 0000.0001) %MON trAdv_CFL_w_max              =   0.0000000000000E+00
(PID.TID 0000.0001) %MON advcfl_uvel_max              =   4.2943887757780E-03
(PID.TID 0000.0001) %MON advcfl_vvel_max              =   7.5932835331735E-04
(PID.TID 0000.0001) %MON advcfl_wvel_max              =   0.0000000000000E+00
(PID.TID 0000.0001) %MON advcfl_W_hf_max              =   0.0000000000000E+00
(PID.TID 0000.0001) %MON pe_b_mean                    =  -2.2059436105673E-07
(PID.TID 0000.0001) %MON ke_max                       =   1.8343320317978E-05
(PID.TID 0000.0001) %MON ke_mean                      =   5.1383052436031E-07
(PID.TID 0000.0001) %MON ke_vol                       =   1.2831500000000E+10
(PID.TID 0000.0001) %MON vort_r_min                   =   0.0000000000000E+00
(PID.TID 0000.0001) %MON vort_r_max                   =   0.0000000000000E+00
(PID.TID 0000.0001) %MON vort_a_mean                  =   1.0000000000000E-04
(PID.TID 0000.0001) %MON vort_a_sd                    =   0.0000000000000E+00
(PID.TID 0000.0001) %MON vort_p_mean                  =   1.0000000000000E-04
(PID.TID 0000.0001) %MON vort_p_sd                    =   0.0000000000000E+00
(PID.TID 0000.0001) %MON surfExpan_theta_mean         =   0.0000000000000E+00
(PID.TID 0000.0001) %MON surfExpan_salt_mean          =   0.0000000000000E+00
(PID.TID 0000.0001) // =======================================================
(PID.TID 0000.0001) // End MONITOR dynamic field statistics
(PID.TID 0000.0001) // =======================================================
(PID.TID 0000.0001) // =======================================================
(PID.TID 0000.0001) // Begin MONITOR SEAICE statistics
(PID.TID 0000.0001) // =======================================================
(PID.TID 0000.0001) %MON seaice_tsnumber              =                     4
(PID.TID 0000.0001) %MON seaice_time_sec              =   1.4400000000000E+04
(PID.TID 0000.0001) %MON seaice_area_max              =   2.0024314539519E-02
(PID.TID 0000.0001) %MON seaice_area_min              =   2.0024314539519E-02
(PID.TID 0000.0001) %MON seaice_area_mean             =   2.0024314539519E-02
(PID.TID 0000.0001) %MON seaice_area_sd               =   0.0000000000000E+00
(PID.TID 0000.0001) %MON seaice_area_del2             =   0.0000000000000E+00
(PID.TID 0000.0001) %MON seaice_heff_max              =   5.4303730638170E-03
(PID.TID 0000.0001) %MON seaice_heff_min              =   5.4303730638170E-03
(PID.TID 0000.0001) %MON seaice_heff_mean             =   5.4303730638170E-03
(PID.TID 0000.0001) %MON seaice_heff_sd               =   0.0000000000000E+00
(PID.TID 0000.0001) %MON seaice_heff_del2             =   0.0000000000000E+00
(PID.TID 0000.0001) %MON seaice_hsnow_max             =   0.0000000000000E+00
(PID.TID 0000.0001) %MON seaice_hsnow_min             =   0.0000000000000E+00
(PID.TID 0000.0001) %MON seaice_hsnow_mean            =   0.0000000000000E+00
(PID.TID 0000.0001) %MON seaice_hsnow_sd              =   0.0000000000000E+00
(PID.TID 0000.0001) %MON seaice_hsnow_del2            =   0.0000000000000E+00
(PID.TID 0000.0001) %MON seaice_hsalt_max             =   4.3006876476633E+01
(PID.TID 0000.0001) %MON seaice_hsalt_min             =   4.3006876476633E+01
(PID.TID 0000.0001) %MON seaice_hsalt_mean            =   4.3006876476633E+01
(PID.TID 0000.0001) %MON seaice_hsalt_sd              =   7.1054273576010E-15
(PID.TID 0000.0001) %MON seaice_hsalt_del2            =   0.0000000000000E+00
(PID.TID 0000.0001) // =======================================================
(PID.TID 0000.0001) // End MONITOR SEAICE statistics
(PID.TID 0000.0001) // =======================================================
(PID.TID 0000.0001) // =======================================================
(PID.TID 0000.0001) // Begin MONITOR EXF statistics
(PID.TID 0000.0001) // =======================================================
(PID.TID 0000.0001) %MON exf_tsnumber                 =                     4
(PID.TID 0000.0001) %MON exf_time_sec                 =   1.4400000000000E+04
(PID.TID 0000.0001) %MON exf_ustress_max              =   5.9521074325502E-03
(PID.TID 0000.0001) %MON exf_ustress_min              =   5.9521074325502E-03
(PID.TID 0000.0001) %MON exf_ustress_mean             =   5.9521074325502E-03
(PID.TID 0000.0001) %MON exf_ustress_sd               =   8.6736173798840E-19
(PID.TID 0000.0001) %MON exf_ustress_del2             =   0.0000000000000E+00
(PID.TID 0000.0001) %MON exf_vstress_max              =   5.9521074325502E-03
(PID.TID 0000.0001) %MON exf_vstress_min              =   5.9521074325502E-03
(PID.TID 0000.0001) %MON exf_vstress_mean             =   5.9521074325502E-03
(PID.TID 0000.0001) %MON exf_vstress_sd               =   8.6736173798840E-19
(PID.TID 0000.0001) %MON exf_vstress_del2             =   0.0000000000000E+00
(PID.TID 0000.0001) %MON exf_hflux_max                =   2.3760719506324E+02
(PID.TID 0000.0001) %MON exf_hflux_min                =   2.3760719506324E+02
(PID.TID 0000.0001) %MON exf_hflux_mean               =   2.3760719506324E+02
(PID.TID 0000.0001) %MON exf_hflux_sd                 =   0.0000000000000E+00
(PID.TID 0000.0001) %MON exf_hflux_del2               =   6.7205463555173E+02
(PID.TID 0000.0001) %MON exf_sflux_max                =   2.0684511028910E-08
(PID.TID 0000.0001) %MON exf_sflux_min                =   2.0684511028910E-08
(PID.TID 0000.0001) %MON exf_sflux_mean               =   2.0684511028910E-08
(PID.TID 0000.0001) %MON exf_sflux_sd                 =   0.0000000000000E+00
(PID.TID 0000.0001) %MON exf_sflux_del2               =   5.8504632056280E-08
(PID.TID 0000.0001) %MON exf_uwind_max                =   1.0000000000000E+00
(PID.TID 0000.0001) %MON exf_uwind_min                =   1.0000000000000E+00
(PID.TID 0000.0001) %MON exf_uwind_mean               =   1.0000000000000E+00
(PID.TID 0000.0001) %MON exf_uwind_sd                 =   0.0000000000000E+00
(PID.TID 0000.0001) %MON exf_uwind_del2               =   0.0000000000000E+00
(PID.TID 0000.0001) %MON exf_vwind_max                =   1.0000000000000E+00
(PID.TID 0000.0001) %MON exf_vwind_min                =   1.0000000000000E+00
(PID.TID 0000.0001) %MON exf_vwind_mean               =   1.0000000000000E+00
(PID.TID 0000.0001) %MON exf_vwind_sd                 =   0.0000000000000E+00
(PID.TID 0000.0001) %MON exf_vwind_del2               =   0.0000000000000E+00
(PID.TID 0000.0001) %MON exf_wspeed_max               =   1.4142135623731E+00
(PID.TID 0000.0001) %MON exf_wspeed_min               =   1.4142135623731E+00
(PID.TID 0000.0001) %MON exf_wspeed_mean              =   1.4142135623731E+00
(PID.TID 0000.0001) %MON exf_wspeed_sd                =   0.0000000000000E+00
(PID.TID 0000.0001) %MON exf_wspeed_del2              =   4.0000000000000E+00
(PID.TID 0000.0001) %MON exf_atemp_max                =   2.5301868438721E+02
(PID.TID 0000.0001) %MON exf_atemp_min                =   2.5301868438721E+02
(PID.TID 0000.0001) %MON exf_atemp_mean               =   2.5301868438721E+02
(PID.TID 0000.0001) %MON exf_atemp_sd                 =   0.0000000000000E+00
(PID.TID 0000.0001) %MON exf_atemp_del2               =   5.6968243407298E+01
(PID.TID 0000.0001) %MON exf_lwflux_max               =   1.0641683297133E+02
(PID.TID 0000.0001) %MON exf_lwflux_min               =   1.0641683297133E+02
(PID.TID 0000.0001) %MON exf_lwflux_mean              =   1.0641683297133E+02
(PID.TID 0000.0001) %MON exf_lwflux_sd                =   0.0000000000000E+00
(PID.TID 0000.0001) %MON exf_lwflux_del2              =   3.0099225690570E+02
(PID.TID 0000.0001) %MON exf_evap_max                 =   2.0684511028910E-08
(PID.TID 0000.0001) %MON exf_evap_min                 =   2.0684511028910E-08
(PID.TID 0000.0001) %MON exf_evap_mean                =   2.0684511028910E-08
(PID.TID 0000.0001) %MON exf_evap_sd                  =   0.0000000000000E+00
(PID.TID 0000.0001) %MON exf_evap_del2                =   5.8504632056280E-08
(PID.TID 0000.0001) %MON exf_swflux_max               =  -1.9559927988052E+01
(PID.TID 0000.0001) %MON exf_swflux_min               =  -1.9559927988052E+01
(PID.TID 0000.0001) %MON exf_swflux_mean              =  -1.9559927988052E+01
(PID.TID 0000.0001) %MON exf_swflux_sd                =   0.0000000000000E+00
(PID.TID 0000.0001) %MON exf_swflux_del2              =   5.5323830879490E+01
(PID.TID 0000.0001) %MON exf_swdown_max               =   2.1733253320058E+01
(PID.TID 0000.0001) %MON exf_swdown_min               =   2.1733253320058E+01
(PID.TID 0000.0001) %MON exf_swdown_mean              =   2.1733253320058E+01
(PID.TID 0000.0001) %MON exf_swdown_sd                =   0.0000000000000E+00
(PID.TID 0000.0001) %MON exf_swdown_del2              =   6.1470923199433E+01
(PID.TID 0000.0001) %MON exf_lwdown_max               =   1.9127550760905E+02
(PID.TID 0000.0001) %MON exf_lwdown_min               =   1.9127550760905E+02
(PID.TID 0000.0001) %MON exf_lwdown_mean              =   1.9127550760905E+02
(PID.TID 0000.0001) %MON exf_lwdown_sd                =   0.0000000000000E+00
(PID.TID 0000.0001) %MON exf_lwdown_del2              =   5.4100883402103E+02
(PID.TID 0000.0001) // =======================================================
(PID.TID 0000.0001) // End MONITOR EXF statistics
(PID.TID 0000.0001) // =======================================================
 ph-ice B            4  -1.9115569476882035        2.5443224730921740E-002   6.2544578769424992E-003
 ph-ice C            4   180117.63528911473     
 cg2d: Sum(rhs),rhsMax =   1.00000000000000E+00  2.21770843196450E-05
(PID.TID 0000.0001)      cg2d_init_res =   1.35786611061121E-01
(PID.TID 0000.0001)      cg2d_iters(min,last) =      -1       1
(PID.TID 0000.0001)      cg2d_last_res =   0.00000000000000E+00
(PID.TID 0000.0001) // =======================================================
(PID.TID 0000.0001) // Begin MONITOR dynamic field statistics
(PID.TID 0000.0001) // =======================================================
(PID.TID 0000.0001) %MON time_tsnumber                =                     5
(PID.TID 0000.0001) %MON time_secondsf                =   1.8000000000000E+04
(PID.TID 0000.0001) %MON dynstat_eta_max              =  -5.9007451784285E-03
(PID.TID 0000.0001) %MON dynstat_eta_min              =  -5.9007451784285E-03
(PID.TID 0000.0001) %MON dynstat_eta_mean             =  -5.9007451784285E-03
(PID.TID 0000.0001) %MON dynstat_eta_sd               =   0.0000000000000E+00
(PID.TID 0000.0001) %MON dynstat_eta_del2             =   0.0000000000000E+00
(PID.TID 0000.0001) %MON dynstat_uvel_max             =   6.7816499314832E-03
(PID.TID 0000.0001) %MON dynstat_uvel_min             =   4.3343304643952E-70
(PID.TID 0000.0001) %MON dynstat_uvel_mean            =   2.5960273715387E-04
(PID.TID 0000.0001) %MON dynstat_uvel_sd              =   1.1235236941293E-03
(PID.TID 0000.0001) %MON dynstat_uvel_del2            =   0.0000000000000E+00
(PID.TID 0000.0001) %MON dynstat_vvel_max             =   9.1712487671098E-05
(PID.TID 0000.0001) %MON dynstat_vvel_min             =  -1.0863319104794E-03
(PID.TID 0000.0001) %MON dynstat_vvel_mean            =  -4.0883144049558E-05
(PID.TID 0000.0001) %MON dynstat_vvel_sd              =   2.0188895005641E-04
(PID.TID 0000.0001) %MON dynstat_vvel_del2            =   0.0000000000000E+00
(PID.TID 0000.0001) %MON dynstat_wvel_max             =  -0.0000000000000E+00
(PID.TID 0000.0001) %MON dynstat_wvel_min             =  -0.0000000000000E+00
(PID.TID 0000.0001) %MON dynstat_wvel_mean            =   0.0000000000000E+00
(PID.TID 0000.0001) %MON dynstat_wvel_sd              =   0.0000000000000E+00
(PID.TID 0000.0001) %MON dynstat_wvel_del2            =   0.0000000000000E+00
(PID.TID 0000.0001) %MON dynstat_theta_max            =   4.9999999999714E-01
(PID.TID 0000.0001) %MON dynstat_theta_min            =  -1.9072005371483E+00
(PID.TID 0000.0001) %MON dynstat_theta_mean           =  -4.2504808447747E-01
(PID.TID 0000.0001) %MON dynstat_theta_sd             =   8.7853764610218E-01
(PID.TID 0000.0001) %MON dynstat_theta_del2           =   0.0000000000000E+00
(PID.TID 0000.0001) %MON dynstat_salt_max             =   3.4799999999999E+01
(PID.TID 0000.0001) %MON dynstat_salt_min             =   2.9015637517057E+01
(PID.TID 0000.0001) %MON dynstat_salt_mean            =   3.3593284010537E+01
(PID.TID 0000.0001) %MON dynstat_salt_sd              =   1.6844848888599E+00
(PID.TID 0000.0001) %MON dynstat_salt_del2            =   0.0000000000000E+00
(PID.TID 0000.0001) %MON dynstat_sst_max              =  -1.9072005371483E+00
(PID.TID 0000.0001) %MON dynstat_sst_min              =  -1.9072005371483E+00
(PID.TID 0000.0001) %MON dynstat_sst_mean             =  -1.9072005371483E+00
(PID.TID 0000.0001) %MON dynstat_sst_sd               =   0.0000000000000E+00
(PID.TID 0000.0001) %MON dynstat_sst_del2             =   0.0000000000000E+00
(PID.TID 0000.0001) %MON dynstat_sss_max              =   2.9015637517057E+01
(PID.TID 0000.0001) %MON dynstat_sss_min              =   2.9015637517057E+01
(PID.TID 0000.0001) %MON dynstat_sss_mean             =   2.9015637517057E+01
(PID.TID 0000.0001) %MON dynstat_sss_sd               =   0.0000000000000E+00
(PID.TID 0000.0001) %MON dynstat_sss_del2             =   0.0000000000000E+00
(PID.TID 0000.0001) %MON forcing_qnet_max             =   1.6587670592888E+02
(PID.TID 0000.0001) %MON forcing_qnet_min             =   1.6587670592888E+02
(PID.TID 0000.0001) %MON forcing_qnet_mean            =   1.6587670592888E+02
(PID.TID 0000.0001) %MON forcing_qnet_sd              =   0.0000000000000E+00
(PID.TID 0000.0001) %MON forcing_qnet_del2            =   0.0000000000000E+00
(PID.TID 0000.0001) %MON forcing_qsw_max              =  -1.9196085057532E+01
(PID.TID 0000.0001) %MON forcing_qsw_min              =  -1.9196085057532E+01
(PID.TID 0000.0001) %MON forcing_qsw_mean             =  -1.9196085057532E+01
(PID.TID 0000.0001) %MON forcing_qsw_sd               =   0.0000000000000E+00
(PID.TID 0000.0001) %MON forcing_qsw_del2             =   0.0000000000000E+00
(PID.TID 0000.0001) %MON forcing_empmr_max            =   2.2857659157267E-04
(PID.TID 0000.0001) %MON forcing_empmr_min            =   2.2857659157267E-04
(PID.TID 0000.0001) %MON forcing_empmr_mean           =   2.2857659157267E-04
(PID.TID 0000.0001) %MON forcing_empmr_sd             =   0.0000000000000E+00
(PID.TID 0000.0001) %MON forcing_empmr_del2           =   0.0000000000000E+00
(PID.TID 0000.0001) %MON forcing_fu_max               =   5.8329205611478E-03
(PID.TID 0000.0001) %MON forcing_fu_min               =   5.8329205611478E-03
(PID.TID 0000.0001) %MON forcing_fu_mean              =   5.8329205611478E-03
(PID.TID 0000.0001) %MON forcing_fu_sd                =   0.0000000000000E+00
(PID.TID 0000.0001) %MON forcing_fu_del2              =   0.0000000000000E+00
(PID.TID 0000.0001) %MON forcing_fv_max               =   5.8329205611478E-03
(PID.TID 0000.0001) %MON forcing_fv_min               =   5.8329205611478E-03
(PID.TID 0000.0001) %MON forcing_fv_mean              =   5.8329205611478E-03
(PID.TID 0000.0001) %MON forcing_fv_sd                =   0.0000000000000E+00
(PID.TID 0000.0001) %MON forcing_fv_del2              =   0.0000000000000E+00
(PID.TID 0000.0001) %MON trAdv_CFL_u_max              =   4.8827879506679E-03
(PID.TID 0000.0001) %MON trAdv_CFL_v_max              =   7.8215897554518E-04
(PID.TID 0000.0001) %MON trAdv_CFL_w_max              =   0.0000000000000E+00
(PID.TID 0000.0001) %MON advcfl_uvel_max              =   4.8827879506679E-03
(PID.TID 0000.0001) %MON advcfl_vvel_max              =   7.8215897554518E-04
(PID.TID 0000.0001) %MON advcfl_wvel_max              =   0.0000000000000E+00
(PID.TID 0000.0001) %MON advcfl_W_hf_max              =   0.0000000000000E+00
(PID.TID 0000.0001) %MON pe_b_mean                    =  -2.9244637249098E-07
(PID.TID 0000.0001) %MON ke_max                       =   2.2999593486791E-05
(PID.TID 0000.0001) %MON ke_mean                      =   6.8606482601500E-07
(PID.TID 0000.0001) %MON ke_vol                       =   1.2831500000000E+10
(PID.TID 0000.0001) %MON vort_r_min                   =   0.0000000000000E+00
(PID.TID 0000.0001) %MON vort_r_max                   =   0.0000000000000E+00
(PID.TID 0000.0001) %MON vort_a_mean                  =   1.0000000000000E-04
(PID.TID 0000.0001) %MON vort_a_sd                    =   0.0000000000000E+00
(PID.TID 0000.0001) %MON vort_p_mean                  =   1.0000000000000E-04
(PID.TID 0000.0001) %MON vort_p_sd                    =   0.0000000000000E+00
(PID.TID 0000.0001) %MON surfExpan_theta_mean         =   0.0000000000000E+00
(PID.TID 0000.0001) %MON surfExpan_salt_mean          =   0.0000000000000E+00
(PID.TID 0000.0001) // =======================================================
(PID.TID 0000.0001) // End MONITOR dynamic field statistics
(PID.TID 0000.0001) // =======================================================
(PID.TID 0000.0001) // =======================================================
(PID.TID 0000.0001) // Begin MONITOR SEAICE statistics
(PID.TID 0000.0001) // =======================================================
(PID.TID 0000.0001) %MON seaice_tsnumber              =                     5
(PID.TID 0000.0001) %MON seaice_time_sec              =   1.8000000000000E+04
(PID.TID 0000.0001) %MON seaice_area_max              =   2.5443224730922E-02
(PID.TID 0000.0001) %MON seaice_area_min              =   2.5443224730922E-02
(PID.TID 0000.0001) %MON seaice_area_mean             =   2.5443224730922E-02
(PID.TID 0000.0001) %MON seaice_area_sd               =   0.0000000000000E+00
(PID.TID 0000.0001) %MON seaice_area_del2             =   0.0000000000000E+00
(PID.TID 0000.0001) %MON seaice_heff_max              =   6.2544578769425E-03
(PID.TID 0000.0001) %MON seaice_heff_min              =   6.2544578769425E-03
(PID.TID 0000.0001) %MON seaice_heff_mean             =   6.2544578769425E-03
(PID.TID 0000.0001) %MON seaice_heff_sd               =   0.0000000000000E+00
(PID.TID 0000.0001) %MON seaice_heff_del2             =   0.0000000000000E+00
(PID.TID 0000.0001) %MON seaice_hsnow_max             =   0.0000000000000E+00
(PID.TID 0000.0001) %MON seaice_hsnow_min             =   0.0000000000000E+00
(PID.TID 0000.0001) %MON seaice_hsnow_mean            =   0.0000000000000E+00
(PID.TID 0000.0001) %MON seaice_hsnow_sd              =   0.0000000000000E+00
(PID.TID 0000.0001) %MON seaice_hsnow_del2            =   0.0000000000000E+00
(PID.TID 0000.0001) %MON seaice_hsalt_max             =   4.9534351874588E+01
(PID.TID 0000.0001) %MON seaice_hsalt_min             =   4.9534351874588E+01
(PID.TID 0000.0001) %MON seaice_hsalt_mean            =   4.9534351874588E+01
(PID.TID 0000.0001) %MON seaice_hsalt_sd              =   0.0000000000000E+00
(PID.TID 0000.0001) %MON seaice_hsalt_del2            =   0.0000000000000E+00
(PID.TID 0000.0001) // =======================================================
(PID.TID 0000.0001) // End MONITOR SEAICE statistics
(PID.TID 0000.0001) // =======================================================
(PID.TID 0000.0001) // =======================================================
(PID.TID 0000.0001) // Begin MONITOR EXF statistics
(PID.TID 0000.0001) // =======================================================
(PID.TID 0000.0001) %MON exf_tsnumber                 =                     5
(PID.TID 0000.0001) %MON exf_time_sec                 =   1.8000000000000E+04
(PID.TID 0000.0001) %MON exf_ustress_max              =   5.9520992869955E-03
(PID.TID 0000.0001) %MON exf_ustress_min              =   5.9520992869955E-03
(PID.TID 0000.0001) %MON exf_ustress_mean             =   5.9520992869955E-03
(PID.TID 0000.0001) %MON exf_ustress_sd               =   0.0000000000000E+00
(PID.TID 0000.0001) %MON exf_ustress_del2             =   0.0000000000000E+00
(PID.TID 0000.0001) %MON exf_vstress_max              =   5.9520992869955E-03
(PID.TID 0000.0001) %MON exf_vstress_min              =   5.9520992869955E-03
(PID.TID 0000.0001) %MON exf_vstress_mean             =   5.9520992869955E-03
(PID.TID 0000.0001) %MON exf_vstress_sd               =   0.0000000000000E+00
(PID.TID 0000.0001) %MON exf_vstress_del2             =   0.0000000000000E+00
(PID.TID 0000.0001) %MON exf_hflux_max                =   2.3757708655467E+02
(PID.TID 0000.0001) %MON exf_hflux_min                =   2.3757708655467E+02
(PID.TID 0000.0001) %MON exf_hflux_mean               =   2.3757708655467E+02
(PID.TID 0000.0001) %MON exf_hflux_sd                 =   0.0000000000000E+00
(PID.TID 0000.0001) %MON exf_hflux_del2               =   6.7196947582940E+02
(PID.TID 0000.0001) %MON exf_sflux_max                =   2.0690726000039E-08
(PID.TID 0000.0001) %MON exf_sflux_min                =   2.0690726000039E-08
(PID.TID 0000.0001) %MON exf_sflux_mean               =   2.0690726000039E-08
(PID.TID 0000.0001) %MON exf_sflux_sd                 =   0.0000000000000E+00
(PID.TID 0000.0001) %MON exf_sflux_del2               =   5.8522210649200E-08
(PID.TID 0000.0001) %MON exf_uwind_max                =   1.0000000000000E+00
(PID.TID 0000.0001) %MON exf_uwind_min                =   1.0000000000000E+00
(PID.TID 0000.0001) %MON exf_uwind_mean               =   1.0000000000000E+00
(PID.TID 0000.0001) %MON exf_uwind_sd                 =   0.0000000000000E+00
(PID.TID 0000.0001) %MON exf_uwind_del2               =   0.0000000000000E+00
(PID.TID 0000.0001) %MON exf_vwind_max                =   1.0000000000000E+00
(PID.TID 0000.0001) %MON exf_vwind_min                =   1.0000000000000E+00
(PID.TID 0000.0001) %MON exf_vwind_mean               =   1.0000000000000E+00
(PID.TID 0000.0001) %MON exf_vwind_sd                 =   0.0000000000000E+00
(PID.TID 0000.0001) %MON exf_vwind_del2               =   0.0000000000000E+00
(PID.TID 0000.0001) %MON exf_wspeed_max               =   1.4142135623731E+00
(PID.TID 0000.0001) %MON exf_wspeed_min               =   1.4142135623731E+00
(PID.TID 0000.0001) %MON exf_wspeed_mean              =   1.4142135623731E+00
(PID.TID 0000.0001) %MON exf_wspeed_sd                =   0.0000000000000E+00
(PID.TID 0000.0001) %MON exf_wspeed_del2              =   4.0000000000000E+00
(PID.TID 0000.0001) %MON exf_atemp_max                =   2.5302308273315E+02
(PID.TID 0000.0001) %MON exf_atemp_min                =   2.5302308273315E+02
(PID.TID 0000.0001) %MON exf_atemp_mean               =   2.5302308273315E+02
(PID.TID 0000.0001) %MON exf_atemp_sd                 =   0.0000000000000E+00
(PID.TID 0000.0001) %MON exf_atemp_del2               =   5.6955803006316E+01
(PID.TID 0000.0001) %MON exf_lwflux_max               =   1.0640639978037E+02
(PID.TID 0000.0001) %MON exf_lwflux_min               =   1.0640639978037E+02
(PID.TID 0000.0001) %MON exf_lwflux_mean              =   1.0640639978037E+02
(PID.TID 0000.0001) %MON exf_lwflux_sd                =   1.4210854715202E-14
(PID.TID 0000.0001) %MON exf_lwflux_del2              =   3.0096274738539E+02
(PID.TID 0000.0001) %MON exf_evap_max                 =   2.0690726000039E-08
(PID.TID 0000.0001) %MON exf_evap_min                 =   2.0690726000039E-08
(PID.TID 0000.0001) %MON exf_evap_mean                =   2.0690726000039E-08
(PID.TID 0000.0001) %MON exf_evap_sd                  =   0.0000000000000E+00
(PID.TID 0000.0001) %MON exf_evap_del2                =   5.8522210649200E-08
(PID.TID 0000.0001) %MON exf_swflux_max               =  -1.9594722533226E+01
(PID.TID 0000.0001) %MON exf_swflux_min               =  -1.9594722533226E+01
(PID.TID 0000.0001) %MON exf_swflux_mean              =  -1.9594722533226E+01
(PID.TID 0000.0001) %MON exf_swflux_sd                =   0.0000000000000E+00
(PID.TID 0000.0001) %MON exf_swflux_del2              =   5.5422244714852E+01
(PID.TID 0000.0001) %MON exf_swdown_max               =   2.1771913925807E+01
(PID.TID 0000.0001) %MON exf_swdown_min               =   2.1771913925807E+01
(PID.TID 0000.0001) %MON exf_swdown_mean              =   2.1771913925807E+01
(PID.TID 0000.0001) %MON exf_swdown_sd                =   0.0000000000000E+00
(PID.TID 0000.0001) %MON exf_swdown_del2              =   6.1580271905391E+01
(PID.TID 0000.0001) %MON exf_lwdown_max               =   1.9130506642660E+02
(PID.TID 0000.0001) %MON exf_lwdown_min               =   1.9130506642660E+02
(PID.TID 0000.0001) %MON exf_lwdown_mean              =   1.9130506642660E+02
(PID.TID 0000.0001) %MON exf_lwdown_sd                =   0.0000000000000E+00
(PID.TID 0000.0001) %MON exf_lwdown_del2              =   5.4109243898235E+02
(PID.TID 0000.0001) // =======================================================
(PID.TID 0000.0001) // End MONITOR EXF statistics
(PID.TID 0000.0001) // =======================================================
 ph-ice B            5  -1.9072005371483221        3.0754472054404725E-002   6.9007138707266793E-003
 ph-ice C            5   257001.67975722466     
 cg2d: Sum(rhs),rhsMax =   1.00000000000000E+00  2.45948357288196E-05
(PID.TID 0000.0001)      cg2d_init_res =   9.83032143758464E-02
(PID.TID 0000.0001)      cg2d_iters(min,last) =      -1       1
(PID.TID 0000.0001)      cg2d_last_res =   1.38777878078145E-17
(PID.TID 0000.0001) // =======================================================
(PID.TID 0000.0001) // Begin MONITOR dynamic field statistics
(PID.TID 0000.0001) // =======================================================
(PID.TID 0000.0001) %MON time_tsnumber                =                     6
(PID.TID 0000.0001) %MON time_secondsf                =   2.1600000000000E+04
(PID.TID 0000.0001) %MON dynstat_eta_max              =  -6.5440459281933E-03
(PID.TID 0000.0001) %MON dynstat_eta_min              =  -6.5440459281933E-03
(PID.TID 0000.0001) %MON dynstat_eta_mean             =  -6.5440459281933E-03
(PID.TID 0000.0001) %MON dynstat_eta_sd               =   0.0000000000000E+00
(PID.TID 0000.0001) %MON dynstat_eta_del2             =   0.0000000000000E+00
(PID.TID 0000.0001) %MON dynstat_uvel_max             =   7.1696996726362E-03
(PID.TID 0000.0001) %MON dynstat_uvel_min             =  -1.3302741082469E-36
(PID.TID 0000.0001) %MON dynstat_uvel_mean            =   2.7305209091567E-04
(PID.TID 0000.0001) %MON dynstat_uvel_sd              =   1.1850386287703E-03
(PID.TID 0000.0001) %MON dynstat_uvel_del2            =   0.0000000000000E+00
(PID.TID 0000.0001) %MON dynstat_vvel_max             =  -6.3518542863512E-69
(PID.TID 0000.0001) %MON dynstat_vvel_min             =  -2.0505919779243E-03
(PID.TID 0000.0001) %MON dynstat_vvel_mean            =  -1.0269830629543E-04
(PID.TID 0000.0001) %MON dynstat_vvel_sd              =   4.1056652406091E-04
(PID.TID 0000.0001) %MON dynstat_vvel_del2            =   0.0000000000000E+00
(PID.TID 0000.0001) %MON dynstat_wvel_max             =  -0.0000000000000E+00
(PID.TID 0000.0001) %MON dynstat_wvel_min             =  -0.0000000000000E+00
(PID.TID 0000.0001) %MON dynstat_wvel_mean            =   0.0000000000000E+00
(PID.TID 0000.0001) %MON dynstat_wvel_sd              =   0.0000000000000E+00
(PID.TID 0000.0001) %MON dynstat_wvel_del2            =   0.0000000000000E+00
(PID.TID 0000.0001) %MON dynstat_theta_max            =   4.9999999999667E-01
(PID.TID 0000.0001) %MON dynstat_theta_min            =  -1.9040036840097E+00
(PID.TID 0000.0001) %MON dynstat_theta_mean           =  -4.2535694063019E-01
(PID.TID 0000.0001) %MON dynstat_theta_sd             =   8.7883229349376E-01
(PID.TID 0000.0001) %MON dynstat_theta_del2           =   0.0000000000000E+00
(PID.TID 0000.0001) %MON dynstat_salt_max             =   3.4799999999999E+01
(PID.TID 0000.0001) %MON dynstat_salt_min             =   2.9016880114925E+01
(PID.TID 0000.0001) %MON dynstat_salt_mean            =   3.3593310666029E+01
(PID.TID 0000.0001) %MON dynstat_salt_sd              =   1.6844112054923E+00
(PID.TID 0000.0001) %MON dynstat_salt_del2            =   0.0000000000000E+00
(PID.TID 0000.0001) %MON dynstat_sst_max              =  -1.9040036840097E+00
(PID.TID 0000.0001) %MON dynstat_sst_min              =  -1.9040036840097E+00
(PID.TID 0000.0001) %MON dynstat_sst_mean             =  -1.9040036840097E+00
(PID.TID 0000.0001) %MON dynstat_sst_sd               =   2.2204460492503E-16
(PID.TID 0000.0001) %MON dynstat_sst_del2             =   0.0000000000000E+00
(PID.TID 0000.0001) %MON dynstat_sss_max              =   2.9016880114925E+01
(PID.TID 0000.0001) %MON dynstat_sss_min              =   2.9016880114925E+01
(PID.TID 0000.0001) %MON dynstat_sss_mean             =   2.9016880114925E+01
(PID.TID 0000.0001) %MON dynstat_sss_sd               =   0.0000000000000E+00
(PID.TID 0000.0001) %MON dynstat_sss_del2             =   0.0000000000000E+00
(PID.TID 0000.0001) %MON forcing_qnet_max             =   1.8025981214824E+02
(PID.TID 0000.0001) %MON forcing_qnet_min             =   1.8025981214824E+02
(PID.TID 0000.0001) %MON forcing_qnet_mean            =   1.8025981214824E+02
(PID.TID 0000.0001) %MON forcing_qnet_sd              =   0.0000000000000E+00
(PID.TID 0000.0001) %MON forcing_qnet_del2            =   0.0000000000000E+00
(PID.TID 0000.0001) %MON forcing_qsw_max              =  -1.9131495733415E+01
(PID.TID 0000.0001) %MON forcing_qsw_min              =  -1.9131495733415E+01
(PID.TID 0000.0001) %MON forcing_qsw_mean             =  -1.9131495733415E+01
(PID.TID 0000.0001) %MON forcing_qsw_sd               =   0.0000000000000E+00
(PID.TID 0000.0001) %MON forcing_qsw_del2             =   0.0000000000000E+00
(PID.TID 0000.0001) %MON forcing_empmr_max            =   1.8351940833547E-04
(PID.TID 0000.0001) %MON forcing_empmr_min            =   1.8351940833547E-04
(PID.TID 0000.0001) %MON forcing_empmr_mean           =   1.8351940833547E-04
(PID.TID 0000.0001) %MON forcing_empmr_sd             =   0.0000000000000E+00
(PID.TID 0000.0001) %MON forcing_empmr_del2           =   0.0000000000000E+00
(PID.TID 0000.0001) %MON forcing_fu_max               =   5.8006586872158E-03
(PID.TID 0000.0001) %MON forcing_fu_min               =   5.8006586872158E-03
(PID.TID 0000.0001) %MON forcing_fu_mean              =   5.8006586872158E-03
(PID.TID 0000.0001) %MON forcing_fu_sd                =   0.0000000000000E+00
(PID.TID 0000.0001) %MON forcing_fu_del2              =   0.0000000000000E+00
(PID.TID 0000.0001) %MON forcing_fv_max               =   5.8006586872158E-03
(PID.TID 0000.0001) %MON forcing_fv_min               =   5.8006586872158E-03
(PID.TID 0000.0001) %MON forcing_fv_mean              =   5.8006586872158E-03
(PID.TID 0000.0001) %MON forcing_fv_sd                =   0.0000000000000E+00
(PID.TID 0000.0001) %MON forcing_fv_del2              =   0.0000000000000E+00
(PID.TID 0000.0001) %MON trAdv_CFL_u_max              =   5.1621837642980E-03
(PID.TID 0000.0001) %MON trAdv_CFL_v_max              =   1.4764262241055E-03
(PID.TID 0000.0001) %MON trAdv_CFL_w_max              =   0.0000000000000E+00
(PID.TID 0000.0001) %MON advcfl_uvel_max              =   5.1621837642980E-03
(PID.TID 0000.0001) %MON advcfl_vvel_max              =   1.4764262241055E-03
(PID.TID 0000.0001) %MON advcfl_wvel_max              =   0.0000000000000E+00
(PID.TID 0000.0001) %MON advcfl_W_hf_max              =   0.0000000000000E+00
(PID.TID 0000.0001) %MON pe_b_mean                    =  -3.5573892027804E-07
(PID.TID 0000.0001) %MON ke_max                       =   2.6233232873588E-05
(PID.TID 0000.0001) %MON ke_mean                      =   8.2899290441329E-07
(PID.TID 0000.0001) %MON ke_vol                       =   1.2831500000000E+10
(PID.TID 0000.0001) %MON vort_r_min                   =   0.0000000000000E+00
(PID.TID 0000.0001) %MON vort_r_max                   =   0.0000000000000E+00
(PID.TID 0000.0001) %MON vort_a_mean                  =   1.0000000000000E-04
(PID.TID 0000.0001) %MON vort_a_sd                    =   0.0000000000000E+00
(PID.TID 0000.0001) %MON vort_p_mean                  =   1.0000000000000E-04
(PID.TID 0000.0001) %MON vort_p_sd                    =   0.0000000000000E+00
(PID.TID 0000.0001) %MON surfExpan_theta_mean         =   0.0000000000000E+00
(PID.TID 0000.0001) %MON surfExpan_salt_mean          =   0.0000000000000E+00
(PID.TID 0000.0001) // =======================================================
(PID.TID 0000.0001) // End MONITOR dynamic field statistics
(PID.TID 0000.0001) // =======================================================
(PID.TID 0000.0001) // =======================================================
(PID.TID 0000.0001) // Begin MONITOR SEAICE statistics
(PID.TID 0000.0001) // =======================================================
(PID.TID 0000.0001) %MON seaice_tsnumber              =                     6
(PID.TID 0000.0001) %MON seaice_time_sec              =   2.1600000000000E+04
(PID.TID 0000.0001) %MON seaice_area_max              =   3.0754472054405E-02
(PID.TID 0000.0001) %MON seaice_area_min              =   3.0754472054405E-02
(PID.TID 0000.0001) %MON seaice_area_mean             =   3.0754472054405E-02
(PID.TID 0000.0001) %MON seaice_area_sd               =   0.0000000000000E+00
(PID.TID 0000.0001) %MON seaice_area_del2             =   0.0000000000000E+00
(PID.TID 0000.0001) %MON seaice_heff_max              =   6.9007138707267E-03
(PID.TID 0000.0001) %MON seaice_heff_min              =   6.9007138707267E-03
(PID.TID 0000.0001) %MON seaice_heff_mean             =   6.9007138707267E-03
(PID.TID 0000.0001) %MON seaice_heff_sd               =   0.0000000000000E+00
(PID.TID 0000.0001) %MON seaice_heff_del2             =   0.0000000000000E+00
(PID.TID 0000.0001) %MON seaice_hsnow_max             =   0.0000000000000E+00
(PID.TID 0000.0001) %MON seaice_hsnow_min             =   0.0000000000000E+00
(PID.TID 0000.0001) %MON seaice_hsnow_mean            =   0.0000000000000E+00
(PID.TID 0000.0001) %MON seaice_hsnow_sd              =   0.0000000000000E+00
(PID.TID 0000.0001) %MON seaice_hsnow_del2            =   0.0000000000000E+00
(PID.TID 0000.0001) %MON seaice_hsalt_max             =   5.4653519471458E+01
(PID.TID 0000.0001) %MON seaice_hsalt_min             =   5.4653519471458E+01
(PID.TID 0000.0001) %MON seaice_hsalt_mean            =   5.4653519471458E+01
(PID.TID 0000.0001) %MON seaice_hsalt_sd              =   0.0000000000000E+00
(PID.TID 0000.0001) %MON seaice_hsalt_del2            =   0.0000000000000E+00
(PID.TID 0000.0001) // =======================================================
(PID.TID 0000.0001) // End MONITOR SEAICE statistics
(PID.TID 0000.0001) // =======================================================
(PID.TID 0000.0001) // =======================================================
(PID.TID 0000.0001) // Begin MONITOR EXF statistics
(PID.TID 0000.0001) // =======================================================
(PID.TID 0000.0001) %MON exf_tsnumber                 =                     6
(PID.TID 0000.0001) %MON exf_time_sec                 =   2.1600000000000E+04
(PID.TID 0000.0001) %MON exf_ustress_max              =   5.9520373561990E-03
(PID.TID 0000.0001) %MON exf_ustress_min              =   5.9520373561990E-03
(PID.TID 0000.0001) %MON exf_ustress_mean             =   5.9520373561990E-03
(PID.TID 0000.0001) %MON exf_ustress_sd               =   0.0000000000000E+00
(PID.TID 0000.0001) %MON exf_ustress_del2             =   0.0000000000000E+00
(PID.TID 0000.0001) %MON exf_vstress_max              =   5.9520373561990E-03
(PID.TID 0000.0001) %MON exf_vstress_min              =   5.9520373561990E-03
(PID.TID 0000.0001) %MON exf_vstress_mean             =   5.9520373561990E-03
(PID.TID 0000.0001) %MON exf_vstress_sd               =   0.0000000000000E+00
(PID.TID 0000.0001) %MON exf_vstress_del2             =   0.0000000000000E+00
(PID.TID 0000.0001) %MON exf_hflux_max                =   2.3752949112027E+02
(PID.TID 0000.0001) %MON exf_hflux_min                =   2.3752949112027E+02
(PID.TID 0000.0001) %MON exf_hflux_mean               =   2.3752949112027E+02
(PID.TID 0000.0001) %MON exf_hflux_sd                 =   0.0000000000000E+00
(PID.TID 0000.0001) %MON exf_hflux_del2               =   6.7183485561174E+02
(PID.TID 0000.0001) %MON exf_sflux_max                =   2.0695001509513E-08
(PID.TID 0000.0001) %MON exf_sflux_min                =   2.0695001509513E-08
(PID.TID 0000.0001) %MON exf_sflux_mean               =   2.0695001509513E-08
(PID.TID 0000.0001) %MON exf_sflux_sd                 =   3.3087224502121E-24
(PID.TID 0000.0001) %MON exf_sflux_del2               =   5.8534303616169E-08
(PID.TID 0000.0001) %MON exf_uwind_max                =   1.0000000000000E+00
(PID.TID 0000.0001) %MON exf_uwind_min                =   1.0000000000000E+00
(PID.TID 0000.0001) %MON exf_uwind_mean               =   1.0000000000000E+00
(PID.TID 0000.0001) %MON exf_uwind_sd                 =   0.0000000000000E+00
(PID.TID 0000.0001) %MON exf_uwind_del2               =   0.0000000000000E+00
(PID.TID 0000.0001) %MON exf_vwind_max                =   1.0000000000000E+00
(PID.TID 0000.0001) %MON exf_vwind_min                =   1.0000000000000E+00
(PID.TID 0000.0001) %MON exf_vwind_mean               =   1.0000000000000E+00
(PID.TID 0000.0001) %MON exf_vwind_sd                 =   0.0000000000000E+00
(PID.TID 0000.0001) %MON exf_vwind_del2               =   0.0000000000000E+00
(PID.TID 0000.0001) %MON exf_wspeed_max               =   1.4142135623731E+00
(PID.TID 0000.0001) %MON exf_wspeed_min               =   1.4142135623731E+00
(PID.TID 0000.0001) %MON exf_wspeed_mean              =   1.4142135623731E+00
(PID.TID 0000.0001) %MON exf_wspeed_sd                =   0.0000000000000E+00
(PID.TID 0000.0001) %MON exf_wspeed_del2              =   4.0000000000000E+00
(PID.TID 0000.0001) %MON exf_atemp_max                =   2.5302748107910E+02
(PID.TID 0000.0001) %MON exf_atemp_min                =   2.5302748107910E+02
(PID.TID 0000.0001) %MON exf_atemp_mean               =   2.5302748107910E+02
(PID.TID 0000.0001) %MON exf_atemp_sd                 =   0.0000000000000E+00
(PID.TID 0000.0001) %MON exf_atemp_del2               =   5.6943362605335E+01
(PID.TID 0000.0001) %MON exf_lwflux_max               =   1.0639087645668E+02
(PID.TID 0000.0001) %MON exf_lwflux_min               =   1.0639087645668E+02
(PID.TID 0000.0001) %MON exf_lwflux_mean              =   1.0639087645668E+02
(PID.TID 0000.0001) %MON exf_lwflux_sd                =   0.0000000000000E+00
(PID.TID 0000.0001) %MON exf_lwflux_del2              =   3.0091884079558E+02
(PID.TID 0000.0001) %MON exf_evap_max                 =   2.0695001509513E-08
(PID.TID 0000.0001) %MON exf_evap_min                 =   2.0695001509513E-08
(PID.TID 0000.0001) %MON exf_evap_mean                =   2.0695001509513E-08
(PID.TID 0000.0001) %MON exf_evap_sd                  =   3.3087224502121E-24
(PID.TID 0000.0001) %MON exf_evap_del2                =   5.8534303616169E-08
(PID.TID 0000.0001) %MON exf_swflux_max               =  -1.9629517078400E+01
(PID.TID 0000.0001) %MON exf_swflux_min               =  -1.9629517078400E+01
(PID.TID 0000.0001) %MON exf_swflux_mean              =  -1.9629517078400E+01
(PID.TID 0000.0001) %MON exf_swflux_sd                =   0.0000000000000E+00
(PID.TID 0000.0001) %MON exf_swflux_del2              =   5.5520658550214E+01
(PID.TID 0000.0001) %MON exf_swdown_max               =   2.1810574531555E+01
(PID.TID 0000.0001) %MON exf_swdown_min               =   2.1810574531555E+01
(PID.TID 0000.0001) %MON exf_swdown_mean              =   2.1810574531555E+01
(PID.TID 0000.0001) %MON exf_swdown_sd                =   0.0000000000000E+00
(PID.TID 0000.0001) %MON exf_swdown_del2              =   6.1689620611349E+01
(PID.TID 0000.0001) %MON exf_lwdown_max               =   1.9133462524414E+02
(PID.TID 0000.0001) %MON exf_lwdown_min               =   1.9133462524414E+02
(PID.TID 0000.0001) %MON exf_lwdown_mean              =   1.9133462524414E+02
(PID.TID 0000.0001) %MON exf_lwdown_sd                =   0.0000000000000E+00
(PID.TID 0000.0001) %MON exf_lwdown_del2              =   5.4117604394367E+02
(PID.TID 0000.0001) // =======================================================
(PID.TID 0000.0001) // End MONITOR EXF statistics
(PID.TID 0000.0001) // =======================================================
 ph-ice B            6  -1.9040036840096861        3.5957972675634060E-002   7.4184436201806692E-003
 ph-ice C            6   346894.11443423544     
 cg2d: Sum(rhs),rhsMax =   1.00000000000000E+00  2.65831778893271E-05
(PID.TID 0000.0001)      cg2d_init_res =   7.47970076718046E-02
(PID.TID 0000.0001)      cg2d_iters(min,last) =      -1       1
(PID.TID 0000.0001)      cg2d_last_res =   0.00000000000000E+00
(PID.TID 0000.0001) // =======================================================
(PID.TID 0000.0001) // Begin MONITOR dynamic field statistics
(PID.TID 0000.0001) // =======================================================
(PID.TID 0000.0001) %MON time_tsnumber                =                     7
(PID.TID 0000.0001) %MON time_secondsf                =   2.5200000000000E+04
(PID.TID 0000.0001) %MON dynstat_eta_max              =  -7.0730920484011E-03
(PID.TID 0000.0001) %MON dynstat_eta_min              =  -7.0730920484011E-03
(PID.TID 0000.0001) %MON dynstat_eta_mean             =  -7.0730920484011E-03
(PID.TID 0000.0001) %MON dynstat_eta_sd               =   0.0000000000000E+00
(PID.TID 0000.0001) %MON dynstat_eta_del2             =   0.0000000000000E+00
(PID.TID 0000.0001) %MON dynstat_uvel_max             =   7.1071921113485E-03
(PID.TID 0000.0001) %MON dynstat_uvel_min             =  -9.0866953356062E-11
(PID.TID 0000.0001) %MON dynstat_uvel_mean            =   2.6199864379115E-04
(PID.TID 0000.0001) %MON dynstat_uvel_sd              =   1.1566315188897E-03
(PID.TID 0000.0001) %MON dynstat_uvel_del2            =   0.0000000000000E+00
(PID.TID 0000.0001) %MON dynstat_vvel_max             =  -2.6943202941526E-68
(PID.TID 0000.0001) %MON dynstat_vvel_min             =  -3.1066921586196E-03
(PID.TID 0000.0001) %MON dynstat_vvel_mean            =  -1.6463210125068E-04
(PID.TID 0000.0001) %MON dynstat_vvel_sd              =   6.4173165931854E-04
(PID.TID 0000.0001) %MON dynstat_vvel_del2            =   0.0000000000000E+00
(PID.TID 0000.0001) %MON dynstat_wvel_max             =  -0.0000000000000E+00
(PID.TID 0000.0001) %MON dynstat_wvel_min             =  -0.0000000000000E+00
(PID.TID 0000.0001) %MON dynstat_wvel_mean            =   0.0000000000000E+00
(PID.TID 0000.0001) %MON dynstat_wvel_sd              =   0.0000000000000E+00
(PID.TID 0000.0001) %MON dynstat_wvel_del2            =   0.0000000000000E+00
(PID.TID 0000.0001) %MON dynstat_theta_max            =   4.9999999999620E-01
(PID.TID 0000.0001) %MON dynstat_theta_min            =  -1.9016154564554E+00
(PID.TID 0000.0001) %MON dynstat_theta_mean           =  -4.2568329331376E-01
(PID.TID 0000.0001) %MON dynstat_theta_sd             =   8.7917360775268E-01
(PID.TID 0000.0001) %MON dynstat_theta_del2           =   0.0000000000000E+00
(PID.TID 0000.0001) %MON dynstat_salt_max             =   3.4799999999999E+01
(PID.TID 0000.0001) %MON dynstat_salt_min             =   2.9017984039406E+01
(PID.TID 0000.0001) %MON dynstat_salt_mean            =   3.3593332794849E+01
(PID.TID 0000.0001) %MON dynstat_salt_sd              =   1.6843499500188E+00
(PID.TID 0000.0001) %MON dynstat_salt_del2            =   0.0000000000000E+00
(PID.TID 0000.0001) %MON dynstat_sst_max              =  -1.9016154564554E+00
(PID.TID 0000.0001) %MON dynstat_sst_min              =  -1.9016154564554E+00
(PID.TID 0000.0001) %MON dynstat_sst_mean             =  -1.9016154564554E+00
(PID.TID 0000.0001) %MON dynstat_sst_sd               =   0.0000000000000E+00
(PID.TID 0000.0001) %MON dynstat_sst_del2             =   0.0000000000000E+00
(PID.TID 0000.0001) %MON dynstat_sss_max              =   2.9017984039406E+01
(PID.TID 0000.0001) %MON dynstat_sss_min              =   2.9017984039406E+01
(PID.TID 0000.0001) %MON dynstat_sss_mean             =   2.9017984039406E+01
(PID.TID 0000.0001) %MON dynstat_sss_sd               =   0.0000000000000E+00
(PID.TID 0000.0001) %MON dynstat_sss_del2             =   0.0000000000000E+00
(PID.TID 0000.0001) %MON forcing_qnet_max             =   1.9047143117083E+02
(PID.TID 0000.0001) %MON forcing_qnet_min             =   1.9047143117083E+02
(PID.TID 0000.0001) %MON forcing_qnet_mean            =   1.9047143117083E+02
(PID.TID 0000.0001) %MON forcing_qnet_sd              =   0.0000000000000E+00
(PID.TID 0000.0001) %MON forcing_qnet_del2            =   0.0000000000000E+00
(PID.TID 0000.0001) %MON forcing_qsw_max              =  -1.9068497524638E+01
(PID.TID 0000.0001) %MON forcing_qsw_min              =  -1.9068497524638E+01
(PID.TID 0000.0001) %MON forcing_qsw_mean             =  -1.9068497524638E+01
(PID.TID 0000.0001) %MON forcing_qsw_sd               =   0.0000000000000E+00
(PID.TID 0000.0001) %MON forcing_qsw_del2             =   0.0000000000000E+00
(PID.TID 0000.0001) %MON forcing_empmr_max            =   1.5092510151281E-04
(PID.TID 0000.0001) %MON forcing_empmr_min            =   1.5092510151281E-04
(PID.TID 0000.0001) %MON forcing_empmr_mean           =   1.5092510151281E-04
(PID.TID 0000.0001) %MON forcing_empmr_sd             =   0.0000000000000E+00
(PID.TID 0000.0001) %MON forcing_empmr_del2           =   0.0000000000000E+00
(PID.TID 0000.0001) %MON forcing_fu_max               =   5.7689855896610E-03
(PID.TID 0000.0001) %MON forcing_fu_min               =   5.7689855896610E-03
(PID.TID 0000.0001) %MON forcing_fu_mean              =   5.7689855896610E-03
(PID.TID 0000.0001) %MON forcing_fu_sd                =   0.0000000000000E+00
(PID.TID 0000.0001) %MON forcing_fu_del2              =   0.0000000000000E+00
(PID.TID 0000.0001) %MON forcing_fv_max               =   5.7689855896610E-03
(PID.TID 0000.0001) %MON forcing_fv_min               =   5.7689855896610E-03
(PID.TID 0000.0001) %MON forcing_fv_mean              =   5.7689855896610E-03
(PID.TID 0000.0001) %MON forcing_fv_sd                =   0.0000000000000E+00
(PID.TID 0000.0001) %MON forcing_fv_del2              =   0.0000000000000E+00
(PID.TID 0000.0001) %MON trAdv_CFL_u_max              =   5.1171783201709E-03
(PID.TID 0000.0001) %MON trAdv_CFL_v_max              =   2.2368183542061E-03
(PID.TID 0000.0001) %MON trAdv_CFL_w_max              =   0.0000000000000E+00
(PID.TID 0000.0001) %MON advcfl_uvel_max              =   5.1171783201709E-03
(PID.TID 0000.0001) %MON advcfl_vvel_max              =   2.2368183542061E-03
(PID.TID 0000.0001) %MON advcfl_wvel_max              =   0.0000000000000E+00
(PID.TID 0000.0001) %MON advcfl_W_hf_max              =   0.0000000000000E+00
(PID.TID 0000.0001) %MON pe_b_mean                    =  -4.1077025805177E-07
(PID.TID 0000.0001) %MON ke_max                       =   2.7575527212305E-05
(PID.TID 0000.0001) %MON ke_mean                      =   9.2268150558570E-07
(PID.TID 0000.0001) %MON ke_vol                       =   1.2831500000000E+10
(PID.TID 0000.0001) %MON vort_r_min                   =   0.0000000000000E+00
(PID.TID 0000.0001) %MON vort_r_max                   =   0.0000000000000E+00
(PID.TID 0000.0001) %MON vort_a_mean                  =   1.0000000000000E-04
(PID.TID 0000.0001) %MON vort_a_sd                    =   0.0000000000000E+00
(PID.TID 0000.0001) %MON vort_p_mean                  =   1.0000000000000E-04
(PID.TID 0000.0001) %MON vort_p_sd                    =   0.0000000000000E+00
(PID.TID 0000.0001) %MON surfExpan_theta_mean         =   0.0000000000000E+00
(PID.TID 0000.0001) %MON surfExpan_salt_mean          =   0.0000000000000E+00
(PID.TID 0000.0001) // =======================================================
(PID.TID 0000.0001) // End MONITOR dynamic field statistics
(PID.TID 0000.0001) // =======================================================
(PID.TID 0000.0001) // =======================================================
(PID.TID 0000.0001) // Begin MONITOR SEAICE statistics
(PID.TID 0000.0001) // =======================================================
(PID.TID 0000.0001) %MON seaice_tsnumber              =                     7
(PID.TID 0000.0001) %MON seaice_time_sec              =   2.5200000000000E+04
(PID.TID 0000.0001) %MON seaice_area_max              =   3.5957972675634E-02
(PID.TID 0000.0001) %MON seaice_area_min              =   3.5957972675634E-02
(PID.TID 0000.0001) %MON seaice_area_mean             =   3.5957972675634E-02
(PID.TID 0000.0001) %MON seaice_area_sd               =   0.0000000000000E+00
(PID.TID 0000.0001) %MON seaice_area_del2             =   0.0000000000000E+00
(PID.TID 0000.0001) %MON seaice_heff_max              =   7.4184436201807E-03
(PID.TID 0000.0001) %MON seaice_heff_min              =   7.4184436201807E-03
(PID.TID 0000.0001) %MON seaice_heff_mean             =   7.4184436201807E-03
(PID.TID 0000.0001) %MON seaice_heff_sd               =   0.0000000000000E+00
(PID.TID 0000.0001) %MON seaice_heff_del2             =   0.0000000000000E+00
(PID.TID 0000.0001) %MON seaice_hsnow_max             =   0.0000000000000E+00
(PID.TID 0000.0001) %MON seaice_hsnow_min             =   0.0000000000000E+00
(PID.TID 0000.0001) %MON seaice_hsnow_mean            =   0.0000000000000E+00
(PID.TID 0000.0001) %MON seaice_hsnow_sd              =   0.0000000000000E+00
(PID.TID 0000.0001) %MON seaice_hsnow_del2            =   0.0000000000000E+00
(PID.TID 0000.0001) %MON seaice_hsalt_max             =   5.8754771737070E+01
(PID.TID 0000.0001) %MON seaice_hsalt_min             =   5.8754771737070E+01
(PID.TID 0000.0001) %MON seaice_hsalt_mean            =   5.8754771737070E+01
(PID.TID 0000.0001) %MON seaice_hsalt_sd              =   0.0000000000000E+00
(PID.TID 0000.0001) %MON seaice_hsalt_del2            =   0.0000000000000E+00
(PID.TID 0000.0001) // =======================================================
(PID.TID 0000.0001) // End MONITOR SEAICE statistics
(PID.TID 0000.0001) // =======================================================
(PID.TID 0000.0001) // =======================================================
(PID.TID 0000.0001) // Begin MONITOR EXF statistics
(PID.TID 0000.0001) // =======================================================
(PID.TID 0000.0001) %MON exf_tsnumber                 =                     7
(PID.TID 0000.0001) %MON exf_time_sec                 =   2.5200000000000E+04
(PID.TID 0000.0001) %MON exf_ustress_max              =   5.9519379137527E-03
(PID.TID 0000.0001) %MON exf_ustress_min              =   5.9519379137527E-03
(PID.TID 0000.0001) %MON exf_ustress_mean             =   5.9519379137527E-03
(PID.TID 0000.0001) %MON exf_ustress_sd               =   0.0000000000000E+00
(PID.TID 0000.0001) %MON exf_ustress_del2             =   0.0000000000000E+00
(PID.TID 0000.0001) %MON exf_vstress_max              =   5.9519379137527E-03
(PID.TID 0000.0001) %MON exf_vstress_min              =   5.9519379137527E-03
(PID.TID 0000.0001) %MON exf_vstress_mean             =   5.9519379137527E-03
(PID.TID 0000.0001) %MON exf_vstress_sd               =   0.0000000000000E+00
(PID.TID 0000.0001) %MON exf_vstress_del2             =   0.0000000000000E+00
(PID.TID 0000.0001) %MON exf_hflux_max                =   2.3746969972425E+02
(PID.TID 0000.0001) %MON exf_hflux_min                =   2.3746969972425E+02
(PID.TID 0000.0001) %MON exf_hflux_mean               =   2.3746969972425E+02
(PID.TID 0000.0001) %MON exf_hflux_sd                 =   0.0000000000000E+00
(PID.TID 0000.0001) %MON exf_hflux_del2               =   6.7166574000541E+02
(PID.TID 0000.0001) %MON exf_sflux_max                =   2.0697923954877E-08
(PID.TID 0000.0001) %MON exf_sflux_min                =   2.0697923954877E-08
(PID.TID 0000.0001) %MON exf_sflux_mean               =   2.0697923954877E-08
(PID.TID 0000.0001) %MON exf_sflux_sd                 =   3.3087224502121E-24
(PID.TID 0000.0001) %MON exf_sflux_del2               =   5.8542569539908E-08
(PID.TID 0000.0001) %MON exf_uwind_max                =   1.0000000000000E+00
(PID.TID 0000.0001) %MON exf_uwind_min                =   1.0000000000000E+00
(PID.TID 0000.0001) %MON exf_uwind_mean               =   1.0000000000000E+00
(PID.TID 0000.0001) %MON exf_uwind_sd                 =   0.0000000000000E+00
(PID.TID 0000.0001) %MON exf_uwind_del2               =   0.0000000000000E+00
(PID.TID 0000.0001) %MON exf_vwind_max                =   1.0000000000000E+00
(PID.TID 0000.0001) %MON exf_vwind_min                =   1.0000000000000E+00
(PID.TID 0000.0001) %MON exf_vwind_mean               =   1.0000000000000E+00
(PID.TID 0000.0001) %MON exf_vwind_sd                 =   0.0000000000000E+00
(PID.TID 0000.0001) %MON exf_vwind_del2               =   0.0000000000000E+00
(PID.TID 0000.0001) %MON exf_wspeed_max               =   1.4142135623731E+00
(PID.TID 0000.0001) %MON exf_wspeed_min               =   1.4142135623731E+00
(PID.TID 0000.0001) %MON exf_wspeed_mean              =   1.4142135623731E+00
(PID.TID 0000.0001) %MON exf_wspeed_sd                =   0.0000000000000E+00
(PID.TID 0000.0001) %MON exf_wspeed_del2              =   4.0000000000000E+00
(PID.TID 0000.0001) %MON exf_atemp_max                =   2.5303187942505E+02
(PID.TID 0000.0001) %MON exf_atemp_min                =   2.5303187942505E+02
(PID.TID 0000.0001) %MON exf_atemp_mean               =   2.5303187942505E+02
(PID.TID 0000.0001) %MON exf_atemp_sd                 =   0.0000000000000E+00
(PID.TID 0000.0001) %MON exf_atemp_del2               =   5.6930922204354E+01
(PID.TID 0000.0001) %MON exf_lwflux_max               =   1.0637180325952E+02
(PID.TID 0000.0001) %MON exf_lwflux_min               =   1.0637180325952E+02
(PID.TID 0000.0001) %MON exf_lwflux_mean              =   1.0637180325952E+02
(PID.TID 0000.0001) %MON exf_lwflux_sd                =   0.0000000000000E+00
(PID.TID 0000.0001) %MON exf_lwflux_del2              =   3.0086489364740E+02
(PID.TID 0000.0001) %MON exf_evap_max                 =   2.0697923954877E-08
(PID.TID 0000.0001) %MON exf_evap_min                 =   2.0697923954877E-08
(PID.TID 0000.0001) %MON exf_evap_mean                =   2.0697923954877E-08
(PID.TID 0000.0001) %MON exf_evap_sd                  =   3.3087224502121E-24
(PID.TID 0000.0001) %MON exf_evap_del2                =   5.8542569539908E-08
(PID.TID 0000.0001) %MON exf_swflux_max               =  -1.9664311623573E+01
(PID.TID 0000.0001) %MON exf_swflux_min               =  -1.9664311623573E+01
(PID.TID 0000.0001) %MON exf_swflux_mean              =  -1.9664311623573E+01
(PID.TID 0000.0001) %MON exf_swflux_sd                =   0.0000000000000E+00
(PID.TID 0000.0001) %MON exf_swflux_del2              =   5.5619072385577E+01
(PID.TID 0000.0001) %MON exf_swdown_max               =   2.1849235137304E+01
(PID.TID 0000.0001) %MON exf_swdown_min               =   2.1849235137304E+01
(PID.TID 0000.0001) %MON exf_swdown_mean              =   2.1849235137304E+01
(PID.TID 0000.0001) %MON exf_swdown_sd                =   0.0000000000000E+00
(PID.TID 0000.0001) %MON exf_swdown_del2              =   6.1798969317307E+01
(PID.TID 0000.0001) %MON exf_lwdown_max               =   1.9136418406169E+02
(PID.TID 0000.0001) %MON exf_lwdown_min               =   1.9136418406169E+02
(PID.TID 0000.0001) %MON exf_lwdown_mean              =   1.9136418406169E+02
(PID.TID 0000.0001) %MON exf_lwdown_sd                =   0.0000000000000E+00
(PID.TID 0000.0001) %MON exf_lwdown_del2              =   5.4125964890500E+02
(PID.TID 0000.0001) // =======================================================
(PID.TID 0000.0001) // End MONITOR EXF statistics
(PID.TID 0000.0001) // =======================================================
 ph-ice B            7  -1.9016154564554340        4.1055161936191353E-002   7.8418755341513741E-003
 ph-ice C            7   449529.16830099531     
 cg2d: Sum(rhs),rhsMax =   1.00000000000000E+00  2.82561093781394E-05
(PID.TID 0000.0001)      cg2d_init_res =   5.92060098024375E-02
(PID.TID 0000.0001)      cg2d_iters(min,last) =      -1       1
(PID.TID 0000.0001)      cg2d_last_res =   0.00000000000000E+00
(PID.TID 0000.0001) // =======================================================
(PID.TID 0000.0001) // Begin MONITOR dynamic field statistics
(PID.TID 0000.0001) // =======================================================
(PID.TID 0000.0001) %MON time_tsnumber                =                     8
(PID.TID 0000.0001) %MON time_secondsf                =   2.8800000000000E+04
(PID.TID 0000.0001) %MON dynstat_eta_max              =  -7.5182155945908E-03
(PID.TID 0000.0001) %MON dynstat_eta_min              =  -7.5182155945908E-03
(PID.TID 0000.0001) %MON dynstat_eta_mean             =  -7.5182155945908E-03
(PID.TID 0000.0001) %MON dynstat_eta_sd               =   0.0000000000000E+00
(PID.TID 0000.0001) %MON dynstat_eta_del2             =   0.0000000000000E+00
(PID.TID 0000.0001) %MON dynstat_uvel_max             =   6.6283323978702E-03
(PID.TID 0000.0001) %MON dynstat_uvel_min             =  -3.7625030034864E-06
(PID.TID 0000.0001) %MON dynstat_uvel_mean            =   2.2841371133822E-04
(PID.TID 0000.0001) %MON dynstat_uvel_sd              =   1.0485973536302E-03
(PID.TID 0000.0001) %MON dynstat_uvel_del2            =   0.0000000000000E+00
(PID.TID 0000.0001) %MON dynstat_vvel_max             =  -7.2500745070497E-68
(PID.TID 0000.0001) %MON dynstat_vvel_min             =  -3.9997377609614E-03
(PID.TID 0000.0001) %MON dynstat_vvel_mean            =  -2.1750374472894E-04
(PID.TID 0000.0001) %MON dynstat_vvel_sd              =   8.4137815055131E-04
(PID.TID 0000.0001) %MON dynstat_vvel_del2            =   0.0000000000000E+00
(PID.TID 0000.0001) %MON dynstat_wvel_max             =  -0.0000000000000E+00
(PID.TID 0000.0001) %MON dynstat_wvel_min             =  -0.0000000000000E+00
(PID.TID 0000.0001) %MON dynstat_wvel_mean            =   0.0000000000000E+00
(PID.TID 0000.0001) %MON dynstat_wvel_sd              =   0.0000000000000E+00
(PID.TID 0000.0001) %MON dynstat_wvel_del2            =   0.0000000000000E+00
(PID.TID 0000.0001) %MON dynstat_theta_max            =   4.9999999999573E-01
(PID.TID 0000.0001) %MON dynstat_theta_min            =  -1.8993863545762E+00
(PID.TID 0000.0001) %MON dynstat_theta_mean           =  -4.2602218778764E-01
(PID.TID 0000.0001) %MON dynstat_theta_sd             =   8.7952365767176E-01
(PID.TID 0000.0001) %MON dynstat_theta_del2           =   0.0000000000000E+00
(PID.TID 0000.0001) %MON dynstat_salt_max             =   3.4799999999999E+01
(PID.TID 0000.0001) %MON dynstat_salt_min             =   2.9019021325323E+01
(PID.TID 0000.0001) %MON dynstat_salt_mean            =   3.3593351596988E+01
(PID.TID 0000.0001) %MON dynstat_salt_sd              =   1.6842977264819E+00
(PID.TID 0000.0001) %MON dynstat_salt_del2            =   0.0000000000000E+00
(PID.TID 0000.0001) %MON dynstat_sst_max              =  -1.8993863545762E+00
(PID.TID 0000.0001) %MON dynstat_sst_min              =  -1.8993863545762E+00
(PID.TID 0000.0001) %MON dynstat_sst_mean             =  -1.8993863545762E+00
(PID.TID 0000.0001) %MON dynstat_sst_sd               =   0.0000000000000E+00
(PID.TID 0000.0001) %MON dynstat_sst_del2             =   0.0000000000000E+00
(PID.TID 0000.0001) %MON dynstat_sss_max              =   2.9019021325323E+01
(PID.TID 0000.0001) %MON dynstat_sss_min              =   2.9019021325323E+01
(PID.TID 0000.0001) %MON dynstat_sss_mean             =   2.9019021325323E+01
(PID.TID 0000.0001) %MON dynstat_sss_sd               =   0.0000000000000E+00
(PID.TID 0000.0001) %MON dynstat_sss_del2             =   0.0000000000000E+00
(PID.TID 0000.0001) %MON forcing_qnet_max             =   1.9779128134981E+02
(PID.TID 0000.0001) %MON forcing_qnet_min             =   1.9779128134981E+02
(PID.TID 0000.0001) %MON forcing_qnet_mean            =   1.9779128134981E+02
(PID.TID 0000.0001) %MON forcing_qnet_sd              =   0.0000000000000E+00
(PID.TID 0000.0001) %MON forcing_qnet_del2            =   0.0000000000000E+00
(PID.TID 0000.0001) %MON forcing_qsw_max              =  -1.9007111996338E+01
(PID.TID 0000.0001) %MON forcing_qsw_min              =  -1.9007111996338E+01
(PID.TID 0000.0001) %MON forcing_qsw_mean             =  -1.9007111996338E+01
(PID.TID 0000.0001) %MON forcing_qsw_sd               =   0.0000000000000E+00
(PID.TID 0000.0001) %MON forcing_qsw_del2             =   0.0000000000000E+00
(PID.TID 0000.0001) %MON forcing_empmr_max            =   1.2698385609086E-04
(PID.TID 0000.0001) %MON forcing_empmr_min            =   1.2698385609086E-04
(PID.TID 0000.0001) %MON forcing_empmr_mean           =   1.2698385609086E-04
(PID.TID 0000.0001) %MON forcing_empmr_sd             =   0.0000000000000E+00
(PID.TID 0000.0001) %MON forcing_empmr_del2           =   0.0000000000000E+00
(PID.TID 0000.0001) %MON forcing_fu_max               =   5.7379182928829E-03
(PID.TID 0000.0001) %MON forcing_fu_min               =   5.7379182928829E-03
(PID.TID 0000.0001) %MON forcing_fu_mean              =   5.7379182928829E-03
(PID.TID 0000.0001) %MON forcing_fu_sd                =   0.0000000000000E+00
(PID.TID 0000.0001) %MON forcing_fu_del2              =   0.0000000000000E+00
(PID.TID 0000.0001) %MON forcing_fv_max               =   5.7379182928829E-03
(PID.TID 0000.0001) %MON forcing_fv_min               =   5.7379182928829E-03
(PID.TID 0000.0001) %MON forcing_fv_mean              =   5.7379182928829E-03
(PID.TID 0000.0001) %MON forcing_fv_sd                =   0.0000000000000E+00
(PID.TID 0000.0001) %MON forcing_fv_del2              =   0.0000000000000E+00
(PID.TID 0000.0001) %MON trAdv_CFL_u_max              =   4.7723993264666E-03
(PID.TID 0000.0001) %MON trAdv_CFL_v_max              =   2.8798111878922E-03
(PID.TID 0000.0001) %MON trAdv_CFL_w_max              =   0.0000000000000E+00
(PID.TID 0000.0001) %MON advcfl_uvel_max              =   4.7723993264666E-03
(PID.TID 0000.0001) %MON advcfl_vvel_max              =   2.8798111878922E-03
(PID.TID 0000.0001) %MON advcfl_wvel_max              =   0.0000000000000E+00
(PID.TID 0000.0001) %MON advcfl_W_hf_max              =   0.0000000000000E+00
(PID.TID 0000.0001) %MON pe_b_mean                    =  -4.5856591378556E-07
(PID.TID 0000.0001) %MON ke_max                       =   2.6832256556182E-05
(PID.TID 0000.0001) %MON ke_mean                      =   9.5347715238196E-07
(PID.TID 0000.0001) %MON ke_vol                       =   1.2831500000000E+10
(PID.TID 0000.0001) %MON vort_r_min                   =   0.0000000000000E+00
(PID.TID 0000.0001) %MON vort_r_max                   =   0.0000000000000E+00
(PID.TID 0000.0001) %MON vort_a_mean                  =   1.0000000000000E-04
(PID.TID 0000.0001) %MON vort_a_sd                    =   0.0000000000000E+00
(PID.TID 0000.0001) %MON vort_p_mean                  =   1.0000000000000E-04
(PID.TID 0000.0001) %MON vort_p_sd                    =   0.0000000000000E+00
(PID.TID 0000.0001) %MON surfExpan_theta_mean         =   0.0000000000000E+00
(PID.TID 0000.0001) %MON surfExpan_salt_mean          =   0.0000000000000E+00
(PID.TID 0000.0001) // =======================================================
(PID.TID 0000.0001) // End MONITOR dynamic field statistics
(PID.TID 0000.0001) // =======================================================
(PID.TID 0000.0001) // =======================================================
(PID.TID 0000.0001) // Begin MONITOR SEAICE statistics
(PID.TID 0000.0001) // =======================================================
(PID.TID 0000.0001) %MON seaice_tsnumber              =                     8
(PID.TID 0000.0001) %MON seaice_time_sec              =   2.8800000000000E+04
(PID.TID 0000.0001) %MON seaice_area_max              =   4.1055161936191E-02
(PID.TID 0000.0001) %MON seaice_area_min              =   4.1055161936191E-02
(PID.TID 0000.0001) %MON seaice_area_mean             =   4.1055161936191E-02
(PID.TID 0000.0001) %MON seaice_area_sd               =   0.0000000000000E+00
(PID.TID 0000.0001) %MON seaice_area_del2             =   0.0000000000000E+00
(PID.TID 0000.0001) %MON seaice_heff_max              =   7.8418755341514E-03
(PID.TID 0000.0001) %MON seaice_heff_min              =   7.8418755341514E-03
(PID.TID 0000.0001) %MON seaice_heff_mean             =   7.8418755341514E-03
(PID.TID 0000.0001) %MON seaice_heff_sd               =   0.0000000000000E+00
(PID.TID 0000.0001) %MON seaice_heff_del2             =   0.0000000000000E+00
(PID.TID 0000.0001) %MON seaice_hsnow_max             =   0.0000000000000E+00
(PID.TID 0000.0001) %MON seaice_hsnow_min             =   0.0000000000000E+00
(PID.TID 0000.0001) %MON seaice_hsnow_mean            =   0.0000000000000E+00
(PID.TID 0000.0001) %MON seaice_hsnow_sd              =   0.0000000000000E+00
(PID.TID 0000.0001) %MON seaice_hsnow_del2            =   0.0000000000000E+00
(PID.TID 0000.0001) %MON seaice_hsalt_max             =   6.2109161099406E+01
(PID.TID 0000.0001) %MON seaice_hsalt_min             =   6.2109161099406E+01
(PID.TID 0000.0001) %MON seaice_hsalt_mean            =   6.2109161099406E+01
(PID.TID 0000.0001) %MON seaice_hsalt_sd              =   0.0000000000000E+00
(PID.TID 0000.0001) %MON seaice_hsalt_del2            =   0.0000000000000E+00
(PID.TID 0000.0001) // =======================================================
(PID.TID 0000.0001) // End MONITOR SEAICE statistics
(PID.TID 0000.0001) // =======================================================
(PID.TID 0000.0001) // =======================================================
(PID.TID 0000.0001) // Begin MONITOR EXF statistics
(PID.TID 0000.0001) // =======================================================
(PID.TID 0000.0001) %MON exf_tsnumber                 =                     8
(PID.TID 0000.0001) %MON exf_time_sec                 =   2.8800000000000E+04
(PID.TID 0000.0001) %MON exf_ustress_max              =   5.9518310852750E-03
(PID.TID 0000.0001) %MON exf_ustress_min              =   5.9518310852750E-03
(PID.TID 0000.0001) %MON exf_ustress_mean             =   5.9518310852750E-03
(PID.TID 0000.0001) %MON exf_ustress_sd               =   0.0000000000000E+00
(PID.TID 0000.0001) %MON exf_ustress_del2             =   0.0000000000000E+00
(PID.TID 0000.0001) %MON exf_vstress_max              =   5.9518310852750E-03
(PID.TID 0000.0001) %MON exf_vstress_min              =   5.9518310852750E-03
(PID.TID 0000.0001) %MON exf_vstress_mean             =   5.9518310852750E-03
(PID.TID 0000.0001) %MON exf_vstress_sd               =   0.0000000000000E+00
(PID.TID 0000.0001) %MON exf_vstress_del2             =   0.0000000000000E+00
(PID.TID 0000.0001) %MON exf_hflux_max                =   2.3740750930748E+02
(PID.TID 0000.0001) %MON exf_hflux_min                =   2.3740750930748E+02
(PID.TID 0000.0001) %MON exf_hflux_mean               =   2.3740750930748E+02
(PID.TID 0000.0001) %MON exf_hflux_sd                 =   0.0000000000000E+00
(PID.TID 0000.0001) %MON exf_hflux_del2               =   6.7148983894370E+02
(PID.TID 0000.0001) %MON exf_sflux_max                =   2.0700580283370E-08
(PID.TID 0000.0001) %MON exf_sflux_min                =   2.0700580283370E-08
(PID.TID 0000.0001) %MON exf_sflux_mean               =   2.0700580283370E-08
(PID.TID 0000.0001) %MON exf_sflux_sd                 =   0.0000000000000E+00
(PID.TID 0000.0001) %MON exf_sflux_del2               =   5.8550082771469E-08
(PID.TID 0000.0001) %MON exf_uwind_max                =   1.0000000000000E+00
(PID.TID 0000.0001) %MON exf_uwind_min                =   1.0000000000000E+00
(PID.TID 0000.0001) %MON exf_uwind_mean               =   1.0000000000000E+00
(PID.TID 0000.0001) %MON exf_uwind_sd                 =   0.0000000000000E+00
(PID.TID 0000.0001) %MON exf_uwind_del2               =   0.0000000000000E+00
(PID.TID 0000.0001) %MON exf_vwind_max                =   1.0000000000000E+00
(PID.TID 0000.0001) %MON exf_vwind_min                =   1.0000000000000E+00
(PID.TID 0000.0001) %MON exf_vwind_mean               =   1.0000000000000E+00
(PID.TID 0000.0001) %MON exf_vwind_sd                 =   0.0000000000000E+00
(PID.TID 0000.0001) %MON exf_vwind_del2               =   0.0000000000000E+00
(PID.TID 0000.0001) %MON exf_wspeed_max               =   1.4142135623731E+00
(PID.TID 0000.0001) %MON exf_wspeed_min               =   1.4142135623731E+00
(PID.TID 0000.0001) %MON exf_wspeed_mean              =   1.4142135623731E+00
(PID.TID 0000.0001) %MON exf_wspeed_sd                =   0.0000000000000E+00
(PID.TID 0000.0001) %MON exf_wspeed_del2              =   4.0000000000000E+00
(PID.TID 0000.0001) %MON exf_atemp_max                =   2.5303627777100E+02
(PID.TID 0000.0001) %MON exf_atemp_min                =   2.5303627777100E+02
(PID.TID 0000.0001) %MON exf_atemp_mean               =   2.5303627777100E+02
(PID.TID 0000.0001) %MON exf_atemp_sd                 =   0.0000000000000E+00
(PID.TID 0000.0001) %MON exf_atemp_del2               =   5.6918481803373E+01
(PID.TID 0000.0001) %MON exf_lwflux_max               =   1.0635203166384E+02
(PID.TID 0000.0001) %MON exf_lwflux_min               =   1.0635203166384E+02
(PID.TID 0000.0001) %MON exf_lwflux_mean              =   1.0635203166384E+02
(PID.TID 0000.0001) %MON exf_lwflux_sd                =   0.0000000000000E+00
(PID.TID 0000.0001) %MON exf_lwflux_del2              =   3.0080897112988E+02
(PID.TID 0000.0001) %MON exf_evap_max                 =   2.0700580283370E-08
(PID.TID 0000.0001) %MON exf_evap_min                 =   2.0700580283370E-08
(PID.TID 0000.0001) %MON exf_evap_mean                =   2.0700580283370E-08
(PID.TID 0000.0001) %MON exf_evap_sd                  =   0.0000000000000E+00
(PID.TID 0000.0001) %MON exf_evap_del2                =   5.8550082771469E-08
(PID.TID 0000.0001) %MON exf_swflux_max               =  -1.9699106168747E+01
(PID.TID 0000.0001) %MON exf_swflux_min               =  -1.9699106168747E+01
(PID.TID 0000.0001) %MON exf_swflux_mean              =  -1.9699106168747E+01
(PID.TID 0000.0001) %MON exf_swflux_sd                =   0.0000000000000E+00
(PID.TID 0000.0001) %MON exf_swflux_del2              =   5.5717486220939E+01
(PID.TID 0000.0001) %MON exf_swdown_max               =   2.1887895743052E+01
(PID.TID 0000.0001) %MON exf_swdown_min               =   2.1887895743052E+01
(PID.TID 0000.0001) %MON exf_swdown_mean              =   2.1887895743052E+01
(PID.TID 0000.0001) %MON exf_swdown_sd                =   0.0000000000000E+00
(PID.TID 0000.0001) %MON exf_swdown_del2              =   6.1908318023265E+01
(PID.TID 0000.0001) %MON exf_lwdown_max               =   1.9139374287923E+02
(PID.TID 0000.0001) %MON exf_lwdown_min               =   1.9139374287923E+02
(PID.TID 0000.0001) %MON exf_lwdown_mean              =   1.9139374287923E+02
(PID.TID 0000.0001) %MON exf_lwdown_sd                =   0.0000000000000E+00
(PID.TID 0000.0001) %MON exf_lwdown_del2              =   5.4134325386632E+02
(PID.TID 0000.0001) // =======================================================
(PID.TID 0000.0001) // End MONITOR EXF statistics
(PID.TID 0000.0001) // =======================================================
 ph-ice B            8  -1.8993863545762131        4.6044938105818792E-002   8.1783287879379201E-003
 ph-ice C            8   564638.31608921487     
 cg2d: Sum(rhs),rhsMax =   1.00000000000000E+00  2.96380296384798E-05
(PID.TID 0000.0001)      cg2d_init_res =   4.66265901341102E-02
(PID.TID 0000.0001)      cg2d_iters(min,last) =      -1       1
(PID.TID 0000.0001)      cg2d_last_res =   0.00000000000000E+00
(PID.TID 0000.0001) // =======================================================
(PID.TID 0000.0001) // Begin MONITOR dynamic field statistics
(PID.TID 0000.0001) // =======================================================
(PID.TID 0000.0001) %MON time_tsnumber                =                     9
(PID.TID 0000.0001) %MON time_secondsf                =   3.2400000000000E+04
(PID.TID 0000.0001) %MON dynstat_eta_max              =  -7.8859086238289E-03
(PID.TID 0000.0001) %MON dynstat_eta_min              =  -7.8859086238289E-03
(PID.TID 0000.0001) %MON dynstat_eta_mean             =  -7.8859086238289E-03
(PID.TID 0000.0001) %MON dynstat_eta_sd               =   0.0000000000000E+00
(PID.TID 0000.0001) %MON dynstat_eta_del2             =   0.0000000000000E+00
(PID.TID 0000.0001) %MON dynstat_uvel_max             =   5.8347612974154E-03
(PID.TID 0000.0001) %MON dynstat_uvel_min             =  -1.5872594802552E-04
(PID.TID 0000.0001) %MON dynstat_uvel_mean            =   1.7754708321846E-04
(PID.TID 0000.0001) %MON dynstat_uvel_sd              =   8.8766770197166E-04
(PID.TID 0000.0001) %MON dynstat_uvel_del2            =   0.0000000000000E+00
(PID.TID 0000.0001) %MON dynstat_vvel_max             =  -3.8067775520542E-68
(PID.TID 0000.0001) %MON dynstat_vvel_min             =  -4.6002222963140E-03
(PID.TID 0000.0001) %MON dynstat_vvel_mean            =  -2.5362334042691E-04
(PID.TID 0000.0001) %MON dynstat_vvel_sd              =   9.7541318297548E-04
(PID.TID 0000.0001) %MON dynstat_vvel_del2            =   0.0000000000000E+00
(PID.TID 0000.0001) %MON dynstat_wvel_max             =  -0.0000000000000E+00
(PID.TID 0000.0001) %MON dynstat_wvel_min             =  -0.0000000000000E+00
(PID.TID 0000.0001) %MON dynstat_wvel_mean            =   0.0000000000000E+00
(PID.TID 0000.0001) %MON dynstat_wvel_sd              =   0.0000000000000E+00
(PID.TID 0000.0001) %MON dynstat_wvel_del2            =   0.0000000000000E+00
(PID.TID 0000.0001) %MON dynstat_theta_max            =   4.9999999999525E-01
(PID.TID 0000.0001) %MON dynstat_theta_min            =  -1.8965950699717E+00
(PID.TID 0000.0001) %MON dynstat_theta_mean           =  -4.2637258002798E-01
(PID.TID 0000.0001) %MON dynstat_theta_sd             =   8.7986178133719E-01
(PID.TID 0000.0001) %MON dynstat_theta_del2           =   0.0000000000000E+00
(PID.TID 0000.0001) %MON dynstat_salt_max             =   3.4799999999998E+01
(PID.TID 0000.0001) %MON dynstat_salt_min             =   2.9020055168249E+01
(PID.TID 0000.0001) %MON dynstat_salt_mean            =   3.3593367329208E+01
(PID.TID 0000.0001) %MON dynstat_salt_sd              =   1.6842537610863E+00
(PID.TID 0000.0001) %MON dynstat_salt_del2            =   0.0000000000000E+00
(PID.TID 0000.0001) %MON dynstat_sst_max              =  -1.8965950699717E+00
(PID.TID 0000.0001) %MON dynstat_sst_min              =  -1.8965950699717E+00
(PID.TID 0000.0001) %MON dynstat_sst_mean             =  -1.8965950699717E+00
(PID.TID 0000.0001) %MON dynstat_sst_sd               =   0.0000000000000E+00
(PID.TID 0000.0001) %MON dynstat_sst_del2             =   0.0000000000000E+00
(PID.TID 0000.0001) %MON dynstat_sss_max              =   2.9020055168249E+01
(PID.TID 0000.0001) %MON dynstat_sss_min              =   2.9020055168249E+01
(PID.TID 0000.0001) %MON dynstat_sss_mean             =   2.9020055168249E+01
(PID.TID 0000.0001) %MON dynstat_sss_sd               =   0.0000000000000E+00
(PID.TID 0000.0001) %MON dynstat_sss_del2             =   0.0000000000000E+00
(PID.TID 0000.0001) %MON forcing_qnet_max             =   2.0450180081125E+02
(PID.TID 0000.0001) %MON forcing_qnet_min             =   2.0450180081125E+02
(PID.TID 0000.0001) %MON forcing_qnet_mean            =   2.0450180081125E+02
(PID.TID 0000.0001) %MON forcing_qnet_sd              =   2.8421709430404E-14
(PID.TID 0000.0001) %MON forcing_qnet_del2            =   0.0000000000000E+00
(PID.TID 0000.0001) %MON forcing_qsw_max              =  -1.8947330020761E+01
(PID.TID 0000.0001) %MON forcing_qsw_min              =  -1.8947330020761E+01
(PID.TID 0000.0001) %MON forcing_qsw_mean             =  -1.8947330020761E+01
(PID.TID 0000.0001) %MON forcing_qsw_sd               =   0.0000000000000E+00
(PID.TID 0000.0001) %MON forcing_qsw_del2             =   0.0000000000000E+00
(PID.TID 0000.0001) %MON forcing_empmr_max            =   1.0489465028301E-04
(PID.TID 0000.0001) %MON forcing_empmr_min            =   1.0489465028301E-04
(PID.TID 0000.0001) %MON forcing_empmr_mean           =   1.0489465028301E-04
(PID.TID 0000.0001) %MON forcing_empmr_sd             =   0.0000000000000E+00
(PID.TID 0000.0001) %MON forcing_empmr_del2           =   0.0000000000000E+00
(PID.TID 0000.0001) %MON forcing_fu_max               =   5.7074776962522E-03
(PID.TID 0000.0001) %MON forcing_fu_min               =   5.7074776962522E-03
(PID.TID 0000.0001) %MON forcing_fu_mean              =   5.7074776962522E-03
(PID.TID 0000.0001) %MON forcing_fu_sd                =   0.0000000000000E+00
(PID.TID 0000.0001) %MON forcing_fu_del2              =   0.0000000000000E+00
(PID.TID 0000.0001) %MON forcing_fv_max               =   5.7074776962522E-03
(PID.TID 0000.0001) %MON forcing_fv_min               =   5.7074776962522E-03
(PID.TID 0000.0001) %MON forcing_fv_mean              =   5.7074776962522E-03
(PID.TID 0000.0001) %MON forcing_fv_sd                =   0.0000000000000E+00
(PID.TID 0000.0001) %MON forcing_fv_del2              =   0.0000000000000E+00
(PID.TID 0000.0001) %MON trAdv_CFL_u_max              =   4.2010281341391E-03
(PID.TID 0000.0001) %MON trAdv_CFL_v_max              =   3.3121600533461E-03
(PID.TID 0000.0001) %MON trAdv_CFL_w_max              =   0.0000000000000E+00
(PID.TID 0000.0001) %MON advcfl_uvel_max              =   4.2010281341391E-03
(PID.TID 0000.0001) %MON advcfl_vvel_max              =   3.3121600533461E-03
(PID.TID 0000.0001) %MON advcfl_wvel_max              =   0.0000000000000E+00
(PID.TID 0000.0001) %MON advcfl_W_hf_max              =   0.0000000000000E+00
(PID.TID 0000.0001) %MON pe_b_mean                    =  -4.9822707443909E-07
(PID.TID 0000.0001) %MON ke_max                       =   2.4201507076926E-05
(PID.TID 0000.0001) %MON ke_mean                      =   9.1761629610735E-07
(PID.TID 0000.0001) %MON ke_vol                       =   1.2831500000000E+10
(PID.TID 0000.0001) %MON vort_r_min                   =   0.0000000000000E+00
(PID.TID 0000.0001) %MON vort_r_max                   =   0.0000000000000E+00
(PID.TID 0000.0001) %MON vort_a_mean                  =   1.0000000000000E-04
(PID.TID 0000.0001) %MON vort_a_sd                    =   0.0000000000000E+00
(PID.TID 0000.0001) %MON vort_p_mean                  =   1.0000000000000E-04
(PID.TID 0000.0001) %MON vort_p_sd                    =   0.0000000000000E+00
(PID.TID 0000.0001) %MON surfExpan_theta_mean         =   0.0000000000000E+00
(PID.TID 0000.0001) %MON surfExpan_salt_mean          =   0.0000000000000E+00
(PID.TID 0000.0001) // =======================================================
(PID.TID 0000.0001) // End MONITOR dynamic field statistics
(PID.TID 0000.0001) // =======================================================
(PID.TID 0000.0001) // =======================================================
(PID.TID 0000.0001) // Begin MONITOR SEAICE statistics
(PID.TID 0000.0001) // =======================================================
(PID.TID 0000.0001) %MON seaice_tsnumber              =                     9
(PID.TID 0000.0001) %MON seaice_time_sec              =   3.2400000000000E+04
(PID.TID 0000.0001) %MON seaice_area_max              =   4.6044938105819E-02
(PID.TID 0000.0001) %MON seaice_area_min              =   4.6044938105819E-02
(PID.TID 0000.0001) %MON seaice_area_mean             =   4.6044938105819E-02
(PID.TID 0000.0001) %MON seaice_area_sd               =   0.0000000000000E+00
(PID.TID 0000.0001) %MON seaice_area_del2             =   0.0000000000000E+00
(PID.TID 0000.0001) %MON seaice_heff_max              =   8.1783287879379E-03
(PID.TID 0000.0001) %MON seaice_heff_min              =   8.1783287879379E-03
(PID.TID 0000.0001) %MON seaice_heff_mean             =   8.1783287879379E-03
(PID.TID 0000.0001) %MON seaice_heff_sd               =   0.0000000000000E+00
(PID.TID 0000.0001) %MON seaice_heff_del2             =   0.0000000000000E+00
(PID.TID 0000.0001) %MON seaice_hsnow_max             =   0.0000000000000E+00
(PID.TID 0000.0001) %MON seaice_hsnow_min             =   0.0000000000000E+00
(PID.TID 0000.0001) %MON seaice_hsnow_mean            =   0.0000000000000E+00
(PID.TID 0000.0001) %MON seaice_hsnow_sd              =   0.0000000000000E+00
(PID.TID 0000.0001) %MON seaice_hsnow_del2            =   0.0000000000000E+00
(PID.TID 0000.0001) %MON seaice_hsalt_max             =   6.4774608651429E+01
(PID.TID 0000.0001) %MON seaice_hsalt_min             =   6.4774608651429E+01
(PID.TID 0000.0001) %MON seaice_hsalt_mean            =   6.4774608651429E+01
(PID.TID 0000.0001) %MON seaice_hsalt_sd              =   0.0000000000000E+00
(PID.TID 0000.0001) %MON seaice_hsalt_del2            =   0.0000000000000E+00
(PID.TID 0000.0001) // =======================================================
(PID.TID 0000.0001) // End MONITOR SEAICE statistics
(PID.TID 0000.0001) // =======================================================
(PID.TID 0000.0001) // =======================================================
(PID.TID 0000.0001) // Begin MONITOR EXF statistics
(PID.TID 0000.0001) // =======================================================
(PID.TID 0000.0001) %MON exf_tsnumber                 =                     9
(PID.TID 0000.0001) %MON exf_time_sec                 =   3.2400000000000E+04
(PID.TID 0000.0001) %MON exf_ustress_max              =   5.9517503357353E-03
(PID.TID 0000.0001) %MON exf_ustress_min              =   5.9517503357353E-03
(PID.TID 0000.0001) %MON exf_ustress_mean             =   5.9517503357353E-03
(PID.TID 0000.0001) %MON exf_ustress_sd               =   0.0000000000000E+00
(PID.TID 0000.0001) %MON exf_ustress_del2             =   0.0000000000000E+00
(PID.TID 0000.0001) %MON exf_vstress_max              =   5.9517503357353E-03
(PID.TID 0000.0001) %MON exf_vstress_min              =   5.9517503357353E-03
(PID.TID 0000.0001) %MON exf_vstress_mean             =   5.9517503357353E-03
(PID.TID 0000.0001) %MON exf_vstress_sd               =   0.0000000000000E+00
(PID.TID 0000.0001) %MON exf_vstress_del2             =   0.0000000000000E+00
(PID.TID 0000.0001) %MON exf_hflux_max                =   2.3735380160666E+02
(PID.TID 0000.0001) %MON exf_hflux_min                =   2.3735380160666E+02
(PID.TID 0000.0001) %MON exf_hflux_mean               =   2.3735380160666E+02
(PID.TID 0000.0001) %MON exf_hflux_sd                 =   0.0000000000000E+00
(PID.TID 0000.0001) %MON exf_hflux_del2               =   6.7133793062591E+02
(PID.TID 0000.0001) %MON exf_sflux_max                =   2.0704178331396E-08
(PID.TID 0000.0001) %MON exf_sflux_min                =   2.0704178331396E-08
(PID.TID 0000.0001) %MON exf_sflux_mean               =   2.0704178331396E-08
(PID.TID 0000.0001) %MON exf_sflux_sd                 =   0.0000000000000E+00
(PID.TID 0000.0001) %MON exf_sflux_del2               =   5.8560259588102E-08
(PID.TID 0000.0001) %MON exf_uwind_max                =   1.0000000000000E+00
(PID.TID 0000.0001) %MON exf_uwind_min                =   1.0000000000000E+00
(PID.TID 0000.0001) %MON exf_uwind_mean               =   1.0000000000000E+00
(PID.TID 0000.0001) %MON exf_uwind_sd                 =   0.0000000000000E+00
(PID.TID 0000.0001) %MON exf_uwind_del2               =   0.0000000000000E+00
(PID.TID 0000.0001) %MON exf_vwind_max                =   1.0000000000000E+00
(PID.TID 0000.0001) %MON exf_vwind_min                =   1.0000000000000E+00
(PID.TID 0000.0001) %MON exf_vwind_mean               =   1.0000000000000E+00
(PID.TID 0000.0001) %MON exf_vwind_sd                 =   0.0000000000000E+00
(PID.TID 0000.0001) %MON exf_vwind_del2               =   0.0000000000000E+00
(PID.TID 0000.0001) %MON exf_wspeed_max               =   1.4142135623731E+00
(PID.TID 0000.0001) %MON exf_wspeed_min               =   1.4142135623731E+00
(PID.TID 0000.0001) %MON exf_wspeed_mean              =   1.4142135623731E+00
(PID.TID 0000.0001) %MON exf_wspeed_sd                =   0.0000000000000E+00
(PID.TID 0000.0001) %MON exf_wspeed_del2              =   4.0000000000000E+00
(PID.TID 0000.0001) %MON exf_atemp_max                =   2.5304067611694E+02
(PID.TID 0000.0001) %MON exf_atemp_min                =   2.5304067611694E+02
(PID.TID 0000.0001) %MON exf_atemp_mean               =   2.5304067611694E+02
(PID.TID 0000.0001) %MON exf_atemp_sd                 =   0.0000000000000E+00
(PID.TID 0000.0001) %MON exf_atemp_del2               =   5.6906041402391E+01
(PID.TID 0000.0001) %MON exf_lwflux_max               =   1.0633472875995E+02
(PID.TID 0000.0001) %MON exf_lwflux_min               =   1.0633472875995E+02
(PID.TID 0000.0001) %MON exf_lwflux_mean              =   1.0633472875995E+02
(PID.TID 0000.0001) %MON exf_lwflux_sd                =   0.0000000000000E+00
(PID.TID 0000.0001) %MON exf_lwflux_del2              =   3.0076003112718E+02
(PID.TID 0000.0001) %MON exf_evap_max                 =   2.0704178331396E-08
(PID.TID 0000.0001) %MON exf_evap_min                 =   2.0704178331396E-08
(PID.TID 0000.0001) %MON exf_evap_mean                =   2.0704178331396E-08
(PID.TID 0000.0001) %MON exf_evap_sd                  =   0.0000000000000E+00
(PID.TID 0000.0001) %MON exf_evap_del2                =   5.8560259588102E-08
(PID.TID 0000.0001) %MON exf_swflux_max               =  -1.9733900713921E+01
(PID.TID 0000.0001) %MON exf_swflux_min               =  -1.9733900713921E+01
(PID.TID 0000.0001) %MON exf_swflux_mean              =  -1.9733900713921E+01
(PID.TID 0000.0001) %MON exf_swflux_sd                =   0.0000000000000E+00
(PID.TID 0000.0001) %MON exf_swflux_del2              =   5.5815900056301E+01
(PID.TID 0000.0001) %MON exf_swdown_max               =   2.1926556348801E+01
(PID.TID 0000.0001) %MON exf_swdown_min               =   2.1926556348801E+01
(PID.TID 0000.0001) %MON exf_swdown_mean              =   2.1926556348801E+01
(PID.TID 0000.0001) %MON exf_swdown_sd                =   0.0000000000000E+00
(PID.TID 0000.0001) %MON exf_swdown_del2              =   6.2017666729224E+01
(PID.TID 0000.0001) %MON exf_lwdown_max               =   1.9142330169678E+02
(PID.TID 0000.0001) %MON exf_lwdown_min               =   1.9142330169678E+02
(PID.TID 0000.0001) %MON exf_lwdown_mean              =   1.9142330169678E+02
(PID.TID 0000.0001) %MON exf_lwdown_sd                =   0.0000000000000E+00
(PID.TID 0000.0001) %MON exf_lwdown_del2              =   5.4142685882764E+02
(PID.TID 0000.0001) // =======================================================
(PID.TID 0000.0001) // End MONITOR EXF statistics
(PID.TID 0000.0001) // =======================================================
 ph-ice B            9  -1.8965950699717036        5.0920375978487850E-002   8.4058344789747601E-003
 ph-ice C            9   691935.71999643708     
 cg2d: Sum(rhs),rhsMax =   1.00000000000000E+00  3.06558188984237E-05
(PID.TID 0000.0001)      cg2d_init_res =   3.32005242889863E-02
(PID.TID 0000.0001)      cg2d_iters(min,last) =      -1       1
(PID.TID 0000.0001)      cg2d_last_res =   0.00000000000000E+00
(PID.TID 0000.0001) // =======================================================
(PID.TID 0000.0001) // Begin MONITOR dynamic field statistics
(PID.TID 0000.0001) // =======================================================
(PID.TID 0000.0001) %MON time_tsnumber                =                    10
(PID.TID 0000.0001) %MON time_secondsf                =   3.6000000000000E+04
(PID.TID 0000.0001) %MON dynstat_eta_max              =  -8.1567158670927E-03
(PID.TID 0000.0001) %MON dynstat_eta_min              =  -8.1567158670927E-03
(PID.TID 0000.0001) %MON dynstat_eta_mean             =  -8.1567158670927E-03
(PID.TID 0000.0001) %MON dynstat_eta_sd               =   0.0000000000000E+00
(PID.TID 0000.0001) %MON dynstat_eta_del2             =   0.0000000000000E+00
(PID.TID 0000.0001) %MON dynstat_uvel_max             =   5.3309275287398E-03
(PID.TID 0000.0001) %MON dynstat_uvel_min             =  -7.2778785404583E-04
(PID.TID 0000.0001) %MON dynstat_uvel_mean            =   1.1709521569927E-04
(PID.TID 0000.0001) %MON dynstat_uvel_sd              =   7.8563605287428E-04
(PID.TID 0000.0001) %MON dynstat_uvel_del2            =   0.0000000000000E+00
(PID.TID 0000.0001) %MON dynstat_vvel_max             =   2.8790153430710E-24
(PID.TID 0000.0001) %MON dynstat_vvel_min             =  -5.0675246391175E-03
(PID.TID 0000.0001) %MON dynstat_vvel_mean            =  -2.6789873100642E-04
(PID.TID 0000.0001) %MON dynstat_vvel_sd              =   1.0415589128830E-03
(PID.TID 0000.0001) %MON dynstat_vvel_del2            =   0.0000000000000E+00
(PID.TID 0000.0001) %MON dynstat_wvel_max             =  -0.0000000000000E+00
(PID.TID 0000.0001) %MON dynstat_wvel_min             =  -0.0000000000000E+00
(PID.TID 0000.0001) %MON dynstat_wvel_mean            =   0.0000000000000E+00
(PID.TID 0000.0001) %MON dynstat_wvel_sd              =   0.0000000000000E+00
(PID.TID 0000.0001) %MON dynstat_wvel_del2            =   0.0000000000000E+00
(PID.TID 0000.0001) %MON dynstat_theta_max            =   4.9999999999478E-01
(PID.TID 0000.0001) %MON dynstat_theta_min            =  -1.9024754997581E+00
(PID.TID 0000.0001) %MON dynstat_theta_mean           =  -4.2673768344512E-01
(PID.TID 0000.0001) %MON dynstat_theta_sd             =   8.8047180600325E-01
(PID.TID 0000.0001) %MON dynstat_theta_del2           =   0.0000000000000E+00
(PID.TID 0000.0001) %MON dynstat_salt_max             =   3.4799999999998E+01
(PID.TID 0000.0001) %MON dynstat_salt_min             =   2.9020525525939E+01
(PID.TID 0000.0001) %MON dynstat_salt_mean            =   3.3593379221463E+01
(PID.TID 0000.0001) %MON dynstat_salt_sd              =   1.6842212253278E+00
(PID.TID 0000.0001) %MON dynstat_salt_del2            =   0.0000000000000E+00
(PID.TID 0000.0001) %MON dynstat_sst_max              =  -1.8998959543813E+00
(PID.TID 0000.0001) %MON dynstat_sst_min              =  -1.8998959543813E+00
(PID.TID 0000.0001) %MON dynstat_sst_mean             =  -1.8998959543813E+00
(PID.TID 0000.0001) %MON dynstat_sst_sd               =   0.0000000000000E+00
(PID.TID 0000.0001) %MON dynstat_sst_del2             =   0.0000000000000E+00
(PID.TID 0000.0001) %MON dynstat_sss_max              =   2.9020525525939E+01
(PID.TID 0000.0001) %MON dynstat_sss_min              =   2.9020525525939E+01
(PID.TID 0000.0001) %MON dynstat_sss_mean             =   2.9020525525939E+01
(PID.TID 0000.0001) %MON dynstat_sss_sd               =   0.0000000000000E+00
(PID.TID 0000.0001) %MON dynstat_sss_del2             =   0.0000000000000E+00
(PID.TID 0000.0001) %MON forcing_qnet_max             =   2.1308778474259E+02
(PID.TID 0000.0001) %MON forcing_qnet_min             =   2.1308778474259E+02
(PID.TID 0000.0001) %MON forcing_qnet_mean            =   2.1308778474259E+02
(PID.TID 0000.0001) %MON forcing_qnet_sd              =   0.0000000000000E+00
(PID.TID 0000.0001) %MON forcing_qnet_del2            =   0.0000000000000E+00
(PID.TID 0000.0001) %MON forcing_qsw_max              =  -1.8889191385651E+01
(PID.TID 0000.0001) %MON forcing_qsw_min              =  -1.8889191385651E+01
(PID.TID 0000.0001) %MON forcing_qsw_mean             =  -1.8889191385651E+01
(PID.TID 0000.0001) %MON forcing_qsw_sd               =   0.0000000000000E+00
(PID.TID 0000.0001) %MON forcing_qsw_del2             =   0.0000000000000E+00
(PID.TID 0000.0001) %MON forcing_empmr_max            =   7.7255288562540E-05
(PID.TID 0000.0001) %MON forcing_empmr_min            =   7.7255288562540E-05
(PID.TID 0000.0001) %MON forcing_empmr_mean           =   7.7255288562540E-05
(PID.TID 0000.0001) %MON forcing_empmr_sd             =   0.0000000000000E+00
(PID.TID 0000.0001) %MON forcing_empmr_del2           =   0.0000000000000E+00
(PID.TID 0000.0001) %MON forcing_fu_max               =   5.6777023599051E-03
(PID.TID 0000.0001) %MON forcing_fu_min               =   5.6777023599051E-03
(PID.TID 0000.0001) %MON forcing_fu_mean              =   5.6777023599051E-03
(PID.TID 0000.0001) %MON forcing_fu_sd                =   0.0000000000000E+00
(PID.TID 0000.0001) %MON forcing_fu_del2              =   0.0000000000000E+00
(PID.TID 0000.0001) %MON forcing_fv_max               =   5.6777023599051E-03
(PID.TID 0000.0001) %MON forcing_fv_min               =   5.6777023599051E-03
(PID.TID 0000.0001) %MON forcing_fv_mean              =   5.6777023599051E-03
(PID.TID 0000.0001) %MON forcing_fv_sd                =   0.0000000000000E+00
(PID.TID 0000.0001) %MON forcing_fv_del2              =   0.0000000000000E+00
(PID.TID 0000.0001) %MON trAdv_CFL_u_max              =   3.8382678206926E-03
(PID.TID 0000.0001) %MON trAdv_CFL_v_max              =   3.6486177401646E-03
(PID.TID 0000.0001) %MON trAdv_CFL_w_max              =   0.0000000000000E+00
(PID.TID 0000.0001) %MON advcfl_uvel_max              =   3.8382678206926E-03
(PID.TID 0000.0001) %MON advcfl_vvel_max              =   3.6486177401646E-03
(PID.TID 0000.0001) %MON advcfl_wvel_max              =   0.0000000000000E+00
(PID.TID 0000.0001) %MON advcfl_W_hf_max              =   0.0000000000000E+00
(PID.TID 0000.0001) %MON pe_b_mean                    =  -5.2566046493839E-07
(PID.TID 0000.0001) %MON ke_max                       =   2.2307236041037E-05
(PID.TID 0000.0001) %MON ke_mean                      =   8.9377499809821E-07
(PID.TID 0000.0001) %MON ke_vol                       =   1.2831500000000E+10
(PID.TID 0000.0001) %MON vort_r_min                   =   0.0000000000000E+00
(PID.TID 0000.0001) %MON vort_r_max                   =   0.0000000000000E+00
(PID.TID 0000.0001) %MON vort_a_mean                  =   1.0000000000000E-04
(PID.TID 0000.0001) %MON vort_a_sd                    =   0.0000000000000E+00
(PID.TID 0000.0001) %MON vort_p_mean                  =   1.0000000000000E-04
(PID.TID 0000.0001) %MON vort_p_sd                    =   0.0000000000000E+00
(PID.TID 0000.0001) %MON surfExpan_theta_mean         =   0.0000000000000E+00
(PID.TID 0000.0001) %MON surfExpan_salt_mean          =   0.0000000000000E+00
(PID.TID 0000.0001) // =======================================================
(PID.TID 0000.0001) // End MONITOR dynamic field statistics
(PID.TID 0000.0001) // =======================================================
(PID.TID 0000.0001) // =======================================================
(PID.TID 0000.0001) // Begin MONITOR SEAICE statistics
(PID.TID 0000.0001) // =======================================================
(PID.TID 0000.0001) %MON seaice_tsnumber              =                    10
(PID.TID 0000.0001) %MON seaice_time_sec              =   3.6000000000000E+04
(PID.TID 0000.0001) %MON seaice_area_max              =   5.0920375978488E-02
(PID.TID 0000.0001) %MON seaice_area_min              =   5.0920375978488E-02
(PID.TID 0000.0001) %MON seaice_area_mean             =   5.0920375978488E-02
(PID.TID 0000.0001) %MON seaice_area_sd               =   0.0000000000000E+00
(PID.TID 0000.0001) %MON seaice_area_del2             =   0.0000000000000E+00
(PID.TID 0000.0001) %MON seaice_heff_max              =   8.4058344789748E-03
(PID.TID 0000.0001) %MON seaice_heff_min              =   8.4058344789748E-03
(PID.TID 0000.0001) %MON seaice_heff_mean             =   8.4058344789748E-03
(PID.TID 0000.0001) %MON seaice_heff_sd               =   0.0000000000000E+00
(PID.TID 0000.0001) %MON seaice_heff_del2             =   0.0000000000000E+00
(PID.TID 0000.0001) %MON seaice_hsnow_max             =   0.0000000000000E+00
(PID.TID 0000.0001) %MON seaice_hsnow_min             =   0.0000000000000E+00
(PID.TID 0000.0001) %MON seaice_hsnow_mean            =   0.0000000000000E+00
(PID.TID 0000.0001) %MON seaice_hsnow_sd              =   0.0000000000000E+00
(PID.TID 0000.0001) %MON seaice_hsnow_del2            =   0.0000000000000E+00
(PID.TID 0000.0001) %MON seaice_hsalt_max             =   6.6577016814889E+01
(PID.TID 0000.0001) %MON seaice_hsalt_min             =   6.6577016814889E+01
(PID.TID 0000.0001) %MON seaice_hsalt_mean            =   6.6577016814889E+01
(PID.TID 0000.0001) %MON seaice_hsalt_sd              =   0.0000000000000E+00
(PID.TID 0000.0001) %MON seaice_hsalt_del2            =   0.0000000000000E+00
(PID.TID 0000.0001) // =======================================================
(PID.TID 0000.0001) // End MONITOR SEAICE statistics
(PID.TID 0000.0001) // =======================================================
(PID.TID 0000.0001) %CHECKPOINT        10 ckptA
 --> f_ice     = 0.691935719996437D+06
(PID.TID 0000.0001)  --> f_gencost = 0.205294994115046D-01 1
(PID.TID 0000.0001)  --> f_gencost = 0.270356960765386D-02 2
(PID.TID 0000.0001)  --> f_gentim2d = 0.000000000000000D+00 1
(PID.TID 0000.0001)  --> f_gentim2d = 0.000000000000000D+00 2
(PID.TID 0000.0001)  --> f_gentim2d = 0.000000000000000D+00 3
(PID.TID 0000.0001)  --> f_gentim2d = 0.000000000000000D+00 4
(PID.TID 0000.0001)  --> f_gentim2d = 0.000000000000000D+00 5
(PID.TID 0000.0001)  --> f_gentim2d = 0.000000000000000D+00 6
(PID.TID 0000.0001)  --> f_gentim2d = 0.000000000000000D+00 7
(PID.TID 0000.0001)  --> f_gentim2d = 0.000000000000000D+00 8
(PID.TID 0000.0001)  --> f_gentim2d = 0.000000000000000D+00 9
(PID.TID 0000.0001)  --> f_genarr3d = 0.000000000000000D+00 1
(PID.TID 0000.0001)  --> f_genarr3d = 0.000000000000000D+00 2
(PID.TID 0000.0001)  --> fc               = 0.691935719996437D+06
(PID.TID 0000.0001) Writing cost function info to costfunction0000
(PID.TID 0000.0001)   early fc =  0.000000000000000D+00
(PID.TID 0000.0001)   local fc =  0.691935719996437D+06
(PID.TID 0000.0001)  global fc =  0.691935719996437D+06
(PID.TID 0000.0001) whio : write lev 2 rec   1
 ph-ice B            0  -1.9299999999999999        3.1916247108025107E-003   1.5958123554012554E-003
 ph-ice C            0   7978.8401425578732     
(PID.TID 0000.0001) SOLVE_FOR_PRESSURE: putPmEinXvector =    F
 cg2d: Sum(rhs),rhsMax =   1.00000000000000E+00  5.58645366562891E-06
 ph-ice B            1  -1.9277401192852257        8.8874460328754405E-003   3.0949874887839192E-003
 ph-ice C            1   30196.838058137710     
 cg2d: Sum(rhs),rhsMax =   1.00000000000000E+00  1.08502544220595E-05
 ph-ice B            2  -1.9227424894968665        1.4502445408586207E-002   4.3835457704633485E-003
 ph-ice C            2   66451.944493313364     
 cg2d: Sum(rhs),rhsMax =   1.00000000000000E+00  1.54112068175756E-05
 ph-ice B            3  -1.9169494216546736        2.0024314539518757E-002   5.4303730638170320E-003
 ph-ice C            3   116511.34030333775     
 cg2d: Sum(rhs),rhsMax =   1.00000000000000E+00  1.91657331966560E-05
 ph-ice B            4  -1.9115569476882035        2.5443224730921740E-002   6.2544578769424992E-003
 ph-ice C            4   180117.63528911473     
 cg2d: Sum(rhs),rhsMax =   1.00000000000000E+00  2.21770843196450E-05
 ph-ice B            5  -1.9072005371483221        3.0754472054404725E-002   6.9007138707266793E-003
 ph-ice C            5   257001.67975722466     
 cg2d: Sum(rhs),rhsMax =   1.00000000000000E+00  2.45948357288196E-05
 ph-ice B            6  -1.9040036840096861        3.5957972675634060E-002   7.4184436201806692E-003
 ph-ice C            6   346894.11443423544     
 cg2d: Sum(rhs),rhsMax =   1.00000000000000E+00  2.65831778893271E-05
 ph-ice B            7  -1.9016154564554340        4.1055161936191353E-002   7.8418755341513741E-003
 ph-ice C            7   449529.16830099531     
 cg2d: Sum(rhs),rhsMax =   1.00000000000000E+00  2.82561093781394E-05
 ph-ice B            8  -1.8993863545762131        4.6044938105818792E-002   8.1783287879379201E-003
 ph-ice C            8   564638.31608921487     
 cg2d: Sum(rhs),rhsMax =   1.00000000000000E+00  2.96380296384798E-05
 ph-ice B            9  -1.8965950699717036        5.0920375978487850E-002   8.4058344789747601E-003
 ph-ice C            9   691935.71999643708     
 cg2d: Sum(rhs),rhsMax =   1.00000000000000E+00  3.06558188984237E-05
(PID.TID 0000.0001) Did not write pickup because writePickupAtEnd = FALSE
 ph-ice B            0  -1.9299999999999999        3.1916247108025107E-003   1.5958123554012554E-003
 ph-ice C            0   7978.8401425578732     
(PID.TID 0000.0001) SOLVE_FOR_PRESSURE: putPmEinXvector =    F
 cg2d: Sum(rhs),rhsMax =   1.00000000000000E+00  5.58645366562891E-06
 ph-ice B            1  -1.9277401192852257        8.8874460328754405E-003   3.0949874887839192E-003
 ph-ice C            1   30196.838058137710     
 cg2d: Sum(rhs),rhsMax =   1.00000000000000E+00  1.08502544220595E-05
 ph-ice B            2  -1.9227424894968665        1.4502445408586207E-002   4.3835457704633485E-003
 ph-ice C            2   66451.944493313364     
 cg2d: Sum(rhs),rhsMax =   1.00000000000000E+00  1.54112068175756E-05
 ph-ice B            3  -1.9169494216546736        2.0024314539518757E-002   5.4303730638170320E-003
 ph-ice C            3   116511.34030333775     
 cg2d: Sum(rhs),rhsMax =   1.00000000000000E+00  1.91657331966560E-05
 ph-ice B            4  -1.9115569476882035        2.5443224730921740E-002   6.2544578769424992E-003
 ph-ice C            4   180117.63528911473     
 cg2d: Sum(rhs),rhsMax =   1.00000000000000E+00  2.21770843196450E-05
 ph-ice B            5  -1.9072005371483221        3.0754472054404725E-002   6.9007138707266793E-003
 ph-ice C            5   257001.67975722466     
 cg2d: Sum(rhs),rhsMax =   1.00000000000000E+00  2.45948357288196E-05
 ph-ice B            6  -1.9040036840096861        3.5957972675634060E-002   7.4184436201806692E-003
 ph-ice C            6   346894.11443423544     
 cg2d: Sum(rhs),rhsMax =   1.00000000000000E+00  2.65831778893271E-05
 ph-ice B            7  -1.9016154564554340        4.1055161936191353E-002   7.8418755341513741E-003
 ph-ice C            7   449529.16830099531     
 cg2d: Sum(rhs),rhsMax =   1.00000000000000E+00  2.82561093781394E-05
 ph-ice B            8  -1.8993863545762131        4.6044938105818792E-002   8.1783287879379201E-003
 ph-ice C            8   564638.31608921487     
 cg2d: Sum(rhs),rhsMax =   1.00000000000000E+00  2.96380296384798E-05
 ph-ice B            9  -1.8965950699717036        5.0920375978487850E-002   8.4058344789747601E-003
 ph-ice C            9   691935.71999643708     
 cg2d: Sum(rhs),rhsMax =   1.00000000000000E+00  3.06558188984237E-05
(PID.TID 0000.0001) Did not write pickup because writePickupAtEnd = FALSE
(PID.TID 0000.0001) Did not write pickup because writePickupAtEnd = FALSE
(PID.TID 0000.0001) // =======================================================
(PID.TID 0000.0001) // Begin AD_MONITOR dynamic field statistics
(PID.TID 0000.0001) // =======================================================
(PID.TID 0000.0001) %MON ad_time_tsnumber             =                    10
(PID.TID 0000.0001) %MON ad_time_secondsf             =   3.6000000000000E+04
(PID.TID 0000.0001) %MON ad_dynstat_adeta_max         =   0.0000000000000E+00
(PID.TID 0000.0001) %MON ad_dynstat_adeta_min         =   0.0000000000000E+00
(PID.TID 0000.0001) %MON ad_dynstat_adeta_mean        =   0.0000000000000E+00
(PID.TID 0000.0001) %MON ad_dynstat_adeta_sd          =   0.0000000000000E+00
(PID.TID 0000.0001) %MON ad_dynstat_adeta_del2        =   0.0000000000000E+00
(PID.TID 0000.0001) %MON ad_dynstat_aduvel_max        =   0.0000000000000E+00
(PID.TID 0000.0001) %MON ad_dynstat_aduvel_min        =   0.0000000000000E+00
(PID.TID 0000.0001) %MON ad_dynstat_aduvel_mean       =   0.0000000000000E+00
(PID.TID 0000.0001) %MON ad_dynstat_aduvel_sd         =   0.0000000000000E+00
(PID.TID 0000.0001) %MON ad_dynstat_aduvel_del2       =   0.0000000000000E+00
(PID.TID 0000.0001) %MON ad_dynstat_advvel_max        =   0.0000000000000E+00
(PID.TID 0000.0001) %MON ad_dynstat_advvel_min        =   0.0000000000000E+00
(PID.TID 0000.0001) %MON ad_dynstat_advvel_mean       =   0.0000000000000E+00
(PID.TID 0000.0001) %MON ad_dynstat_advvel_sd         =   0.0000000000000E+00
(PID.TID 0000.0001) %MON ad_dynstat_advvel_del2       =   0.0000000000000E+00
(PID.TID 0000.0001) %MON ad_dynstat_adwvel_max        =   0.0000000000000E+00
(PID.TID 0000.0001) %MON ad_dynstat_adwvel_min        =   0.0000000000000E+00
(PID.TID 0000.0001) %MON ad_dynstat_adwvel_mean       =   0.0000000000000E+00
(PID.TID 0000.0001) %MON ad_dynstat_adwvel_sd         =   0.0000000000000E+00
(PID.TID 0000.0001) %MON ad_dynstat_adwvel_del2       =   0.0000000000000E+00
(PID.TID 0000.0001) %MON ad_dynstat_adtheta_max       =   0.0000000000000E+00
(PID.TID 0000.0001) %MON ad_dynstat_adtheta_min       =   0.0000000000000E+00
(PID.TID 0000.0001) %MON ad_dynstat_adtheta_mean      =   0.0000000000000E+00
(PID.TID 0000.0001) %MON ad_dynstat_adtheta_sd        =   0.0000000000000E+00
(PID.TID 0000.0001) %MON ad_dynstat_adtheta_del2      =   0.0000000000000E+00
(PID.TID 0000.0001) %MON ad_dynstat_adsalt_max        =   0.0000000000000E+00
(PID.TID 0000.0001) %MON ad_dynstat_adsalt_min        =   0.0000000000000E+00
(PID.TID 0000.0001) %MON ad_dynstat_adsalt_mean       =   0.0000000000000E+00
(PID.TID 0000.0001) %MON ad_dynstat_adsalt_sd         =   0.0000000000000E+00
(PID.TID 0000.0001) %MON ad_dynstat_adsalt_del2       =   0.0000000000000E+00
(PID.TID 0000.0001) %MON ad_dynstat_adsst_max         =   0.0000000000000E+00
(PID.TID 0000.0001) %MON ad_dynstat_adsst_min         =   0.0000000000000E+00
(PID.TID 0000.0001) %MON ad_dynstat_adsst_mean        =   0.0000000000000E+00
(PID.TID 0000.0001) %MON ad_dynstat_adsst_sd          =   0.0000000000000E+00
(PID.TID 0000.0001) %MON ad_dynstat_adsst_del2        =   0.0000000000000E+00
(PID.TID 0000.0001) %MON ad_dynstat_adsss_max         =   0.0000000000000E+00
(PID.TID 0000.0001) %MON ad_dynstat_adsss_min         =   0.0000000000000E+00
(PID.TID 0000.0001) %MON ad_dynstat_adsss_mean        =   0.0000000000000E+00
(PID.TID 0000.0001) %MON ad_dynstat_adsss_sd          =   0.0000000000000E+00
(PID.TID 0000.0001) %MON ad_dynstat_adsss_del2        =   0.0000000000000E+00
(PID.TID 0000.0001) // =======================================================
(PID.TID 0000.0001) // End AD_MONITOR dynamic field statistics
(PID.TID 0000.0001) // =======================================================
(PID.TID 0000.0001) // =======================================================
(PID.TID 0000.0001) // Begin AD_MONITOR SEAICE statistics
(PID.TID 0000.0001) // =======================================================
(PID.TID 0000.0001) %MON ad_seaice_tsnumber           =                    10
(PID.TID 0000.0001) %MON ad_seaice_time_sec           =   3.6000000000000E+04
(PID.TID 0000.0001) %MON ad_seaice_adarea_max         =   0.0000000000000E+00
(PID.TID 0000.0001) %MON ad_seaice_adarea_min         =   0.0000000000000E+00
(PID.TID 0000.0001) %MON ad_seaice_adarea_mean        =   0.0000000000000E+00
(PID.TID 0000.0001) %MON ad_seaice_adarea_sd          =   0.0000000000000E+00
(PID.TID 0000.0001) %MON ad_seaice_adarea_del2        =   0.0000000000000E+00
(PID.TID 0000.0001) %MON ad_seaice_adheff_max         =   0.0000000000000E+00
(PID.TID 0000.0001) %MON ad_seaice_adheff_min         =   0.0000000000000E+00
(PID.TID 0000.0001) %MON ad_seaice_adheff_mean        =   0.0000000000000E+00
(PID.TID 0000.0001) %MON ad_seaice_adheff_sd          =   0.0000000000000E+00
(PID.TID 0000.0001) %MON ad_seaice_adheff_del2        =   0.0000000000000E+00
(PID.TID 0000.0001) %MON ad_seaice_adhsnow_max        =   0.0000000000000E+00
(PID.TID 0000.0001) %MON ad_seaice_adhsnow_min        =   0.0000000000000E+00
(PID.TID 0000.0001) %MON ad_seaice_adhsnow_mean       =   0.0000000000000E+00
(PID.TID 0000.0001) %MON ad_seaice_adhsnow_sd         =   0.0000000000000E+00
(PID.TID 0000.0001) %MON ad_seaice_adhsnow_del2       =   0.0000000000000E+00
(PID.TID 0000.0001) %MON ad_seaice_adhsalt_max        =   0.0000000000000E+00
(PID.TID 0000.0001) %MON ad_seaice_adhsalt_min        =   0.0000000000000E+00
(PID.TID 0000.0001) %MON ad_seaice_adhsalt_mean       =   0.0000000000000E+00
(PID.TID 0000.0001) %MON ad_seaice_adhsalt_sd         =   0.0000000000000E+00
(PID.TID 0000.0001) %MON ad_seaice_adhsalt_del2       =   0.0000000000000E+00
(PID.TID 0000.0001) // =======================================================
(PID.TID 0000.0001) // End AD_MONITOR SEAICE statistics
(PID.TID 0000.0001) // =======================================================
 Calling cg2d from S/R CG2D_MAD
 cg2d: Sum(rhs),rhsMax =   0.00000000000000E+00  0.00000000000000E+00
(PID.TID 0000.0001) // =======================================================
(PID.TID 0000.0001) // Begin AD_MONITOR EXF statistics for iwhen =  3
(PID.TID 0000.0001) // =======================================================
(PID.TID 0000.0001) %MON ad_exf_tsnumber              =                     9
(PID.TID 0000.0001) %MON ad_exf_time_sec              =   3.2400000000000E+04
(PID.TID 0000.0001) %MON ad_exf_adfu_max              =   0.0000000000000E+00
(PID.TID 0000.0001) %MON ad_exf_adfu_min              =   0.0000000000000E+00
(PID.TID 0000.0001) %MON ad_exf_adfu_mean             =   0.0000000000000E+00
(PID.TID 0000.0001) %MON ad_exf_adfu_sd               =   0.0000000000000E+00
(PID.TID 0000.0001) %MON ad_exf_adfu_del2             =   0.0000000000000E+00
(PID.TID 0000.0001) %MON ad_exf_adfv_max              =   0.0000000000000E+00
(PID.TID 0000.0001) %MON ad_exf_adfv_min              =   0.0000000000000E+00
(PID.TID 0000.0001) %MON ad_exf_adfv_mean             =   0.0000000000000E+00
(PID.TID 0000.0001) %MON ad_exf_adfv_sd               =   0.0000000000000E+00
(PID.TID 0000.0001) %MON ad_exf_adfv_del2             =   0.0000000000000E+00
(PID.TID 0000.0001) %MON ad_exf_adqnet_max            =   0.0000000000000E+00
(PID.TID 0000.0001) %MON ad_exf_adqnet_min            =   0.0000000000000E+00
(PID.TID 0000.0001) %MON ad_exf_adqnet_mean           =   0.0000000000000E+00
(PID.TID 0000.0001) %MON ad_exf_adqnet_sd             =   0.0000000000000E+00
(PID.TID 0000.0001) %MON ad_exf_adqnet_del2           =   0.0000000000000E+00
(PID.TID 0000.0001) %MON ad_exf_adempmr_max           =   0.0000000000000E+00
(PID.TID 0000.0001) %MON ad_exf_adempmr_min           =   0.0000000000000E+00
(PID.TID 0000.0001) %MON ad_exf_adempmr_mean          =   0.0000000000000E+00
(PID.TID 0000.0001) %MON ad_exf_adempmr_sd            =   0.0000000000000E+00
(PID.TID 0000.0001) %MON ad_exf_adempmr_del2          =   0.0000000000000E+00
(PID.TID 0000.0001) %MON ad_exf_adqsw_max             =   0.0000000000000E+00
(PID.TID 0000.0001) %MON ad_exf_adqsw_min             =   0.0000000000000E+00
(PID.TID 0000.0001) %MON ad_exf_adqsw_mean            =   0.0000000000000E+00
(PID.TID 0000.0001) %MON ad_exf_adqsw_sd              =   0.0000000000000E+00
(PID.TID 0000.0001) %MON ad_exf_adqsw_del2            =   0.0000000000000E+00
(PID.TID 0000.0001) // =======================================================
(PID.TID 0000.0001) // End AD_MONITOR EXF statistics for iwhen =  3
(PID.TID 0000.0001) // =======================================================
(PID.TID 0000.0001) // =======================================================
(PID.TID 0000.0001) // Begin AD_MONITOR dynamic field statistics
(PID.TID 0000.0001) // =======================================================
(PID.TID 0000.0001) %MON ad_time_tsnumber             =                     9
(PID.TID 0000.0001) %MON ad_time_secondsf             =   3.2400000000000E+04
(PID.TID 0000.0001) %MON ad_dynstat_adeta_max         =   0.0000000000000E+00
(PID.TID 0000.0001) %MON ad_dynstat_adeta_min         =   0.0000000000000E+00
(PID.TID 0000.0001) %MON ad_dynstat_adeta_mean        =   0.0000000000000E+00
(PID.TID 0000.0001) %MON ad_dynstat_adeta_sd          =   0.0000000000000E+00
(PID.TID 0000.0001) %MON ad_dynstat_adeta_del2        =   0.0000000000000E+00
(PID.TID 0000.0001) %MON ad_dynstat_aduvel_max        =   0.0000000000000E+00
(PID.TID 0000.0001) %MON ad_dynstat_aduvel_min        =   0.0000000000000E+00
(PID.TID 0000.0001) %MON ad_dynstat_aduvel_mean       =   0.0000000000000E+00
(PID.TID 0000.0001) %MON ad_dynstat_aduvel_sd         =   0.0000000000000E+00
(PID.TID 0000.0001) %MON ad_dynstat_aduvel_del2       =   0.0000000000000E+00
(PID.TID 0000.0001) %MON ad_dynstat_advvel_max        =   0.0000000000000E+00
(PID.TID 0000.0001) %MON ad_dynstat_advvel_min        =   0.0000000000000E+00
(PID.TID 0000.0001) %MON ad_dynstat_advvel_mean       =   0.0000000000000E+00
(PID.TID 0000.0001) %MON ad_dynstat_advvel_sd         =   0.0000000000000E+00
(PID.TID 0000.0001) %MON ad_dynstat_advvel_del2       =   0.0000000000000E+00
(PID.TID 0000.0001) %MON ad_dynstat_adwvel_max        =   0.0000000000000E+00
(PID.TID 0000.0001) %MON ad_dynstat_adwvel_min        =   0.0000000000000E+00
(PID.TID 0000.0001) %MON ad_dynstat_adwvel_mean       =   0.0000000000000E+00
(PID.TID 0000.0001) %MON ad_dynstat_adwvel_sd         =   0.0000000000000E+00
(PID.TID 0000.0001) %MON ad_dynstat_adwvel_del2       =   0.0000000000000E+00
(PID.TID 0000.0001) %MON ad_dynstat_adtheta_max       =   0.0000000000000E+00
(PID.TID 0000.0001) %MON ad_dynstat_adtheta_min       =  -2.2453523819695E+04
(PID.TID 0000.0001) %MON ad_dynstat_adtheta_mean      =  -4.3746880371927E+02
(PID.TID 0000.0001) %MON ad_dynstat_adtheta_sd        =   3.1034395838258E+03
(PID.TID 0000.0001) %MON ad_dynstat_adtheta_del2      =   2.7612241659896E+03
(PID.TID 0000.0001) %MON ad_dynstat_adsalt_max        =   0.0000000000000E+00
(PID.TID 0000.0001) %MON ad_dynstat_adsalt_min        =   0.0000000000000E+00
(PID.TID 0000.0001) %MON ad_dynstat_adsalt_mean       =   0.0000000000000E+00
(PID.TID 0000.0001) %MON ad_dynstat_adsalt_sd         =   0.0000000000000E+00
(PID.TID 0000.0001) %MON ad_dynstat_adsalt_del2       =   0.0000000000000E+00
(PID.TID 0000.0001) %MON ad_dynstat_adsst_max         =  -2.2453523819695E+04
(PID.TID 0000.0001) %MON ad_dynstat_adsst_min         =  -2.2453523819695E+04
(PID.TID 0000.0001) %MON ad_dynstat_adsst_mean        =  -2.2453523819695E+04
(PID.TID 0000.0001) %MON ad_dynstat_adsst_sd          =   0.0000000000000E+00
(PID.TID 0000.0001) %MON ad_dynstat_adsst_del2        =   6.3508155817761E+04
(PID.TID 0000.0001) %MON ad_dynstat_adsss_max         =   0.0000000000000E+00
(PID.TID 0000.0001) %MON ad_dynstat_adsss_min         =   0.0000000000000E+00
(PID.TID 0000.0001) %MON ad_dynstat_adsss_mean        =   0.0000000000000E+00
(PID.TID 0000.0001) %MON ad_dynstat_adsss_sd          =   0.0000000000000E+00
(PID.TID 0000.0001) %MON ad_dynstat_adsss_del2        =   0.0000000000000E+00
(PID.TID 0000.0001) // =======================================================
(PID.TID 0000.0001) // End AD_MONITOR dynamic field statistics
(PID.TID 0000.0001) // =======================================================
(PID.TID 0000.0001) // =======================================================
(PID.TID 0000.0001) // Begin AD_MONITOR SEAICE statistics
(PID.TID 0000.0001) // =======================================================
(PID.TID 0000.0001) %MON ad_seaice_tsnumber           =                     9
(PID.TID 0000.0001) %MON ad_seaice_time_sec           =   3.2400000000000E+04
(PID.TID 0000.0001) %MON ad_seaice_adarea_max         =   2.4549319559571E+06
(PID.TID 0000.0001) %MON ad_seaice_adarea_min         =   2.4549319559571E+06
(PID.TID 0000.0001) %MON ad_seaice_adarea_mean        =   2.4549319559571E+06
(PID.TID 0000.0001) %MON ad_seaice_adarea_sd          =   0.0000000000000E+00
(PID.TID 0000.0001) %MON ad_seaice_adarea_del2        =   6.9435961336354E+06
(PID.TID 0000.0001) %MON ad_seaice_adheff_max         =   1.2004853737674E+03
(PID.TID 0000.0001) %MON ad_seaice_adheff_min         =   1.2004853737674E+03
(PID.TID 0000.0001) %MON ad_seaice_adheff_mean        =   1.2004853737674E+03
(PID.TID 0000.0001) %MON ad_seaice_adheff_sd          =   0.0000000000000E+00
(PID.TID 0000.0001) %MON ad_seaice_adheff_del2        =   3.3954853940248E+03
(PID.TID 0000.0001) %MON ad_seaice_adhsnow_max        =   0.0000000000000E+00
(PID.TID 0000.0001) %MON ad_seaice_adhsnow_min        =   0.0000000000000E+00
(PID.TID 0000.0001) %MON ad_seaice_adhsnow_mean       =   0.0000000000000E+00
(PID.TID 0000.0001) %MON ad_seaice_adhsnow_sd         =   0.0000000000000E+00
(PID.TID 0000.0001) %MON ad_seaice_adhsnow_del2       =   0.0000000000000E+00
(PID.TID 0000.0001) %MON ad_seaice_adhsalt_max        =   0.0000000000000E+00
(PID.TID 0000.0001) %MON ad_seaice_adhsalt_min        =   0.0000000000000E+00
(PID.TID 0000.0001) %MON ad_seaice_adhsalt_mean       =   0.0000000000000E+00
(PID.TID 0000.0001) %MON ad_seaice_adhsalt_sd         =   0.0000000000000E+00
(PID.TID 0000.0001) %MON ad_seaice_adhsalt_del2       =   0.0000000000000E+00
(PID.TID 0000.0001) // =======================================================
(PID.TID 0000.0001) // End AD_MONITOR SEAICE statistics
(PID.TID 0000.0001) // =======================================================
 Calling cg2d from S/R CG2D_MAD
 cg2d: Sum(rhs),rhsMax =  -1.00000000000000E+00  7.08798427130833E-15
(PID.TID 0000.0001) // =======================================================
(PID.TID 0000.0001) // Begin AD_MONITOR EXF statistics for iwhen =  3
(PID.TID 0000.0001) // =======================================================
(PID.TID 0000.0001) %MON ad_exf_tsnumber              =                     8
(PID.TID 0000.0001) %MON ad_exf_time_sec              =   2.8800000000000E+04
(PID.TID 0000.0001) %MON ad_exf_adfu_max              =   1.6180860355308E+04
(PID.TID 0000.0001) %MON ad_exf_adfu_min              =   1.6180860355308E+04
(PID.TID 0000.0001) %MON ad_exf_adfu_mean             =   1.6180860355308E+04
(PID.TID 0000.0001) %MON ad_exf_adfu_sd               =   0.0000000000000E+00
(PID.TID 0000.0001) %MON ad_exf_adfu_del2             =   3.6177170705374E+04
(PID.TID 0000.0001) %MON ad_exf_adfv_max              =   1.6180860355308E+04
(PID.TID 0000.0001) %MON ad_exf_adfv_min              =   1.6180860355308E+04
(PID.TID 0000.0001) %MON ad_exf_adfv_mean             =   1.6180860355308E+04
(PID.TID 0000.0001) %MON ad_exf_adfv_sd               =   0.0000000000000E+00
(PID.TID 0000.0001) %MON ad_exf_adfv_del2             =   3.6177170705374E+04
(PID.TID 0000.0001) %MON ad_exf_adqnet_max            =  -5.4104489359560E-01
(PID.TID 0000.0001) %MON ad_exf_adqnet_min            =  -5.4104489359560E-01
(PID.TID 0000.0001) %MON ad_exf_adqnet_mean           =  -5.4104489359560E-01
(PID.TID 0000.0001) %MON ad_exf_adqnet_sd             =   0.0000000000000E+00
(PID.TID 0000.0001) %MON ad_exf_adqnet_del2           =   1.5303060527512E+00
(PID.TID 0000.0001) %MON ad_exf_adempmr_max           =  -1.1940006968264E+07
(PID.TID 0000.0001) %MON ad_exf_adempmr_min           =  -1.1940006968264E+07
(PID.TID 0000.0001) %MON ad_exf_adempmr_mean          =  -1.1940006968264E+07
(PID.TID 0000.0001) %MON ad_exf_adempmr_sd            =   0.0000000000000E+00
(PID.TID 0000.0001) %MON ad_exf_adempmr_del2          =   3.3771439578696E+07
(PID.TID 0000.0001) %MON ad_exf_adqsw_max             =  -1.0805714194913E-01
(PID.TID 0000.0001) %MON ad_exf_adqsw_min             =  -1.0805714194913E-01
(PID.TID 0000.0001) %MON ad_exf_adqsw_mean            =  -1.0805714194913E-01
(PID.TID 0000.0001) %MON ad_exf_adqsw_sd              =   0.0000000000000E+00
(PID.TID 0000.0001) %MON ad_exf_adqsw_del2            =   3.0563175131147E-01
(PID.TID 0000.0001) // =======================================================
(PID.TID 0000.0001) // End AD_MONITOR EXF statistics for iwhen =  3
(PID.TID 0000.0001) // =======================================================
(PID.TID 0000.0001) // =======================================================
(PID.TID 0000.0001) // Begin AD_MONITOR dynamic field statistics
(PID.TID 0000.0001) // =======================================================
(PID.TID 0000.0001) %MON ad_time_tsnumber             =                     8
(PID.TID 0000.0001) %MON ad_time_secondsf             =   2.8800000000000E+04
(PID.TID 0000.0001) %MON ad_dynstat_adeta_max         =  -3.5708944778922E-11
(PID.TID 0000.0001) %MON ad_dynstat_adeta_min         =  -3.5708944778922E-11
(PID.TID 0000.0001) %MON ad_dynstat_adeta_mean        =  -3.5708944778922E-11
(PID.TID 0000.0001) %MON ad_dynstat_adeta_sd          =   0.0000000000000E+00
(PID.TID 0000.0001) %MON ad_dynstat_adeta_del2        =   1.0100014800877E-10
(PID.TID 0000.0001) %MON ad_dynstat_aduvel_max        =   1.2878995227253E+03
(PID.TID 0000.0001) %MON ad_dynstat_aduvel_min        =  -1.6668906151585E+03
(PID.TID 0000.0001) %MON ad_dynstat_aduvel_mean       =   8.9092846809387E-13
(PID.TID 0000.0001) %MON ad_dynstat_aduvel_sd         =   2.9874732791611E+02
(PID.TID 0000.0001) %MON ad_dynstat_aduvel_del2       =   2.6320243136078E+02
(PID.TID 0000.0001) %MON ad_dynstat_advvel_max        =   4.8169724232072E+02
(PID.TID 0000.0001) %MON ad_dynstat_advvel_min        =  -5.1583341431516E+02
(PID.TID 0000.0001) %MON ad_dynstat_advvel_mean       =   3.7096484843055E-12
(PID.TID 0000.0001) %MON ad_dynstat_advvel_sd         =   9.8628875308669E+01
(PID.TID 0000.0001) %MON ad_dynstat_advvel_del2       =   8.6894031704647E+01
(PID.TID 0000.0001) %MON ad_dynstat_adwvel_max        =   0.0000000000000E+00
(PID.TID 0000.0001) %MON ad_dynstat_adwvel_min        =   0.0000000000000E+00
(PID.TID 0000.0001) %MON ad_dynstat_adwvel_mean       =   0.0000000000000E+00
(PID.TID 0000.0001) %MON ad_dynstat_adwvel_sd         =   0.0000000000000E+00
(PID.TID 0000.0001) %MON ad_dynstat_adwvel_del2       =   0.0000000000000E+00
(PID.TID 0000.0001) %MON ad_dynstat_adtheta_max       =   3.0506697053262E+04
(PID.TID 0000.0001) %MON ad_dynstat_adtheta_min       =  -5.7661495914279E+03
(PID.TID 0000.0001) %MON ad_dynstat_adtheta_mean      =   4.0691440220144E+02
(PID.TID 0000.0001) %MON ad_dynstat_adtheta_sd        =   4.3325718796002E+03
(PID.TID 0000.0001) %MON ad_dynstat_adtheta_del2      =   3.8338815125854E+03
(PID.TID 0000.0001) %MON ad_dynstat_adsalt_max        =   7.3708151321096E+04
(PID.TID 0000.0001) %MON ad_dynstat_adsalt_min        =  -9.8857277919217E+04
(PID.TID 0000.0001) %MON ad_dynstat_adsalt_mean       =  -4.7720438496433E+00
(PID.TID 0000.0001) %MON ad_dynstat_adsalt_sd         =   1.7546625657702E+04
(PID.TID 0000.0001) %MON ad_dynstat_adsalt_del2       =   1.5458932263242E+04
(PID.TID 0000.0001) %MON ad_dynstat_adsst_max         =   3.0506697053262E+04
(PID.TID 0000.0001) %MON ad_dynstat_adsst_min         =   3.0506697053262E+04
(PID.TID 0000.0001) %MON ad_dynstat_adsst_mean        =   3.0506697053262E+04
(PID.TID 0000.0001) %MON ad_dynstat_adsst_sd          =   0.0000000000000E+00
(PID.TID 0000.0001) %MON ad_dynstat_adsst_del2        =   8.6285969431860E+04
(PID.TID 0000.0001) %MON ad_dynstat_adsss_max         =  -9.8857277919217E+04
(PID.TID 0000.0001) %MON ad_dynstat_adsss_min         =  -9.8857277919217E+04
(PID.TID 0000.0001) %MON ad_dynstat_adsss_mean        =  -9.8857277919217E+04
(PID.TID 0000.0001) %MON ad_dynstat_adsss_sd          =   0.0000000000000E+00
(PID.TID 0000.0001) %MON ad_dynstat_adsss_del2        =   2.7961060634529E+05
(PID.TID 0000.0001) // =======================================================
(PID.TID 0000.0001) // End AD_MONITOR dynamic field statistics
(PID.TID 0000.0001) // =======================================================
(PID.TID 0000.0001) // =======================================================
(PID.TID 0000.0001) // Begin AD_MONITOR SEAICE statistics
(PID.TID 0000.0001) // =======================================================
(PID.TID 0000.0001) %MON ad_seaice_tsnumber           =                     8
(PID.TID 0000.0001) %MON ad_seaice_time_sec           =   2.8800000000000E+04
(PID.TID 0000.0001) %MON ad_seaice_adarea_max         =   4.8657169041013E+06
(PID.TID 0000.0001) %MON ad_seaice_adarea_min         =   4.8657169041013E+06
(PID.TID 0000.0001) %MON ad_seaice_adarea_mean        =   4.8657169041013E+06
(PID.TID 0000.0001) %MON ad_seaice_adarea_sd          =   0.0000000000000E+00
(PID.TID 0000.0001) %MON ad_seaice_adarea_del2        =   1.3762461910577E+07
(PID.TID 0000.0001) %MON ad_seaice_adheff_max         =   4.1993274487856E+03
(PID.TID 0000.0001) %MON ad_seaice_adheff_min         =   4.1993274487856E+03
(PID.TID 0000.0001) %MON ad_seaice_adheff_mean        =   4.1993274487856E+03
(PID.TID 0000.0001) %MON ad_seaice_adheff_sd          =   0.0000000000000E+00
(PID.TID 0000.0001) %MON ad_seaice_adheff_del2        =   1.1877491661837E+04
(PID.TID 0000.0001) %MON ad_seaice_adhsnow_max        =   1.6122465209384E+04
(PID.TID 0000.0001) %MON ad_seaice_adhsnow_min        =   1.6122465209384E+04
(PID.TID 0000.0001) %MON ad_seaice_adhsnow_mean       =   1.6122465209384E+04
(PID.TID 0000.0001) %MON ad_seaice_adhsnow_sd         =   0.0000000000000E+00
(PID.TID 0000.0001) %MON ad_seaice_adhsnow_del2       =   4.5601217916000E+04
(PID.TID 0000.0001) %MON ad_seaice_adhsalt_max        =   0.0000000000000E+00
(PID.TID 0000.0001) %MON ad_seaice_adhsalt_min        =   0.0000000000000E+00
(PID.TID 0000.0001) %MON ad_seaice_adhsalt_mean       =   0.0000000000000E+00
(PID.TID 0000.0001) %MON ad_seaice_adhsalt_sd         =   0.0000000000000E+00
(PID.TID 0000.0001) %MON ad_seaice_adhsalt_del2       =   0.0000000000000E+00
(PID.TID 0000.0001) // =======================================================
(PID.TID 0000.0001) // End AD_MONITOR SEAICE statistics
(PID.TID 0000.0001) // =======================================================
 Calling cg2d from S/R CG2D_MAD
 cg2d: Sum(rhs),rhsMax =   1.00000000000000E+00  4.53630993363733E-13
(PID.TID 0000.0001) // =======================================================
(PID.TID 0000.0001) // Begin AD_MONITOR EXF statistics for iwhen =  3
(PID.TID 0000.0001) // =======================================================
(PID.TID 0000.0001) %MON ad_exf_tsnumber              =                     7
(PID.TID 0000.0001) %MON ad_exf_time_sec              =   2.5200000000000E+04
(PID.TID 0000.0001) %MON ad_exf_adfu_max              =   9.8303900757487E+03
(PID.TID 0000.0001) %MON ad_exf_adfu_min              =   9.8303900757487E+03
(PID.TID 0000.0001) %MON ad_exf_adfu_mean             =   9.8303900757487E+03
(PID.TID 0000.0001) %MON ad_exf_adfu_sd               =   0.0000000000000E+00
(PID.TID 0000.0001) %MON ad_exf_adfu_del2             =   2.1687980162815E+04
(PID.TID 0000.0001) %MON ad_exf_adfv_max              =   1.0712848912331E+04
(PID.TID 0000.0001) %MON ad_exf_adfv_min              =   1.0712848912331E+04
(PID.TID 0000.0001) %MON ad_exf_adfv_mean             =   1.0712848912331E+04
(PID.TID 0000.0001) %MON ad_exf_adfv_sd               =   0.0000000000000E+00
(PID.TID 0000.0001) %MON ad_exf_adfv_del2             =   2.4048178496815E+04
(PID.TID 0000.0001) %MON ad_exf_adqnet_max            =  -7.9067444571237E-01
(PID.TID 0000.0001) %MON ad_exf_adqnet_min            =  -7.9067444571237E-01
(PID.TID 0000.0001) %MON ad_exf_adqnet_mean           =  -7.9067444571237E-01
(PID.TID 0000.0001) %MON ad_exf_adqnet_sd             =   0.0000000000000E+00
(PID.TID 0000.0001) %MON ad_exf_adqnet_del2           =   2.2363650490965E+00
(PID.TID 0000.0001) %MON ad_exf_adempmr_max           =  -7.5792038327769E+06
(PID.TID 0000.0001) %MON ad_exf_adempmr_min           =  -7.5792038327769E+06
(PID.TID 0000.0001) %MON ad_exf_adempmr_mean          =  -7.5792038327769E+06
(PID.TID 0000.0001) %MON ad_exf_adempmr_sd            =   0.0000000000000E+00
(PID.TID 0000.0001) %MON ad_exf_adempmr_del2          =   2.1437225704607E+07
(PID.TID 0000.0001) %MON ad_exf_adqsw_max             =   2.6932732932565E-01
(PID.TID 0000.0001) %MON ad_exf_adqsw_min             =   2.6932732932565E-01
(PID.TID 0000.0001) %MON ad_exf_adqsw_mean            =   2.6932732932565E-01
(PID.TID 0000.0001) %MON ad_exf_adqsw_sd              =   0.0000000000000E+00
(PID.TID 0000.0001) %MON ad_exf_adqsw_del2            =   7.6177272370013E-01
(PID.TID 0000.0001) // =======================================================
(PID.TID 0000.0001) // End AD_MONITOR EXF statistics for iwhen =  3
(PID.TID 0000.0001) // =======================================================
(PID.TID 0000.0001) // =======================================================
(PID.TID 0000.0001) // Begin AD_MONITOR dynamic field statistics
(PID.TID 0000.0001) // =======================================================
(PID.TID 0000.0001) %MON ad_time_tsnumber             =                     7
(PID.TID 0000.0001) %MON ad_time_secondsf             =   2.5200000000000E+04
(PID.TID 0000.0001) %MON ad_dynstat_adeta_max         =   2.2853724658510E-09
(PID.TID 0000.0001) %MON ad_dynstat_adeta_min         =   2.2853724658510E-09
(PID.TID 0000.0001) %MON ad_dynstat_adeta_mean        =   2.2853724658510E-09
(PID.TID 0000.0001) %MON ad_dynstat_adeta_sd          =   0.0000000000000E+00
(PID.TID 0000.0001) %MON ad_dynstat_adeta_del2        =   6.4640094725612E-09
(PID.TID 0000.0001) %MON ad_dynstat_aduvel_max        =   2.4944299497854E+03
(PID.TID 0000.0001) %MON ad_dynstat_aduvel_min        =  -2.9400741425809E+03
(PID.TID 0000.0001) %MON ad_dynstat_aduvel_mean       =   1.2625834683929E-10
(PID.TID 0000.0001) %MON ad_dynstat_aduvel_sd         =   5.5121672946170E+02
(PID.TID 0000.0001) %MON ad_dynstat_aduvel_del2       =   4.8563307465564E+02
(PID.TID 0000.0001) %MON ad_dynstat_advvel_max        =   2.5465844843230E+02
(PID.TID 0000.0001) %MON ad_dynstat_advvel_min        =  -1.7334692444393E+02
(PID.TID 0000.0001) %MON ad_dynstat_advvel_mean       =   2.6889579560853E-10
(PID.TID 0000.0001) %MON ad_dynstat_advvel_sd         =   4.3892509258517E+01
(PID.TID 0000.0001) %MON ad_dynstat_advvel_del2       =   3.8670187398668E+01
(PID.TID 0000.0001) %MON ad_dynstat_adwvel_max        =   1.1416350671273E+03
(PID.TID 0000.0001) %MON ad_dynstat_adwvel_min        =  -1.1885168307299E+03
(PID.TID 0000.0001) %MON ad_dynstat_adwvel_mean       =  -1.9977952321863E+00
(PID.TID 0000.0001) %MON ad_dynstat_adwvel_sd         =   2.3884028613996E+02
(PID.TID 0000.0001) %MON ad_dynstat_adwvel_del2       =   2.0296117919227E+02
(PID.TID 0000.0001) %MON ad_dynstat_adtheta_max       =   1.8392521157057E+04
(PID.TID 0000.0001) %MON ad_dynstat_adtheta_min       =  -2.2138922908204E+03
(PID.TID 0000.0001) %MON ad_dynstat_adtheta_mean      =   3.9910095676151E+02
(PID.TID 0000.0001) %MON ad_dynstat_adtheta_sd        =   2.6273959684546E+03
(PID.TID 0000.0001) %MON ad_dynstat_adtheta_del2      =   2.3413418371717E+03
(PID.TID 0000.0001) %MON ad_dynstat_adsalt_max        =   1.1921779070975E+05
(PID.TID 0000.0001) %MON ad_dynstat_adsalt_min        =  -1.5093617414758E+05
(PID.TID 0000.0001) %MON ad_dynstat_adsalt_mean       =  -8.0741154982555E+00
(PID.TID 0000.0001) %MON ad_dynstat_adsalt_sd         =   2.7838789430994E+04
(PID.TID 0000.0001) %MON ad_dynstat_adsalt_del2       =   2.4526536935629E+04
(PID.TID 0000.0001) %MON ad_dynstat_adsst_max         =   1.8392521157057E+04
(PID.TID 0000.0001) %MON ad_dynstat_adsst_min         =   1.8392521157057E+04
(PID.TID 0000.0001) %MON ad_dynstat_adsst_mean        =   1.8392521157057E+04
(PID.TID 0000.0001) %MON ad_dynstat_adsst_sd          =   0.0000000000000E+00
(PID.TID 0000.0001) %MON ad_dynstat_adsst_del2        =   5.2021905733090E+04
(PID.TID 0000.0001) %MON ad_dynstat_adsss_max         =  -1.5093617414758E+05
(PID.TID 0000.0001) %MON ad_dynstat_adsss_min         =  -1.5093617414758E+05
(PID.TID 0000.0001) %MON ad_dynstat_adsss_mean        =  -1.5093617414758E+05
(PID.TID 0000.0001) %MON ad_dynstat_adsss_sd          =   0.0000000000000E+00
(PID.TID 0000.0001) %MON ad_dynstat_adsss_del2        =   4.2691196906443E+05
(PID.TID 0000.0001) // =======================================================
(PID.TID 0000.0001) // End AD_MONITOR dynamic field statistics
(PID.TID 0000.0001) // =======================================================
(PID.TID 0000.0001) // =======================================================
(PID.TID 0000.0001) // Begin AD_MONITOR SEAICE statistics
(PID.TID 0000.0001) // =======================================================
(PID.TID 0000.0001) %MON ad_seaice_tsnumber           =                     7
(PID.TID 0000.0001) %MON ad_seaice_time_sec           =   2.5200000000000E+04
(PID.TID 0000.0001) %MON ad_seaice_adarea_max         =   7.2371925188700E+06
(PID.TID 0000.0001) %MON ad_seaice_adarea_min         =   7.2371925188700E+06
(PID.TID 0000.0001) %MON ad_seaice_adarea_mean        =   7.2371925188700E+06
(PID.TID 0000.0001) %MON ad_seaice_adarea_sd          =   0.0000000000000E+00
(PID.TID 0000.0001) %MON ad_seaice_adarea_del2        =   2.0469959070422E+07
(PID.TID 0000.0001) %MON ad_seaice_adheff_max         =   7.0979459016438E+03
(PID.TID 0000.0001) %MON ad_seaice_adheff_min         =   7.0979459016438E+03
(PID.TID 0000.0001) %MON ad_seaice_adheff_mean        =   7.0979459016438E+03
(PID.TID 0000.0001) %MON ad_seaice_adheff_sd          =   0.0000000000000E+00
(PID.TID 0000.0001) %MON ad_seaice_adheff_del2        =   2.0076022718190E+04
(PID.TID 0000.0001) %MON ad_seaice_adhsnow_max        =   2.5194185343615E+04
(PID.TID 0000.0001) %MON ad_seaice_adhsnow_min        =   2.5194185343615E+04
(PID.TID 0000.0001) %MON ad_seaice_adhsnow_mean       =   2.5194185343615E+04
(PID.TID 0000.0001) %MON ad_seaice_adhsnow_sd         =   0.0000000000000E+00
(PID.TID 0000.0001) %MON ad_seaice_adhsnow_del2       =   7.1259917211763E+04
(PID.TID 0000.0001) %MON ad_seaice_adhsalt_max        =   0.0000000000000E+00
(PID.TID 0000.0001) %MON ad_seaice_adhsalt_min        =   0.0000000000000E+00
(PID.TID 0000.0001) %MON ad_seaice_adhsalt_mean       =   0.0000000000000E+00
(PID.TID 0000.0001) %MON ad_seaice_adhsalt_sd         =   0.0000000000000E+00
(PID.TID 0000.0001) %MON ad_seaice_adhsalt_del2       =   0.0000000000000E+00
(PID.TID 0000.0001) // =======================================================
(PID.TID 0000.0001) // End AD_MONITOR SEAICE statistics
(PID.TID 0000.0001) // =======================================================
 Calling cg2d from S/R CG2D_MAD
 cg2d: Sum(rhs),rhsMax =   1.00000000000000E+00  4.53630993363733E-13
(PID.TID 0000.0001) // =======================================================
(PID.TID 0000.0001) // Begin AD_MONITOR EXF statistics for iwhen =  3
(PID.TID 0000.0001) // =======================================================
(PID.TID 0000.0001) %MON ad_exf_tsnumber              =                     6
(PID.TID 0000.0001) %MON ad_exf_time_sec              =   2.1600000000000E+04
(PID.TID 0000.0001) %MON ad_exf_adfu_max              =   7.0069443090131E+03
(PID.TID 0000.0001) %MON ad_exf_adfu_min              =   7.0069443090131E+03
(PID.TID 0000.0001) %MON ad_exf_adfu_mean             =   7.0069443090131E+03
(PID.TID 0000.0001) %MON ad_exf_adfu_sd               =   0.0000000000000E+00
(PID.TID 0000.0001) %MON ad_exf_adfu_del2             =   1.5256914699123E+04
(PID.TID 0000.0001) %MON ad_exf_adfv_max              =   7.8362677642686E+03
(PID.TID 0000.0001) %MON ad_exf_adfv_min              =   7.8362677642686E+03
(PID.TID 0000.0001) %MON ad_exf_adfv_mean             =   7.8362677642686E+03
(PID.TID 0000.0001) %MON ad_exf_adfv_sd               =   0.0000000000000E+00
(PID.TID 0000.0001) %MON ad_exf_adfv_del2             =   1.7457765848811E+04
(PID.TID 0000.0001) %MON ad_exf_adqnet_max            =  -8.1608464953476E-01
(PID.TID 0000.0001) %MON ad_exf_adqnet_min            =  -8.1608464953476E-01
(PID.TID 0000.0001) %MON ad_exf_adqnet_mean           =  -8.1608464953476E-01
(PID.TID 0000.0001) %MON ad_exf_adqnet_sd             =   0.0000000000000E+00
(PID.TID 0000.0001) %MON ad_exf_adqnet_del2           =   2.3082359588331E+00
(PID.TID 0000.0001) %MON ad_exf_adempmr_max           =  -5.7476532826768E+06
(PID.TID 0000.0001) %MON ad_exf_adempmr_min           =  -5.7476532826768E+06
(PID.TID 0000.0001) %MON ad_exf_adempmr_mean          =  -5.7476532826768E+06
(PID.TID 0000.0001) %MON ad_exf_adempmr_sd            =   0.0000000000000E+00
(PID.TID 0000.0001) %MON ad_exf_adempmr_del2          =   1.6256818448359E+07
(PID.TID 0000.0001) %MON ad_exf_adqsw_max             =   1.7118680928588E-01
(PID.TID 0000.0001) %MON ad_exf_adqsw_min             =   1.7118680928588E-01
(PID.TID 0000.0001) %MON ad_exf_adqsw_mean            =   1.7118680928588E-01
(PID.TID 0000.0001) %MON ad_exf_adqsw_sd              =   0.0000000000000E+00
(PID.TID 0000.0001) %MON ad_exf_adqsw_del2            =   4.8418941478294E-01
(PID.TID 0000.0001) // =======================================================
(PID.TID 0000.0001) // End AD_MONITOR EXF statistics for iwhen =  3
(PID.TID 0000.0001) // =======================================================
(PID.TID 0000.0001) // =======================================================
(PID.TID 0000.0001) // Begin AD_MONITOR dynamic field statistics
(PID.TID 0000.0001) // =======================================================
(PID.TID 0000.0001) %MON ad_time_tsnumber             =                     6
(PID.TID 0000.0001) %MON ad_time_secondsf             =   2.1600000000000E+04
(PID.TID 0000.0001) %MON ad_dynstat_adeta_max         =   2.2853724658510E-09
(PID.TID 0000.0001) %MON ad_dynstat_adeta_min         =   2.2853724658510E-09
(PID.TID 0000.0001) %MON ad_dynstat_adeta_mean        =   2.2853724658510E-09
(PID.TID 0000.0001) %MON ad_dynstat_adeta_sd          =   0.0000000000000E+00
(PID.TID 0000.0001) %MON ad_dynstat_adeta_del2        =   6.4640094725612E-09
(PID.TID 0000.0001) %MON ad_dynstat_aduvel_max        =   3.0821094653768E+03
(PID.TID 0000.0001) %MON ad_dynstat_aduvel_min        =  -3.3325745261588E+03
(PID.TID 0000.0001) %MON ad_dynstat_aduvel_mean       =  -9.0022151511317E-10
(PID.TID 0000.0001) %MON ad_dynstat_aduvel_sd         =   6.5259421714185E+02
(PID.TID 0000.0001) %MON ad_dynstat_aduvel_del2       =   5.7494868938862E+02
(PID.TID 0000.0001) %MON ad_dynstat_advvel_max        =   1.0317684685920E+03
(PID.TID 0000.0001) %MON ad_dynstat_advvel_min        =  -1.1506214141908E+03
(PID.TID 0000.0001) %MON ad_dynstat_advvel_mean       =  -4.1619832374712E-10
(PID.TID 0000.0001) %MON ad_dynstat_advvel_sd         =   2.3251339179097E+02
(PID.TID 0000.0001) %MON ad_dynstat_advvel_del2       =   2.0484899553816E+02
(PID.TID 0000.0001) %MON ad_dynstat_adwvel_max        =   1.9895172836256E+03
(PID.TID 0000.0001) %MON ad_dynstat_adwvel_min        =  -1.3101056513054E+03
(PID.TID 0000.0001) %MON ad_dynstat_adwvel_mean       =   1.5608040251169E+01
(PID.TID 0000.0001) %MON ad_dynstat_adwvel_sd         =   3.4510468797906E+02
(PID.TID 0000.0001) %MON ad_dynstat_adwvel_del2       =   2.9355182020205E+02
(PID.TID 0000.0001) %MON ad_dynstat_adtheta_max       =   7.0662112079338E+03
(PID.TID 0000.0001) %MON ad_dynstat_adtheta_min       =  -6.3445196014620E+03
(PID.TID 0000.0001) %MON ad_dynstat_adtheta_mean      =   7.8091312296137E+00
(PID.TID 0000.0001) %MON ad_dynstat_adtheta_sd        =   1.4107511278342E+03
(PID.TID 0000.0001) %MON ad_dynstat_adtheta_del2      =   1.2429192862156E+03
(PID.TID 0000.0001) %MON ad_dynstat_adsalt_max        =   1.5110926304710E+05
(PID.TID 0000.0001) %MON ad_dynstat_adsalt_min        =  -1.7498189661793E+05
(PID.TID 0000.0001) %MON ad_dynstat_adsalt_mean       =  -1.0693295048865E+01
(PID.TID 0000.0001) %MON ad_dynstat_adsalt_sd         =   3.3714379939822E+04
(PID.TID 0000.0001) %MON ad_dynstat_adsalt_del2       =   2.9703051338475E+04
(PID.TID 0000.0001) %MON ad_dynstat_adsst_max         =  -6.3445196014620E+03
(PID.TID 0000.0001) %MON ad_dynstat_adsst_min         =  -6.3445196014620E+03
(PID.TID 0000.0001) %MON ad_dynstat_adsst_mean        =  -6.3445196014620E+03
(PID.TID 0000.0001) %MON ad_dynstat_adsst_sd          =   0.0000000000000E+00
(PID.TID 0000.0001) %MON ad_dynstat_adsst_del2        =   1.7945011334259E+04
(PID.TID 0000.0001) %MON ad_dynstat_adsss_max         =  -1.7498189661793E+05
(PID.TID 0000.0001) %MON ad_dynstat_adsss_min         =  -1.7498189661793E+05
(PID.TID 0000.0001) %MON ad_dynstat_adsss_mean        =  -1.7498189661793E+05
(PID.TID 0000.0001) %MON ad_dynstat_adsss_sd          =   0.0000000000000E+00
(PID.TID 0000.0001) %MON ad_dynstat_adsss_del2        =   4.9492354273369E+05
(PID.TID 0000.0001) // =======================================================
(PID.TID 0000.0001) // End AD_MONITOR dynamic field statistics
(PID.TID 0000.0001) // =======================================================
(PID.TID 0000.0001) // =======================================================
(PID.TID 0000.0001) // Begin AD_MONITOR SEAICE statistics
(PID.TID 0000.0001) // =======================================================
(PID.TID 0000.0001) %MON ad_seaice_tsnumber           =                     6
(PID.TID 0000.0001) %MON ad_seaice_time_sec           =   2.1600000000000E+04
(PID.TID 0000.0001) %MON ad_seaice_adarea_max         =   9.5716183761929E+06
(PID.TID 0000.0001) %MON ad_seaice_adarea_min         =   9.5716183761929E+06
(PID.TID 0000.0001) %MON ad_seaice_adarea_mean        =   9.5716183761929E+06
(PID.TID 0000.0001) %MON ad_seaice_adarea_sd          =   0.0000000000000E+00
(PID.TID 0000.0001) %MON ad_seaice_adarea_del2        =   2.7072689872259E+07
(PID.TID 0000.0001) %MON ad_seaice_adheff_max         =   9.8175539197424E+03
(PID.TID 0000.0001) %MON ad_seaice_adheff_min         =   9.8175539197424E+03
(PID.TID 0000.0001) %MON ad_seaice_adheff_mean        =   9.8175539197424E+03
(PID.TID 0000.0001) %MON ad_seaice_adheff_sd          =   0.0000000000000E+00
(PID.TID 0000.0001) %MON ad_seaice_adheff_del2        =   2.7768235805258E+04
(PID.TID 0000.0001) %MON ad_seaice_adhsnow_max        =   3.1145484855281E+04
(PID.TID 0000.0001) %MON ad_seaice_adhsnow_min        =   3.1145484855281E+04
(PID.TID 0000.0001) %MON ad_seaice_adhsnow_mean       =   3.1145484855281E+04
(PID.TID 0000.0001) %MON ad_seaice_adhsnow_sd         =   0.0000000000000E+00
(PID.TID 0000.0001) %MON ad_seaice_adhsnow_del2       =   8.8092734178048E+04
(PID.TID 0000.0001) %MON ad_seaice_adhsalt_max        =   0.0000000000000E+00
(PID.TID 0000.0001) %MON ad_seaice_adhsalt_min        =   0.0000000000000E+00
(PID.TID 0000.0001) %MON ad_seaice_adhsalt_mean       =   0.0000000000000E+00
(PID.TID 0000.0001) %MON ad_seaice_adhsalt_sd         =   0.0000000000000E+00
(PID.TID 0000.0001) %MON ad_seaice_adhsalt_del2       =   0.0000000000000E+00
(PID.TID 0000.0001) // =======================================================
(PID.TID 0000.0001) // End AD_MONITOR SEAICE statistics
(PID.TID 0000.0001) // =======================================================
 Calling cg2d from S/R CG2D_MAD
 cg2d: Sum(rhs),rhsMax =   1.00000000000000E+00  2.72178596018240E-12
(PID.TID 0000.0001) // =======================================================
(PID.TID 0000.0001) // Begin AD_MONITOR EXF statistics for iwhen =  3
(PID.TID 0000.0001) // =======================================================
(PID.TID 0000.0001) %MON ad_exf_tsnumber              =                     5
(PID.TID 0000.0001) %MON ad_exf_time_sec              =   1.8000000000000E+04
(PID.TID 0000.0001) %MON ad_exf_adfu_max              =   1.0878284655717E+04
(PID.TID 0000.0001) %MON ad_exf_adfu_min              =   1.0878284655717E+04
(PID.TID 0000.0001) %MON ad_exf_adfu_mean             =   1.0878284655717E+04
(PID.TID 0000.0001) %MON ad_exf_adfu_sd               =   0.0000000000000E+00
(PID.TID 0000.0001) %MON ad_exf_adfu_del2             =   2.3908900484276E+04
(PID.TID 0000.0001) %MON ad_exf_adfv_max              =   1.1357418531368E+04
(PID.TID 0000.0001) %MON ad_exf_adfv_min              =   1.1357418531368E+04
(PID.TID 0000.0001) %MON ad_exf_adfv_mean             =   1.1357418531368E+04
(PID.TID 0000.0001) %MON ad_exf_adfv_sd               =   0.0000000000000E+00
(PID.TID 0000.0001) %MON ad_exf_adfv_del2             =   2.5182728792378E+04
(PID.TID 0000.0001) %MON ad_exf_adqnet_max            =  -7.7095842818394E-01
(PID.TID 0000.0001) %MON ad_exf_adqnet_min            =  -7.7095842818394E-01
(PID.TID 0000.0001) %MON ad_exf_adqnet_mean           =  -7.7095842818394E-01
(PID.TID 0000.0001) %MON ad_exf_adqnet_sd             =   0.0000000000000E+00
(PID.TID 0000.0001) %MON ad_exf_adqnet_del2           =   2.1805997303271E+00
(PID.TID 0000.0001) %MON ad_exf_adempmr_max           =  -8.5746847739171E+06
(PID.TID 0000.0001) %MON ad_exf_adempmr_min           =  -8.5746847739171E+06
(PID.TID 0000.0001) %MON ad_exf_adempmr_mean          =  -8.5746847739171E+06
(PID.TID 0000.0001) %MON ad_exf_adempmr_sd            =   0.0000000000000E+00
(PID.TID 0000.0001) %MON ad_exf_adempmr_del2          =   2.4252871000695E+07
(PID.TID 0000.0001) %MON ad_exf_adqsw_max             =   8.8345641440087E-03
(PID.TID 0000.0001) %MON ad_exf_adqsw_min             =   8.8345641440087E-03
(PID.TID 0000.0001) %MON ad_exf_adqsw_mean            =   8.8345641440087E-03
(PID.TID 0000.0001) %MON ad_exf_adqsw_sd              =   0.0000000000000E+00
(PID.TID 0000.0001) %MON ad_exf_adqsw_del2            =   2.4987920860224E-02
(PID.TID 0000.0001) // =======================================================
(PID.TID 0000.0001) // End AD_MONITOR EXF statistics for iwhen =  3
(PID.TID 0000.0001) // =======================================================
(PID.TID 0000.0001) // =======================================================
(PID.TID 0000.0001) // Begin AD_MONITOR dynamic field statistics
(PID.TID 0000.0001) // =======================================================
(PID.TID 0000.0001) %MON ad_time_tsnumber             =                     5
(PID.TID 0000.0001) %MON ad_time_secondsf             =   1.8000000000000E+04
(PID.TID 0000.0001) %MON ad_dynstat_adeta_max         =   1.3712234795106E-08
(PID.TID 0000.0001) %MON ad_dynstat_adeta_min         =   1.3712234795106E-08
(PID.TID 0000.0001) %MON ad_dynstat_adeta_mean        =   1.3712234795106E-08
(PID.TID 0000.0001) %MON ad_dynstat_adeta_sd          =   0.0000000000000E+00
(PID.TID 0000.0001) %MON ad_dynstat_adeta_del2        =   3.8784056835367E-08
(PID.TID 0000.0001) %MON ad_dynstat_aduvel_max        =   3.5730318701167E+03
(PID.TID 0000.0001) %MON ad_dynstat_aduvel_min        =  -4.0436030215014E+03
(PID.TID 0000.0001) %MON ad_dynstat_aduvel_mean       =  -5.7765229343520E-10
(PID.TID 0000.0001) %MON ad_dynstat_aduvel_sd         =   7.7900260099659E+02
(PID.TID 0000.0001) %MON ad_dynstat_aduvel_del2       =   6.8631702934009E+02
(PID.TID 0000.0001) %MON ad_dynstat_advvel_max        =   2.2574327186042E+03
(PID.TID 0000.0001) %MON ad_dynstat_advvel_min        =  -2.1332190823206E+03
(PID.TID 0000.0001) %MON ad_dynstat_advvel_mean       =  -5.2571819514316E-10
(PID.TID 0000.0001) %MON ad_dynstat_advvel_sd         =   4.5782259771383E+02
(PID.TID 0000.0001) %MON ad_dynstat_advvel_del2       =   4.0335095778338E+02
(PID.TID 0000.0001) %MON ad_dynstat_adwvel_max        =   2.2144243542278E+03
(PID.TID 0000.0001) %MON ad_dynstat_adwvel_min        =  -1.1177476355979E+03
(PID.TID 0000.0001) %MON ad_dynstat_adwvel_mean       =   2.6523476895865E+01
(PID.TID 0000.0001) %MON ad_dynstat_adwvel_sd         =   3.5954424904590E+02
(PID.TID 0000.0001) %MON ad_dynstat_adwvel_del2       =   3.0635223562677E+02
(PID.TID 0000.0001) %MON ad_dynstat_adtheta_max       =   2.3315008095244E+03
(PID.TID 0000.0001) %MON ad_dynstat_adtheta_min       =  -3.5020049843200E+03
(PID.TID 0000.0001) %MON ad_dynstat_adtheta_mean      =  -3.8325052878832E+00
(PID.TID 0000.0001) %MON ad_dynstat_adtheta_sd        =   6.2491502702516E+02
(PID.TID 0000.0001) %MON ad_dynstat_adtheta_del2      =   5.5057311742310E+02
(PID.TID 0000.0001) %MON ad_dynstat_adsalt_max        =   2.0439701228383E+05
(PID.TID 0000.0001) %MON ad_dynstat_adsalt_min        =  -2.4811876361226E+05
(PID.TID 0000.0001) %MON ad_dynstat_adsalt_mean       =  -1.4984350010121E+01
(PID.TID 0000.0001) %MON ad_dynstat_adsalt_sd         =   4.7164369187761E+04
(PID.TID 0000.0001) %MON ad_dynstat_adsalt_del2       =   4.1552764193435E+04
(PID.TID 0000.0001) %MON ad_dynstat_adsst_max         =  -5.5238703271534E+02
(PID.TID 0000.0001) %MON ad_dynstat_adsst_min         =  -5.5238703271534E+02
(PID.TID 0000.0001) %MON ad_dynstat_adsst_mean        =  -5.5238703271534E+02
(PID.TID 0000.0001) %MON ad_dynstat_adsst_sd          =   0.0000000000000E+00
(PID.TID 0000.0001) %MON ad_dynstat_adsst_del2        =   1.5623864666901E+03
(PID.TID 0000.0001) %MON ad_dynstat_adsss_max         =  -2.4811876361226E+05
(PID.TID 0000.0001) %MON ad_dynstat_adsss_min         =  -2.4811876361226E+05
(PID.TID 0000.0001) %MON ad_dynstat_adsss_mean        =  -2.4811876361226E+05
(PID.TID 0000.0001) %MON ad_dynstat_adsss_sd          =   0.0000000000000E+00
(PID.TID 0000.0001) %MON ad_dynstat_adsss_del2        =   7.0178584115940E+05
(PID.TID 0000.0001) // =======================================================
(PID.TID 0000.0001) // End AD_MONITOR dynamic field statistics
(PID.TID 0000.0001) // =======================================================
(PID.TID 0000.0001) // =======================================================
(PID.TID 0000.0001) // Begin AD_MONITOR SEAICE statistics
(PID.TID 0000.0001) // =======================================================
(PID.TID 0000.0001) %MON ad_seaice_tsnumber           =                     5
(PID.TID 0000.0001) %MON ad_seaice_time_sec           =   1.8000000000000E+04
(PID.TID 0000.0001) %MON ad_seaice_adarea_max         =   1.1872657934321E+07
(PID.TID 0000.0001) %MON ad_seaice_adarea_min         =   1.1872657934321E+07
(PID.TID 0000.0001) %MON ad_seaice_adarea_mean        =   1.1872657934321E+07
(PID.TID 0000.0001) %MON ad_seaice_adarea_sd          =   0.0000000000000E+00
(PID.TID 0000.0001) %MON ad_seaice_adarea_del2        =   3.3581044379431E+07
(PID.TID 0000.0001) %MON ad_seaice_adheff_max         =   1.2314502504622E+04
(PID.TID 0000.0001) %MON ad_seaice_adheff_min         =   1.2314502504622E+04
(PID.TID 0000.0001) %MON ad_seaice_adheff_mean        =   1.2314502504622E+04
(PID.TID 0000.0001) %MON ad_seaice_adheff_sd          =   0.0000000000000E+00
(PID.TID 0000.0001) %MON ad_seaice_adheff_del2        =   3.4830672911828E+04
(PID.TID 0000.0001) %MON ad_seaice_adhsnow_max        =   3.8613585234362E+04
(PID.TID 0000.0001) %MON ad_seaice_adhsnow_min        =   3.8613585234362E+04
(PID.TID 0000.0001) %MON ad_seaice_adhsnow_mean       =   3.8613585234362E+04
(PID.TID 0000.0001) %MON ad_seaice_adhsnow_sd         =   0.0000000000000E+00
(PID.TID 0000.0001) %MON ad_seaice_adhsnow_del2       =   1.0921571186057E+05
(PID.TID 0000.0001) %MON ad_seaice_adhsalt_max        =   0.0000000000000E+00
(PID.TID 0000.0001) %MON ad_seaice_adhsalt_min        =   0.0000000000000E+00
(PID.TID 0000.0001) %MON ad_seaice_adhsalt_mean       =   0.0000000000000E+00
(PID.TID 0000.0001) %MON ad_seaice_adhsalt_sd         =   0.0000000000000E+00
(PID.TID 0000.0001) %MON ad_seaice_adhsalt_del2       =   0.0000000000000E+00
(PID.TID 0000.0001) // =======================================================
(PID.TID 0000.0001) // End AD_MONITOR SEAICE statistics
(PID.TID 0000.0001) // =======================================================
 Calling cg2d from S/R CG2D_MAD
 cg2d: Sum(rhs),rhsMax =   1.00000000000000E+00  3.62904794690986E-12
(PID.TID 0000.0001) // =======================================================
(PID.TID 0000.0001) // Begin AD_MONITOR EXF statistics for iwhen =  3
(PID.TID 0000.0001) // =======================================================
(PID.TID 0000.0001) %MON ad_exf_tsnumber              =                     4
(PID.TID 0000.0001) %MON ad_exf_time_sec              =   1.4400000000000E+04
(PID.TID 0000.0001) %MON ad_exf_adfu_max              =   1.4894939377933E+04
(PID.TID 0000.0001) %MON ad_exf_adfu_min              =   1.4894939377933E+04
(PID.TID 0000.0001) %MON ad_exf_adfu_mean             =   1.4894939377933E+04
(PID.TID 0000.0001) %MON ad_exf_adfu_sd               =   0.0000000000000E+00
(PID.TID 0000.0001) %MON ad_exf_adfu_del2             =   3.2800038580056E+04
(PID.TID 0000.0001) %MON ad_exf_adfv_max              =   1.5300110814655E+04
(PID.TID 0000.0001) %MON ad_exf_adfv_min              =   1.5300110814655E+04
(PID.TID 0000.0001) %MON ad_exf_adfv_mean             =   1.5300110814655E+04
(PID.TID 0000.0001) %MON ad_exf_adfv_sd               =   0.0000000000000E+00
(PID.TID 0000.0001) %MON ad_exf_adfv_del2             =   3.3877449117247E+04
(PID.TID 0000.0001) %MON ad_exf_adqnet_max            =  -8.6646672028859E-01
(PID.TID 0000.0001) %MON ad_exf_adqnet_min            =  -8.6646672028859E-01
(PID.TID 0000.0001) %MON ad_exf_adqnet_mean           =  -8.6646672028859E-01
(PID.TID 0000.0001) %MON ad_exf_adqnet_sd             =   1.1102230246252E-16
(PID.TID 0000.0001) %MON ad_exf_adqnet_del2           =   2.4507379743541E+00
(PID.TID 0000.0001) %MON ad_exf_adempmr_max           =  -1.0917722183032E+07
(PID.TID 0000.0001) %MON ad_exf_adempmr_min           =  -1.0917722183032E+07
(PID.TID 0000.0001) %MON ad_exf_adempmr_mean          =  -1.0917722183032E+07
(PID.TID 0000.0001) %MON ad_exf_adempmr_sd            =   0.0000000000000E+00
(PID.TID 0000.0001) %MON ad_exf_adempmr_del2          =   3.0879981562932E+07
(PID.TID 0000.0001) %MON ad_exf_adqsw_max             =   6.2035422293270E-02
(PID.TID 0000.0001) %MON ad_exf_adqsw_min             =   6.2035422293270E-02
(PID.TID 0000.0001) %MON ad_exf_adqsw_mean            =   6.2035422293270E-02
(PID.TID 0000.0001) %MON ad_exf_adqsw_sd              =   0.0000000000000E+00
(PID.TID 0000.0001) %MON ad_exf_adqsw_del2            =   1.7546267110937E-01
(PID.TID 0000.0001) // =======================================================
(PID.TID 0000.0001) // End AD_MONITOR EXF statistics for iwhen =  3
(PID.TID 0000.0001) // =======================================================
(PID.TID 0000.0001) // =======================================================
(PID.TID 0000.0001) // Begin AD_MONITOR dynamic field statistics
(PID.TID 0000.0001) // =======================================================
(PID.TID 0000.0001) %MON ad_time_tsnumber             =                     4
(PID.TID 0000.0001) %MON ad_time_secondsf             =   1.4400000000000E+04
(PID.TID 0000.0001) %MON ad_dynstat_adeta_max         =   1.8282979726808E-08
(PID.TID 0000.0001) %MON ad_dynstat_adeta_min         =   1.8282979726808E-08
(PID.TID 0000.0001) %MON ad_dynstat_adeta_mean        =   1.8282979726808E-08
(PID.TID 0000.0001) %MON ad_dynstat_adeta_sd          =   0.0000000000000E+00
(PID.TID 0000.0001) %MON ad_dynstat_adeta_del2        =   5.1712075780489E-08
(PID.TID 0000.0001) %MON ad_dynstat_aduvel_max        =   3.9354928198738E+03
(PID.TID 0000.0001) %MON ad_dynstat_aduvel_min        =  -4.7543796561459E+03
(PID.TID 0000.0001) %MON ad_dynstat_aduvel_mean       =  -9.3478761572433E-10
(PID.TID 0000.0001) %MON ad_dynstat_aduvel_sd         =   8.9406173319269E+02
(PID.TID 0000.0001) %MON ad_dynstat_aduvel_del2       =   7.8768644929614E+02
(PID.TID 0000.0001) %MON ad_dynstat_advvel_max        =   3.8436534491570E+03
(PID.TID 0000.0001) %MON ad_dynstat_advvel_min        =  -3.4909961519226E+03
(PID.TID 0000.0001) %MON ad_dynstat_advvel_mean       =  -9.9811772746024E-10
(PID.TID 0000.0001) %MON ad_dynstat_advvel_sd         =   7.5778920829901E+02
(PID.TID 0000.0001) %MON ad_dynstat_advvel_del2       =   6.6762760180827E+02
(PID.TID 0000.0001) %MON ad_dynstat_adwvel_max        =   2.6443063105979E+03
(PID.TID 0000.0001) %MON ad_dynstat_adwvel_min        =  -1.2380414095246E+03
(PID.TID 0000.0001) %MON ad_dynstat_adwvel_mean       =   3.2202540136036E+01
(PID.TID 0000.0001) %MON ad_dynstat_adwvel_sd         =   4.2224912528650E+02
(PID.TID 0000.0001) %MON ad_dynstat_adwvel_del2       =   3.5984732929916E+02
(PID.TID 0000.0001) %MON ad_dynstat_adtheta_max       =   2.3736498584190E+04
(PID.TID 0000.0001) %MON ad_dynstat_adtheta_min       =  -4.9263855746529E+03
(PID.TID 0000.0001) %MON ad_dynstat_adtheta_mean      =   3.9763493123210E+02
(PID.TID 0000.0001) %MON ad_dynstat_adtheta_sd        =   3.3650253991518E+03
(PID.TID 0000.0001) %MON ad_dynstat_adtheta_del2      =   2.9852819946102E+03
(PID.TID 0000.0001) %MON ad_dynstat_adsalt_max        =   2.8333310611579E+05
(PID.TID 0000.0001) %MON ad_dynstat_adsalt_min        =  -3.4898335665408E+05
(PID.TID 0000.0001) %MON ad_dynstat_adsalt_mean       =  -2.1266466373726E+01
(PID.TID 0000.0001) %MON ad_dynstat_adsalt_sd         =   6.6033228244979E+04
(PID.TID 0000.0001) %MON ad_dynstat_adsalt_del2       =   5.8176611142440E+04
(PID.TID 0000.0001) %MON ad_dynstat_adsst_max         =   2.3736498584190E+04
(PID.TID 0000.0001) %MON ad_dynstat_adsst_min         =   2.3736498584190E+04
(PID.TID 0000.0001) %MON ad_dynstat_adsst_mean        =   2.3736498584190E+04
(PID.TID 0000.0001) %MON ad_dynstat_adsst_sd          =   0.0000000000000E+00
(PID.TID 0000.0001) %MON ad_dynstat_adsst_del2        =   6.7136956442024E+04
(PID.TID 0000.0001) %MON ad_dynstat_adsss_max         =  -3.4898335665408E+05
(PID.TID 0000.0001) %MON ad_dynstat_adsss_min         =  -3.4898335665408E+05
(PID.TID 0000.0001) %MON ad_dynstat_adsss_mean        =  -3.4898335665408E+05
(PID.TID 0000.0001) %MON ad_dynstat_adsss_sd          =   0.0000000000000E+00
(PID.TID 0000.0001) %MON ad_dynstat_adsss_del2        =   9.8707399204537E+05
(PID.TID 0000.0001) // =======================================================
(PID.TID 0000.0001) // End AD_MONITOR dynamic field statistics
(PID.TID 0000.0001) // =======================================================
(PID.TID 0000.0001) // =======================================================
(PID.TID 0000.0001) // Begin AD_MONITOR SEAICE statistics
(PID.TID 0000.0001) // =======================================================
(PID.TID 0000.0001) %MON ad_seaice_tsnumber           =                     4
(PID.TID 0000.0001) %MON ad_seaice_time_sec           =   1.4400000000000E+04
(PID.TID 0000.0001) %MON ad_seaice_adarea_max         =   1.4147039824621E+07
(PID.TID 0000.0001) %MON ad_seaice_adarea_min         =   1.4147039824621E+07
(PID.TID 0000.0001) %MON ad_seaice_adarea_mean        =   1.4147039824621E+07
(PID.TID 0000.0001) %MON ad_seaice_adarea_sd          =   1.8626451492310E-09
(PID.TID 0000.0001) %MON ad_seaice_adarea_del2        =   4.0014002325780E+07
(PID.TID 0000.0001) %MON ad_seaice_adheff_max         =   1.4253458306055E+04
(PID.TID 0000.0001) %MON ad_seaice_adheff_min         =   1.4253458306055E+04
(PID.TID 0000.0001) %MON ad_seaice_adheff_mean        =   1.4253458306055E+04
(PID.TID 0000.0001) %MON ad_seaice_adheff_sd          =   0.0000000000000E+00
(PID.TID 0000.0001) %MON ad_seaice_adheff_del2        =   4.0314868094284E+04
(PID.TID 0000.0001) %MON ad_seaice_adhsnow_max        =   4.6226007996579E+04
(PID.TID 0000.0001) %MON ad_seaice_adhsnow_min        =   4.6226007996579E+04
(PID.TID 0000.0001) %MON ad_seaice_adhsnow_mean       =   4.6226007996579E+04
(PID.TID 0000.0001) %MON ad_seaice_adhsnow_sd         =   7.2759576141834E-12
(PID.TID 0000.0001) %MON ad_seaice_adhsnow_del2       =   1.3074689488626E+05
(PID.TID 0000.0001) %MON ad_seaice_adhsalt_max        =   0.0000000000000E+00
(PID.TID 0000.0001) %MON ad_seaice_adhsalt_min        =   0.0000000000000E+00
(PID.TID 0000.0001) %MON ad_seaice_adhsalt_mean       =   0.0000000000000E+00
(PID.TID 0000.0001) %MON ad_seaice_adhsalt_sd         =   0.0000000000000E+00
(PID.TID 0000.0001) %MON ad_seaice_adhsalt_del2       =   0.0000000000000E+00
(PID.TID 0000.0001) // =======================================================
(PID.TID 0000.0001) // End AD_MONITOR SEAICE statistics
(PID.TID 0000.0001) // =======================================================
 Calling cg2d from S/R CG2D_MAD
 cg2d: Sum(rhs),rhsMax =   1.00000000000000E+00  2.72178596018240E-12
(PID.TID 0000.0001) // =======================================================
(PID.TID 0000.0001) // Begin AD_MONITOR EXF statistics for iwhen =  3
(PID.TID 0000.0001) // =======================================================
(PID.TID 0000.0001) %MON ad_exf_tsnumber              =                     3
(PID.TID 0000.0001) %MON ad_exf_time_sec              =   1.0800000000000E+04
(PID.TID 0000.0001) %MON ad_exf_adfu_max              =   1.4536725572783E+04
(PID.TID 0000.0001) %MON ad_exf_adfu_min              =   1.4536725572783E+04
(PID.TID 0000.0001) %MON ad_exf_adfu_mean             =   1.4536725572783E+04
(PID.TID 0000.0001) %MON ad_exf_adfu_sd               =   0.0000000000000E+00
(PID.TID 0000.0001) %MON ad_exf_adfu_del2             =   3.1942608036486E+04
(PID.TID 0000.0001) %MON ad_exf_adfv_max              =   1.4670378378629E+04
(PID.TID 0000.0001) %MON ad_exf_adfv_min              =   1.4670378378629E+04
(PID.TID 0000.0001) %MON ad_exf_adfv_mean             =   1.4670378378629E+04
(PID.TID 0000.0001) %MON ad_exf_adfv_sd               =   0.0000000000000E+00
(PID.TID 0000.0001) %MON ad_exf_adfv_del2             =   3.2296898518580E+04
(PID.TID 0000.0001) %MON ad_exf_adqnet_max            =  -1.1911917948135E+00
(PID.TID 0000.0001) %MON ad_exf_adqnet_min            =  -1.1911917948135E+00
(PID.TID 0000.0001) %MON ad_exf_adqnet_mean           =  -1.1911917948135E+00
(PID.TID 0000.0001) %MON ad_exf_adqnet_sd             =   0.0000000000000E+00
(PID.TID 0000.0001) %MON ad_exf_adqnet_del2           =   3.3691991832256E+00
(PID.TID 0000.0001) %MON ad_exf_adempmr_max           =  -1.0899117882637E+07
(PID.TID 0000.0001) %MON ad_exf_adempmr_min           =  -1.0899117882637E+07
(PID.TID 0000.0001) %MON ad_exf_adempmr_mean          =  -1.0899117882637E+07
(PID.TID 0000.0001) %MON ad_exf_adempmr_sd            =   0.0000000000000E+00
(PID.TID 0000.0001) %MON ad_exf_adempmr_del2          =   3.0827360655056E+07
(PID.TID 0000.0001) %MON ad_exf_adqsw_max             =   2.2739506990981E-01
(PID.TID 0000.0001) %MON ad_exf_adqsw_min             =   2.2739506990981E-01
(PID.TID 0000.0001) %MON ad_exf_adqsw_mean            =   2.2739506990981E-01
(PID.TID 0000.0001) %MON ad_exf_adqsw_sd              =   0.0000000000000E+00
(PID.TID 0000.0001) %MON ad_exf_adqsw_del2            =   6.4317038376646E-01
(PID.TID 0000.0001) // =======================================================
(PID.TID 0000.0001) // End AD_MONITOR EXF statistics for iwhen =  3
(PID.TID 0000.0001) // =======================================================
(PID.TID 0000.0001) // =======================================================
(PID.TID 0000.0001) // Begin AD_MONITOR dynamic field statistics
(PID.TID 0000.0001) // =======================================================
(PID.TID 0000.0001) %MON ad_time_tsnumber             =                     3
(PID.TID 0000.0001) %MON ad_time_secondsf             =   1.0800000000000E+04
(PID.TID 0000.0001) %MON ad_dynstat_adeta_max         =   1.3712234795106E-08
(PID.TID 0000.0001) %MON ad_dynstat_adeta_min         =   1.3712234795106E-08
(PID.TID 0000.0001) %MON ad_dynstat_adeta_mean        =   1.3712234795106E-08
(PID.TID 0000.0001) %MON ad_dynstat_adeta_sd          =   0.0000000000000E+00
(PID.TID 0000.0001) %MON ad_dynstat_adeta_del2        =   3.8784056835367E-08
(PID.TID 0000.0001) %MON ad_dynstat_aduvel_max        =   3.5480282163430E+03
(PID.TID 0000.0001) %MON ad_dynstat_aduvel_min        =  -4.4877103483264E+03
(PID.TID 0000.0001) %MON ad_dynstat_aduvel_mean       =  -9.3645822501111E-10
(PID.TID 0000.0001) %MON ad_dynstat_aduvel_sd         =   8.3188083236177E+02
(PID.TID 0000.0001) %MON ad_dynstat_aduvel_del2       =   7.3290381944950E+02
(PID.TID 0000.0001) %MON ad_dynstat_advvel_max        =   5.7062312364118E+03
(PID.TID 0000.0001) %MON ad_dynstat_advvel_min        =  -4.9412465319885E+03
(PID.TID 0000.0001) %MON ad_dynstat_advvel_mean       =  -1.2795313911448E-09
(PID.TID 0000.0001) %MON ad_dynstat_advvel_sd         =   1.0952542858897E+03
(PID.TID 0000.0001) %MON ad_dynstat_advvel_del2       =   9.6494115283078E+02
(PID.TID 0000.0001) %MON ad_dynstat_adwvel_max        =   3.0131533750686E+03
(PID.TID 0000.0001) %MON ad_dynstat_adwvel_min        =  -1.1686851800936E+03
(PID.TID 0000.0001) %MON ad_dynstat_adwvel_mean       =   4.1616130241590E+01
(PID.TID 0000.0001) %MON ad_dynstat_adwvel_sd         =   4.6669316339573E+02
(PID.TID 0000.0001) %MON ad_dynstat_adwvel_del2       =   3.9814521815608E+02
(PID.TID 0000.0001) %MON ad_dynstat_adtheta_max       =   4.7197769498153E+04
(PID.TID 0000.0001) %MON ad_dynstat_adtheta_min       =  -6.4405414573621E+03
(PID.TID 0000.0001) %MON ad_dynstat_adtheta_mean      =   9.7578097220408E+02
(PID.TID 0000.0001) %MON ad_dynstat_adtheta_sd        =   6.6572196494796E+03
(PID.TID 0000.0001) %MON ad_dynstat_adtheta_del2      =   5.9278141292237E+03
(PID.TID 0000.0001) %MON ad_dynstat_adsalt_max        =   3.7038962154730E+05
(PID.TID 0000.0001) %MON ad_dynstat_adsalt_min        =  -4.2716510103025E+05
(PID.TID 0000.0001) %MON ad_dynstat_adsalt_mean       =  -2.8498188665253E+01
(PID.TID 0000.0001) %MON ad_dynstat_adsalt_sd         =   8.2671831210496E+04
(PID.TID 0000.0001) %MON ad_dynstat_adsalt_del2       =   7.2835557808159E+04
(PID.TID 0000.0001) %MON ad_dynstat_adsst_max         =   4.7197769498153E+04
(PID.TID 0000.0001) %MON ad_dynstat_adsst_min         =   4.7197769498153E+04
(PID.TID 0000.0001) %MON ad_dynstat_adsst_mean        =   4.7197769498153E+04
(PID.TID 0000.0001) %MON ad_dynstat_adsst_sd          =   0.0000000000000E+00
(PID.TID 0000.0001) %MON ad_dynstat_adsst_del2        =   1.3349545147609E+05
(PID.TID 0000.0001) %MON ad_dynstat_adsss_max         =  -4.2716510103025E+05
(PID.TID 0000.0001) %MON ad_dynstat_adsss_min         =  -4.2716510103025E+05
(PID.TID 0000.0001) %MON ad_dynstat_adsss_mean        =  -4.2716510103025E+05
(PID.TID 0000.0001) %MON ad_dynstat_adsss_sd          =   0.0000000000000E+00
(PID.TID 0000.0001) %MON ad_dynstat_adsss_del2        =   1.2082053584989E+06
(PID.TID 0000.0001) // =======================================================
(PID.TID 0000.0001) // End AD_MONITOR dynamic field statistics
(PID.TID 0000.0001) // =======================================================
(PID.TID 0000.0001) // =======================================================
(PID.TID 0000.0001) // Begin AD_MONITOR SEAICE statistics
(PID.TID 0000.0001) // =======================================================
(PID.TID 0000.0001) %MON ad_seaice_tsnumber           =                     3
(PID.TID 0000.0001) %MON ad_seaice_time_sec           =   1.0800000000000E+04
(PID.TID 0000.0001) %MON ad_seaice_adarea_max         =   1.6402969906014E+07
(PID.TID 0000.0001) %MON ad_seaice_adarea_min         =   1.6402969906014E+07
(PID.TID 0000.0001) %MON ad_seaice_adarea_mean        =   1.6402969906014E+07
(PID.TID 0000.0001) %MON ad_seaice_adarea_sd          =   0.0000000000000E+00
(PID.TID 0000.0001) %MON ad_seaice_adarea_del2        =   4.6394733147257E+07
(PID.TID 0000.0001) %MON ad_seaice_adheff_max         =   1.5428767740679E+04
(PID.TID 0000.0001) %MON ad_seaice_adheff_min         =   1.5428767740679E+04
(PID.TID 0000.0001) %MON ad_seaice_adheff_mean        =   1.5428767740679E+04
(PID.TID 0000.0001) %MON ad_seaice_adheff_sd          =   0.0000000000000E+00
(PID.TID 0000.0001) %MON ad_seaice_adheff_del2        =   4.3639145179144E+04
(PID.TID 0000.0001) %MON ad_seaice_adhsnow_max        =   5.1819872015446E+04
(PID.TID 0000.0001) %MON ad_seaice_adhsnow_min        =   5.1819872015446E+04
(PID.TID 0000.0001) %MON ad_seaice_adhsnow_mean       =   5.1819872015446E+04
(PID.TID 0000.0001) %MON ad_seaice_adhsnow_sd         =   0.0000000000000E+00
(PID.TID 0000.0001) %MON ad_seaice_adhsnow_del2       =   1.4656873160936E+05
(PID.TID 0000.0001) %MON ad_seaice_adhsalt_max        =   0.0000000000000E+00
(PID.TID 0000.0001) %MON ad_seaice_adhsalt_min        =   0.0000000000000E+00
(PID.TID 0000.0001) %MON ad_seaice_adhsalt_mean       =   0.0000000000000E+00
(PID.TID 0000.0001) %MON ad_seaice_adhsalt_sd         =   0.0000000000000E+00
(PID.TID 0000.0001) %MON ad_seaice_adhsalt_del2       =   0.0000000000000E+00
(PID.TID 0000.0001) // =======================================================
(PID.TID 0000.0001) // End AD_MONITOR SEAICE statistics
(PID.TID 0000.0001) // =======================================================
 Calling cg2d from S/R CG2D_MAD
 cg2d: Sum(rhs),rhsMax =   1.00000000000000E+00  1.81452397345493E-12
(PID.TID 0000.0001) // =======================================================
(PID.TID 0000.0001) // Begin AD_MONITOR EXF statistics for iwhen =  3
(PID.TID 0000.0001) // =======================================================
(PID.TID 0000.0001) %MON ad_exf_tsnumber              =                     2
(PID.TID 0000.0001) %MON ad_exf_time_sec              =   7.2000000000000E+03
(PID.TID 0000.0001) %MON ad_exf_adfu_max              =   1.2068684294792E+04
(PID.TID 0000.0001) %MON ad_exf_adfu_min              =   1.2068684294792E+04
(PID.TID 0000.0001) %MON ad_exf_adfu_mean             =   1.2068684294792E+04
(PID.TID 0000.0001) %MON ad_exf_adfu_sd               =   0.0000000000000E+00
(PID.TID 0000.0001) %MON ad_exf_adfu_del2             =   2.6530954022687E+04
(PID.TID 0000.0001) %MON ad_exf_adfv_max              =   1.1560279667735E+04
(PID.TID 0000.0001) %MON ad_exf_adfv_min              =   1.1560279667735E+04
(PID.TID 0000.0001) %MON ad_exf_adfv_mean             =   1.1560279667735E+04
(PID.TID 0000.0001) %MON ad_exf_adfv_sd               =   0.0000000000000E+00
(PID.TID 0000.0001) %MON ad_exf_adfv_del2             =   2.5188837786608E+04
(PID.TID 0000.0001) %MON ad_exf_adqnet_max            =  -1.6973885265957E+00
(PID.TID 0000.0001) %MON ad_exf_adqnet_min            =  -1.6973885265957E+00
(PID.TID 0000.0001) %MON ad_exf_adqnet_mean           =  -1.6973885265957E+00
(PID.TID 0000.0001) %MON ad_exf_adqnet_sd             =   0.0000000000000E+00
(PID.TID 0000.0001) %MON ad_exf_adqnet_del2           =   4.8009397498564E+00
(PID.TID 0000.0001) %MON ad_exf_adempmr_max           =  -9.2530022065930E+06
(PID.TID 0000.0001) %MON ad_exf_adempmr_min           =  -9.2530022065930E+06
(PID.TID 0000.0001) %MON ad_exf_adempmr_mean          =  -9.2530022065930E+06
(PID.TID 0000.0001) %MON ad_exf_adempmr_sd            =   0.0000000000000E+00
(PID.TID 0000.0001) %MON ad_exf_adempmr_del2          =   2.6171442426464E+07
(PID.TID 0000.0001) %MON ad_exf_adqsw_max             =   3.7535849497053E-01
(PID.TID 0000.0001) %MON ad_exf_adqsw_min             =   3.7535849497053E-01
(PID.TID 0000.0001) %MON ad_exf_adqsw_mean            =   3.7535849497053E-01
(PID.TID 0000.0001) %MON ad_exf_adqsw_sd              =   0.0000000000000E+00
(PID.TID 0000.0001) %MON ad_exf_adqsw_del2            =   1.0616741486786E+00
(PID.TID 0000.0001) // =======================================================
(PID.TID 0000.0001) // End AD_MONITOR EXF statistics for iwhen =  3
(PID.TID 0000.0001) // =======================================================
(PID.TID 0000.0001) // =======================================================
(PID.TID 0000.0001) // Begin AD_MONITOR dynamic field statistics
(PID.TID 0000.0001) // =======================================================
(PID.TID 0000.0001) %MON ad_time_tsnumber             =                     2
(PID.TID 0000.0001) %MON ad_time_secondsf             =   7.2000000000000E+03
(PID.TID 0000.0001) %MON ad_dynstat_adeta_max         =   9.1414898634041E-09
(PID.TID 0000.0001) %MON ad_dynstat_adeta_min         =   9.1414898634041E-09
(PID.TID 0000.0001) %MON ad_dynstat_adeta_mean        =   9.1414898634041E-09
(PID.TID 0000.0001) %MON ad_dynstat_adeta_sd          =   0.0000000000000E+00
(PID.TID 0000.0001) %MON ad_dynstat_adeta_del2        =   2.5856037890245E-08
(PID.TID 0000.0001) %MON ad_dynstat_aduvel_max        =   1.9699037637885E+03
(PID.TID 0000.0001) %MON ad_dynstat_aduvel_min        =  -2.9668225158868E+03
(PID.TID 0000.0001) %MON ad_dynstat_aduvel_mean       =  -1.3991445790707E-09
(PID.TID 0000.0001) %MON ad_dynstat_aduvel_sd         =   5.2770882484687E+02
(PID.TID 0000.0001) %MON ad_dynstat_aduvel_del2       =   4.6492213576966E+02
(PID.TID 0000.0001) %MON ad_dynstat_advvel_max        =   7.2456725304097E+03
(PID.TID 0000.0001) %MON ad_dynstat_advvel_min        =  -5.7675872937759E+03
(PID.TID 0000.0001) %MON ad_dynstat_advvel_mean       =  -4.5647853611274E-09
(PID.TID 0000.0001) %MON ad_dynstat_advvel_sd         =   1.3412391581708E+03
(PID.TID 0000.0001) %MON ad_dynstat_advvel_del2       =   1.1816587948394E+03
(PID.TID 0000.0001) %MON ad_dynstat_adwvel_max        =   2.7461181965518E+03
(PID.TID 0000.0001) %MON ad_dynstat_adwvel_min        =  -7.3058957726261E+02
(PID.TID 0000.0001) %MON ad_dynstat_adwvel_mean       =   4.6423243344607E+01
(PID.TID 0000.0001) %MON ad_dynstat_adwvel_sd         =   4.0991795488903E+02
(PID.TID 0000.0001) %MON ad_dynstat_adwvel_del2       =   3.5055363489471E+02
(PID.TID 0000.0001) %MON ad_dynstat_adtheta_max       =   6.4822573758825E+04
(PID.TID 0000.0001) %MON ad_dynstat_adtheta_min       =  -7.4457572070254E+03
(PID.TID 0000.0001) %MON ad_dynstat_adtheta_mean      =   1.6009940408117E+03
(PID.TID 0000.0001) %MON ad_dynstat_adtheta_sd        =   9.3326701753069E+03
(PID.TID 0000.0001) %MON ad_dynstat_adtheta_del2      =   8.3423781359065E+03
(PID.TID 0000.0001) %MON ad_dynstat_adsalt_max        =   4.4436503410518E+05
(PID.TID 0000.0001) %MON ad_dynstat_adsalt_min        =  -4.5751360382234E+05
(PID.TID 0000.0001) %MON ad_dynstat_adsalt_mean       =  -3.5375005837130E+01
(PID.TID 0000.0001) %MON ad_dynstat_adsalt_sd         =   9.2681182711929E+04
(PID.TID 0000.0001) %MON ad_dynstat_adsalt_del2       =   8.1654000315999E+04
(PID.TID 0000.0001) %MON ad_dynstat_adsst_max         =   6.4822573758825E+04
(PID.TID 0000.0001) %MON ad_dynstat_adsst_min         =   6.4822573758825E+04
(PID.TID 0000.0001) %MON ad_dynstat_adsst_mean        =   6.4822573758825E+04
(PID.TID 0000.0001) %MON ad_dynstat_adsst_sd          =   0.0000000000000E+00
(PID.TID 0000.0001) %MON ad_dynstat_adsst_del2        =   1.8334592591532E+05
(PID.TID 0000.0001) %MON ad_dynstat_adsss_max         =  -4.5751360382234E+05
(PID.TID 0000.0001) %MON ad_dynstat_adsss_min         =  -4.5751360382234E+05
(PID.TID 0000.0001) %MON ad_dynstat_adsss_mean        =  -4.5751360382234E+05
(PID.TID 0000.0001) %MON ad_dynstat_adsss_sd          =   0.0000000000000E+00
(PID.TID 0000.0001) %MON ad_dynstat_adsss_del2        =   1.2940438869915E+06
(PID.TID 0000.0001) // =======================================================
(PID.TID 0000.0001) // End AD_MONITOR dynamic field statistics
(PID.TID 0000.0001) // =======================================================
(PID.TID 0000.0001) // =======================================================
(PID.TID 0000.0001) // Begin AD_MONITOR SEAICE statistics
(PID.TID 0000.0001) // =======================================================
(PID.TID 0000.0001) %MON ad_seaice_tsnumber           =                     2
(PID.TID 0000.0001) %MON ad_seaice_time_sec           =   7.2000000000000E+03
(PID.TID 0000.0001) %MON ad_seaice_adarea_max         =   1.8647408822672E+07
(PID.TID 0000.0001) %MON ad_seaice_adarea_min         =   1.8647408822672E+07
(PID.TID 0000.0001) %MON ad_seaice_adarea_mean        =   1.8647408822672E+07
(PID.TID 0000.0001) %MON ad_seaice_adarea_sd          =   0.0000000000000E+00
(PID.TID 0000.0001) %MON ad_seaice_adarea_del2        =   5.2742941881943E+07
(PID.TID 0000.0001) %MON ad_seaice_adheff_max         =   1.5921271249237E+04
(PID.TID 0000.0001) %MON ad_seaice_adheff_min         =   1.5921271249237E+04
(PID.TID 0000.0001) %MON ad_seaice_adheff_mean        =   1.5921271249237E+04
(PID.TID 0000.0001) %MON ad_seaice_adheff_sd          =   0.0000000000000E+00
(PID.TID 0000.0001) %MON ad_seaice_adheff_del2        =   4.5032155461783E+04
(PID.TID 0000.0001) %MON ad_seaice_adhsnow_max        =   5.4770306320912E+04
(PID.TID 0000.0001) %MON ad_seaice_adhsnow_min        =   5.4770306320912E+04
(PID.TID 0000.0001) %MON ad_seaice_adhsnow_mean       =   5.4770306320912E+04
(PID.TID 0000.0001) %MON ad_seaice_adhsnow_sd         =   0.0000000000000E+00
(PID.TID 0000.0001) %MON ad_seaice_adhsnow_del2       =   1.5491382002873E+05
(PID.TID 0000.0001) %MON ad_seaice_adhsalt_max        =   0.0000000000000E+00
(PID.TID 0000.0001) %MON ad_seaice_adhsalt_min        =   0.0000000000000E+00
(PID.TID 0000.0001) %MON ad_seaice_adhsalt_mean       =   0.0000000000000E+00
(PID.TID 0000.0001) %MON ad_seaice_adhsalt_sd         =   0.0000000000000E+00
(PID.TID 0000.0001) %MON ad_seaice_adhsalt_del2       =   0.0000000000000E+00
(PID.TID 0000.0001) // =======================================================
(PID.TID 0000.0001) // End AD_MONITOR SEAICE statistics
(PID.TID 0000.0001) // =======================================================
 Calling cg2d from S/R CG2D_MAD
 cg2d: Sum(rhs),rhsMax =   1.00000000000000E+00  1.81452397345493E-12
(PID.TID 0000.0001) // =======================================================
(PID.TID 0000.0001) // Begin AD_MONITOR EXF statistics for iwhen =  3
(PID.TID 0000.0001) // =======================================================
(PID.TID 0000.0001) %MON ad_exf_tsnumber              =                     1
(PID.TID 0000.0001) %MON ad_exf_time_sec              =   3.6000000000000E+03
(PID.TID 0000.0001) %MON ad_exf_adfu_max              =   9.1701454877321E+03
(PID.TID 0000.0001) %MON ad_exf_adfu_min              =   9.1701454877321E+03
(PID.TID 0000.0001) %MON ad_exf_adfu_mean             =   9.1701454877321E+03
(PID.TID 0000.0001) %MON ad_exf_adfu_sd               =   0.0000000000000E+00
(PID.TID 0000.0001) %MON ad_exf_adfu_del2             =   2.0305344060995E+04
(PID.TID 0000.0001) %MON ad_exf_adfv_max              =   7.9169528639865E+03
(PID.TID 0000.0001) %MON ad_exf_adfv_min              =   7.9169528639865E+03
(PID.TID 0000.0001) %MON ad_exf_adfv_mean             =   7.9169528639865E+03
(PID.TID 0000.0001) %MON ad_exf_adfv_sd               =   0.0000000000000E+00
(PID.TID 0000.0001) %MON ad_exf_adfv_del2             =   1.7007409771765E+04
(PID.TID 0000.0001) %MON ad_exf_adqnet_max            =  -2.3276572905459E+00
(PID.TID 0000.0001) %MON ad_exf_adqnet_min            =  -2.3276572905459E+00
(PID.TID 0000.0001) %MON ad_exf_adqnet_mean           =  -2.3276572905459E+00
(PID.TID 0000.0001) %MON ad_exf_adqnet_sd             =   0.0000000000000E+00
(PID.TID 0000.0001) %MON ad_exf_adqnet_del2           =   6.5836090176932E+00
(PID.TID 0000.0001) %MON ad_exf_adempmr_max           =  -7.0968731542492E+06
(PID.TID 0000.0001) %MON ad_exf_adempmr_min           =  -7.0968731542492E+06
(PID.TID 0000.0001) %MON ad_exf_adempmr_mean          =  -7.0968731542492E+06
(PID.TID 0000.0001) %MON ad_exf_adempmr_sd            =   0.0000000000000E+00
(PID.TID 0000.0001) %MON ad_exf_adempmr_del2          =   2.0072988530361E+07
(PID.TID 0000.0001) %MON ad_exf_adqsw_max             =   4.8130867388460E-01
(PID.TID 0000.0001) %MON ad_exf_adqsw_min             =   4.8130867388460E-01
(PID.TID 0000.0001) %MON ad_exf_adqsw_mean            =   4.8130867388460E-01
(PID.TID 0000.0001) %MON ad_exf_adqsw_sd              =   0.0000000000000E+00
(PID.TID 0000.0001) %MON ad_exf_adqsw_del2            =   1.3613465085908E+00
(PID.TID 0000.0001) // =======================================================
(PID.TID 0000.0001) // End AD_MONITOR EXF statistics for iwhen =  3
(PID.TID 0000.0001) // =======================================================
(PID.TID 0000.0001) // =======================================================
(PID.TID 0000.0001) // Begin AD_MONITOR dynamic field statistics
(PID.TID 0000.0001) // =======================================================
(PID.TID 0000.0001) %MON ad_time_tsnumber             =                     1
(PID.TID 0000.0001) %MON ad_time_secondsf             =   3.6000000000000E+03
(PID.TID 0000.0001) %MON ad_dynstat_adeta_max         =   9.1414898634041E-09
(PID.TID 0000.0001) %MON ad_dynstat_adeta_min         =   9.1414898634041E-09
(PID.TID 0000.0001) %MON ad_dynstat_adeta_mean        =   9.1414898634041E-09
(PID.TID 0000.0001) %MON ad_dynstat_adeta_sd          =   0.0000000000000E+00
(PID.TID 0000.0001) %MON ad_dynstat_adeta_del2        =   2.5856037890245E-08
(PID.TID 0000.0001) %MON ad_dynstat_aduvel_max        =   9.1249425533599E+02
(PID.TID 0000.0001) %MON ad_dynstat_aduvel_min        =  -7.2984075285646E+02
(PID.TID 0000.0001) %MON ad_dynstat_aduvel_mean       =   2.6542431681539E-09
(PID.TID 0000.0001) %MON ad_dynstat_aduvel_sd         =   1.9317466109297E+02
(PID.TID 0000.0001) %MON ad_dynstat_aduvel_del2       =   1.7019077904938E+02
(PID.TID 0000.0001) %MON ad_dynstat_advvel_max        =   7.7244159360622E+03
(PID.TID 0000.0001) %MON ad_dynstat_advvel_min        =  -5.4608701978767E+03
(PID.TID 0000.0001) %MON ad_dynstat_advvel_mean       =  -1.7747030014005E-09
(PID.TID 0000.0001) %MON ad_dynstat_advvel_sd         =   1.3732715874641E+03
(PID.TID 0000.0001) %MON ad_dynstat_advvel_del2       =   1.2098800121845E+03
(PID.TID 0000.0001) %MON ad_dynstat_adwvel_max        =   1.6519885483318E+03
(PID.TID 0000.0001) %MON ad_dynstat_adwvel_min        =  -2.3549902262280E+02
(PID.TID 0000.0001) %MON ad_dynstat_adwvel_mean       =   3.3017762545008E+01
(PID.TID 0000.0001) %MON ad_dynstat_adwvel_sd         =   2.4043201907716E+02
(PID.TID 0000.0001) %MON ad_dynstat_adwvel_del2       =   2.0622412752420E+02
(PID.TID 0000.0001) %MON ad_dynstat_adtheta_max       =   8.1814106812109E+04
(PID.TID 0000.0001) %MON ad_dynstat_adtheta_min       =  -7.5807797219611E+03
(PID.TID 0000.0001) %MON ad_dynstat_adtheta_mean      =   2.3065479700586E+03
(PID.TID 0000.0001) %MON ad_dynstat_adtheta_sd        =   1.2097896873004E+04
(PID.TID 0000.0001) %MON ad_dynstat_adtheta_del2      =   1.0850480866718E+04
(PID.TID 0000.0001) %MON ad_dynstat_adsalt_max        =   4.9303240172942E+05
(PID.TID 0000.0001) %MON ad_dynstat_adsalt_min        =  -4.3940986877031E+05
(PID.TID 0000.0001) %MON ad_dynstat_adsalt_mean       =  -4.0975144482161E+01
(PID.TID 0000.0001) %MON ad_dynstat_adsalt_sd         =   9.5507683913022E+04
(PID.TID 0000.0001) %MON ad_dynstat_adsalt_del2       =   8.4144206772842E+04
(PID.TID 0000.0001) %MON ad_dynstat_adsst_max         =   8.1814106812109E+04
(PID.TID 0000.0001) %MON ad_dynstat_adsst_min         =   8.1814106812109E+04
(PID.TID 0000.0001) %MON ad_dynstat_adsst_mean        =   8.1814106812109E+04
(PID.TID 0000.0001) %MON ad_dynstat_adsst_sd          =   0.0000000000000E+00
(PID.TID 0000.0001) %MON ad_dynstat_adsst_del2        =   2.3140523889425E+05
(PID.TID 0000.0001) %MON ad_dynstat_adsss_max         =  -4.3940986877031E+05
(PID.TID 0000.0001) %MON ad_dynstat_adsss_min         =  -4.3940986877031E+05
(PID.TID 0000.0001) %MON ad_dynstat_adsss_mean        =  -4.3940986877031E+05
(PID.TID 0000.0001) %MON ad_dynstat_adsss_sd          =   5.8207660913467E-11
(PID.TID 0000.0001) %MON ad_dynstat_adsss_del2        =   1.2428387917111E+06
(PID.TID 0000.0001) // =======================================================
(PID.TID 0000.0001) // End AD_MONITOR dynamic field statistics
(PID.TID 0000.0001) // =======================================================
(PID.TID 0000.0001) // =======================================================
(PID.TID 0000.0001) // Begin AD_MONITOR SEAICE statistics
(PID.TID 0000.0001) // =======================================================
(PID.TID 0000.0001) %MON ad_seaice_tsnumber           =                     1
(PID.TID 0000.0001) %MON ad_seaice_time_sec           =   3.6000000000000E+03
(PID.TID 0000.0001) %MON ad_seaice_adarea_max         =   2.0882381445312E+07
(PID.TID 0000.0001) %MON ad_seaice_adarea_min         =   2.0882381445312E+07
(PID.TID 0000.0001) %MON ad_seaice_adarea_mean        =   2.0882381445312E+07
(PID.TID 0000.0001) %MON ad_seaice_adarea_sd          =   0.0000000000000E+00
(PID.TID 0000.0001) %MON ad_seaice_adarea_del2        =   5.9064370578781E+07
(PID.TID 0000.0001) %MON ad_seaice_adheff_max         =   1.6007103883143E+04
(PID.TID 0000.0001) %MON ad_seaice_adheff_min         =   1.6007103883143E+04
(PID.TID 0000.0001) %MON ad_seaice_adheff_mean        =   1.6007103883143E+04
(PID.TID 0000.0001) %MON ad_seaice_adheff_sd          =   0.0000000000000E+00
(PID.TID 0000.0001) %MON ad_seaice_adheff_del2        =   4.5274926811712E+04
(PID.TID 0000.0001) %MON ad_seaice_adhsnow_max        =   5.5583661715252E+04
(PID.TID 0000.0001) %MON ad_seaice_adhsnow_min        =   5.5583661715252E+04
(PID.TID 0000.0001) %MON ad_seaice_adhsnow_mean       =   5.5583661715252E+04
(PID.TID 0000.0001) %MON ad_seaice_adhsnow_sd         =   7.2759576141834E-12
(PID.TID 0000.0001) %MON ad_seaice_adhsnow_del2       =   1.5721433648813E+05
(PID.TID 0000.0001) %MON ad_seaice_adhsalt_max        =   0.0000000000000E+00
(PID.TID 0000.0001) %MON ad_seaice_adhsalt_min        =   0.0000000000000E+00
(PID.TID 0000.0001) %MON ad_seaice_adhsalt_mean       =   0.0000000000000E+00
(PID.TID 0000.0001) %MON ad_seaice_adhsalt_sd         =   0.0000000000000E+00
(PID.TID 0000.0001) %MON ad_seaice_adhsalt_del2       =   0.0000000000000E+00
(PID.TID 0000.0001) // =======================================================
(PID.TID 0000.0001) // End AD_MONITOR SEAICE statistics
(PID.TID 0000.0001) // =======================================================
 Calling cg2d from S/R CG2D_MAD
 cg2d: Sum(rhs),rhsMax =   1.00000000000000E+00  3.62904794690986E-12
(PID.TID 0000.0001) // =======================================================
(PID.TID 0000.0001) // Begin AD_MONITOR EXF statistics for iwhen =  3
(PID.TID 0000.0001) // =======================================================
(PID.TID 0000.0001) %MON ad_exf_tsnumber              =                     0
(PID.TID 0000.0001) %MON ad_exf_time_sec              =   0.0000000000000E+00
(PID.TID 0000.0001) %MON ad_exf_adfu_max              =   6.6759683183491E+03
(PID.TID 0000.0001) %MON ad_exf_adfu_min              =   6.6759683183491E+03
(PID.TID 0000.0001) %MON ad_exf_adfu_mean             =   6.6759683183491E+03
(PID.TID 0000.0001) %MON ad_exf_adfu_sd               =   0.0000000000000E+00
(PID.TID 0000.0001) %MON ad_exf_adfu_del2             =   1.5069546482928E+04
(PID.TID 0000.0001) %MON ad_exf_adfv_max              =   5.7787856408514E+03
(PID.TID 0000.0001) %MON ad_exf_adfv_min              =   5.7787856408514E+03
(PID.TID 0000.0001) %MON ad_exf_adfv_mean             =   5.7787856408514E+03
(PID.TID 0000.0001) %MON ad_exf_adfv_sd               =   0.0000000000000E+00
(PID.TID 0000.0001) %MON ad_exf_adfv_del2             =   1.2670440166517E+04
(PID.TID 0000.0001) %MON ad_exf_adqnet_max            =  -3.0997196994214E+00
(PID.TID 0000.0001) %MON ad_exf_adqnet_min            =  -3.0997196994214E+00
(PID.TID 0000.0001) %MON ad_exf_adqnet_mean           =  -3.0997196994214E+00
(PID.TID 0000.0001) %MON ad_exf_adqnet_sd             =   0.0000000000000E+00
(PID.TID 0000.0001) %MON ad_exf_adqnet_del2           =   8.7673312769536E+00
(PID.TID 0000.0001) %MON ad_exf_adempmr_max           =  -5.0927381376908E+06
(PID.TID 0000.0001) %MON ad_exf_adempmr_min           =  -5.0927381376908E+06
(PID.TID 0000.0001) %MON ad_exf_adempmr_mean          =  -5.0927381376908E+06
(PID.TID 0000.0001) %MON ad_exf_adempmr_sd            =   0.0000000000000E+00
(PID.TID 0000.0001) %MON ad_exf_adempmr_del2          =   1.4404438687874E+07
(PID.TID 0000.0001) %MON ad_exf_adqsw_max             =   5.8479747801485E-01
(PID.TID 0000.0001) %MON ad_exf_adqsw_min             =   5.8479747801485E-01
(PID.TID 0000.0001) %MON ad_exf_adqsw_mean            =   5.8479747801485E-01
(PID.TID 0000.0001) %MON ad_exf_adqsw_sd              =   0.0000000000000E+00
(PID.TID 0000.0001) %MON ad_exf_adqsw_del2            =   1.6540570493004E+00
(PID.TID 0000.0001) // =======================================================
(PID.TID 0000.0001) // End AD_MONITOR EXF statistics for iwhen =  3
(PID.TID 0000.0001) // =======================================================
(PID.TID 0000.0001) // =======================================================
(PID.TID 0000.0001) // Begin AD_MONITOR dynamic field statistics
(PID.TID 0000.0001) // =======================================================
(PID.TID 0000.0001) %MON ad_time_tsnumber             =                     0
(PID.TID 0000.0001) %MON ad_time_secondsf             =   0.0000000000000E+00
(PID.TID 0000.0001) %MON ad_dynstat_adeta_max         =   1.8282979726808E-08
(PID.TID 0000.0001) %MON ad_dynstat_adeta_min         =   1.8282979726808E-08
(PID.TID 0000.0001) %MON ad_dynstat_adeta_mean        =   1.8282979726808E-08
(PID.TID 0000.0001) %MON ad_dynstat_adeta_sd          =   0.0000000000000E+00
(PID.TID 0000.0001) %MON ad_dynstat_adeta_del2        =   5.1712075780489E-08
(PID.TID 0000.0001) %MON ad_dynstat_aduvel_max        =   8.3158863772085E+02
(PID.TID 0000.0001) %MON ad_dynstat_aduvel_min        =  -1.7468234908532E+03
(PID.TID 0000.0001) %MON ad_dynstat_aduvel_mean       =   2.8602672249517E-09
(PID.TID 0000.0001) %MON ad_dynstat_aduvel_sd         =   2.8823011987165E+02
(PID.TID 0000.0001) %MON ad_dynstat_aduvel_del2       =   2.5393655859888E+02
(PID.TID 0000.0001) %MON ad_dynstat_advvel_max        =   6.8779278351462E+03
(PID.TID 0000.0001) %MON ad_dynstat_advvel_min        =  -4.0723947516087E+03
(PID.TID 0000.0001) %MON ad_dynstat_advvel_mean       =  -6.2130303861885E-10
(PID.TID 0000.0001) %MON ad_dynstat_advvel_sd         =   1.1709135594561E+03
(PID.TID 0000.0001) %MON ad_dynstat_advvel_del2       =   1.0315985013552E+03
(PID.TID 0000.0001) %MON ad_dynstat_adwvel_max        =   0.0000000000000E+00
(PID.TID 0000.0001) %MON ad_dynstat_adwvel_min        =   0.0000000000000E+00
(PID.TID 0000.0001) %MON ad_dynstat_adwvel_mean       =   0.0000000000000E+00
(PID.TID 0000.0001) %MON ad_dynstat_adwvel_sd         =   0.0000000000000E+00
(PID.TID 0000.0001) %MON ad_dynstat_adwvel_del2       =   0.0000000000000E+00
(PID.TID 0000.0001) %MON ad_dynstat_adtheta_max       =   4.0001011798603E+04
(PID.TID 0000.0001) %MON ad_dynstat_adtheta_min       =  -1.8912763605492E+06
(PID.TID 0000.0001) %MON ad_dynstat_adtheta_mean      =  -3.5686391501700E+04
(PID.TID 0000.0001) %MON ad_dynstat_adtheta_sd        =   2.6165250288587E+05
(PID.TID 0000.0001) %MON ad_dynstat_adtheta_del2      =   2.3265531854935E+05
(PID.TID 0000.0001) %MON ad_dynstat_adsalt_max        =   5.1370175872478E+05
(PID.TID 0000.0001) %MON ad_dynstat_adsalt_min        =  -3.8548219927176E+05
(PID.TID 0000.0001) %MON ad_dynstat_adsalt_mean       =  -4.4887995902269E+01
(PID.TID 0000.0001) %MON ad_dynstat_adsalt_sd         =   9.2808366188958E+04
(PID.TID 0000.0001) %MON ad_dynstat_adsalt_del2       =   8.1766055144653E+04
(PID.TID 0000.0001) %MON ad_dynstat_adsst_max         =  -1.8912763605492E+06
(PID.TID 0000.0001) %MON ad_dynstat_adsst_min         =  -1.8912763605492E+06
(PID.TID 0000.0001) %MON ad_dynstat_adsst_mean        =  -1.8912763605492E+06
(PID.TID 0000.0001) %MON ad_dynstat_adsst_sd          =   0.0000000000000E+00
(PID.TID 0000.0001) %MON ad_dynstat_adsst_del2        =   5.3493373585687E+06
(PID.TID 0000.0001) %MON ad_dynstat_adsss_max         =  -3.8548219927176E+05
(PID.TID 0000.0001) %MON ad_dynstat_adsss_min         =  -3.8548219927176E+05
(PID.TID 0000.0001) %MON ad_dynstat_adsss_mean        =  -3.8548219927176E+05
(PID.TID 0000.0001) %MON ad_dynstat_adsss_sd          =   0.0000000000000E+00
(PID.TID 0000.0001) %MON ad_dynstat_adsss_del2        =   1.0903083085271E+06
(PID.TID 0000.0001) // =======================================================
(PID.TID 0000.0001) // End AD_MONITOR dynamic field statistics
(PID.TID 0000.0001) // =======================================================
(PID.TID 0000.0001) // =======================================================
(PID.TID 0000.0001) // Begin AD_MONITOR SEAICE statistics
(PID.TID 0000.0001) // =======================================================
(PID.TID 0000.0001) %MON ad_seaice_tsnumber           =                     0
(PID.TID 0000.0001) %MON ad_seaice_time_sec           =   0.0000000000000E+00
(PID.TID 0000.0001) %MON ad_seaice_adarea_max         =  -7.4951109530366E+01
(PID.TID 0000.0001) %MON ad_seaice_adarea_min         =  -7.4951109530366E+01
(PID.TID 0000.0001) %MON ad_seaice_adarea_mean        =  -7.4951109530366E+01
(PID.TID 0000.0001) %MON ad_seaice_adarea_sd          =   0.0000000000000E+00
(PID.TID 0000.0001) %MON ad_seaice_adarea_del2        =   1.5900652279777E+02
(PID.TID 0000.0001) %MON ad_seaice_adheff_max         =   1.0256285832935E+06
(PID.TID 0000.0001) %MON ad_seaice_adheff_min         =   1.0256285832935E+06
(PID.TID 0000.0001) %MON ad_seaice_adheff_mean        =   1.0256285832935E+06
(PID.TID 0000.0001) %MON ad_seaice_adheff_sd          =   1.1641532182693E-10
(PID.TID 0000.0001) %MON ad_seaice_adheff_del2        =   2.9009157049022E+06
(PID.TID 0000.0001) %MON ad_seaice_adhsnow_max        =   3.7193124449104E+05
(PID.TID 0000.0001) %MON ad_seaice_adhsnow_min        =   3.7193124449104E+05
(PID.TID 0000.0001) %MON ad_seaice_adhsnow_mean       =   3.7193124449104E+05
(PID.TID 0000.0001) %MON ad_seaice_adhsnow_sd         =   0.0000000000000E+00
(PID.TID 0000.0001) %MON ad_seaice_adhsnow_del2       =   1.0519804204591E+06
(PID.TID 0000.0001) %MON ad_seaice_adhsalt_max        =  -4.8767731641790E+01
(PID.TID 0000.0001) %MON ad_seaice_adhsalt_min        =  -4.8767731641790E+01
(PID.TID 0000.0001) %MON ad_seaice_adhsalt_mean       =  -4.8767731641790E+01
(PID.TID 0000.0001) %MON ad_seaice_adhsalt_sd         =   0.0000000000000E+00
(PID.TID 0000.0001) %MON ad_seaice_adhsalt_del2       =   1.3793597498798E+02
(PID.TID 0000.0001) // =======================================================
(PID.TID 0000.0001) // End AD_MONITOR SEAICE statistics
(PID.TID 0000.0001) // =======================================================
 ph-pack: packing ecco_cost
 ph-pack: packing ecco_ctrl
(PID.TID 0000.0001) // =======================================================
(PID.TID 0000.0001) // Gradient-check starts (grdchk_main)
(PID.TID 0000.0001) // =======================================================
(PID.TID 0000.0001) grdchk reference fc: fcref       =  6.91935719996437E+05
grad-res -------------------------------
 grad-res  proc    #    i    j    k   bi   bj iobc       fc ref            fc + eps           fc - eps
 grad-res  proc    #    i    j    k   bi   bj iobc      adj grad            fd grad          1 - fd/adj
 grad-res exact position met: 
 grad-res     0    1    1    1    1    1    1
(PID.TID 0000.0001) ====== Starts gradient-check number   1 (=ichknum) =======
 ph-test icomp, ncvarcomp, ichknum            1          23           1
 ph-grd _loc: bi, bj, icomptest, ichknum            1           1           0           1
 ph-grd -->hit<--            1           1           1           1
(PID.TID 0000.0001) grdchk pos: i,j,k=    1    1    1 ; bi,bj=   1   1 ; iobc=  1 ; rec=   1
(PID.TID 0000.0001) Start initial hydrostatic pressure computation
(PID.TID 0000.0001) Pressure is predetermined for buoyancyRelation OCEANIC
(PID.TID 0000.0001) 
(PID.TID 0000.0001) // =======================================================
(PID.TID 0000.0001) // Model current state
(PID.TID 0000.0001) // =======================================================
(PID.TID 0000.0001) 
 ph-ice B            0  -1.9299998999999999        3.1916162613504261E-003   1.5958081306752130E-003
 ph-ice C            0   7978.8190195144125     
(PID.TID 0000.0001) SOLVE_FOR_PRESSURE: putPmEinXvector =    F
 cg2d: Sum(rhs),rhsMax =   1.00000000000000E+00  5.58643959870524E-06
 ph-ice B            1  -1.9277400965224865        8.8874376820890239E-003   3.0949823055866376E-003
 ph-ice C            1   30196.796058708107     
 cg2d: Sum(rhs),rhsMax =   1.00000000000000E+00  1.08502371660469E-05
 ph-ice B            2  -1.9227425123780040        1.4502437205137971E-002   4.3835415449538897E-003
 ph-ice C            2   66451.881985832835     
 cg2d: Sum(rhs),rhsMax =   1.00000000000000E+00  1.54111927526152E-05
 ph-ice B            3  -1.9169494645228222        2.0024306570630201E-002   5.4303706226027232E-003
 ph-ice C            3   116511.25787418922     
 cg2d: Sum(rhs),rhsMax =   1.00000000000000E+00  1.91657250750455E-05
 ph-ice B            4  -1.9115569894150006        2.5443217045341478E-002   6.2544571619508812E-003
 ph-ice C            4   180117.53364654924     
 cg2d: Sum(rhs),rhsMax =   1.00000000000000E+00  2.21770819479650E-05
 ph-ice B            5  -1.9072005649579324        3.0754464631279763E-002   6.9007142976045977E-003
 ph-ice C            5   257001.55955736223     
 cg2d: Sum(rhs),rhsMax =   1.00000000000000E+00  2.45948371612815E-05
 ph-ice B            6  -1.9040036972569174        3.5957965457356307E-002   7.4184445843363872E-003
 ph-ice C            6   346893.97618917993     
 cg2d: Sum(rhs),rhsMax =   1.00000000000000E+00  2.65831811127501E-05
 ph-ice B            7  -1.9016154635916180        4.1055154892884409E-002   7.8418767825403843E-003
 ph-ice C            7   449529.01244816155     
 cg2d: Sum(rhs),rhsMax =   1.00000000000000E+00  2.82561135499134E-05
 ph-ice B            8  -1.8993863668146125        4.6044931284888423E-002   8.1783305259224750E-003
 ph-ice C            8   564638.14318452880     
 cg2d: Sum(rhs),rhsMax =   1.00000000000000E+00  2.96380354423594E-05
 ph-ice B            9  -1.8965950931336466        5.0920369489201041E-002   8.4058371452649192E-003
 ph-ice C            9   691935.53086898464     
 cg2d: Sum(rhs),rhsMax =   1.00000000000000E+00  3.06558277950909E-05
(PID.TID 0000.0001) Did not write pickup because writePickupAtEnd = FALSE
 --> f_ice     = 0.691935530868985D+06
(PID.TID 0000.0001)  --> f_gencost = 0.205294507177483D-01 1
(PID.TID 0000.0001)  --> f_gencost = 0.270356419758379D-02 2
(PID.TID 0000.0001)  --> f_gentim2d = 0.000000000000000D+00 1
(PID.TID 0000.0001)  --> f_gentim2d = 0.000000000000000D+00 2
(PID.TID 0000.0001)  --> f_gentim2d = 0.000000000000000D+00 3
(PID.TID 0000.0001)  --> f_gentim2d = 0.000000000000000D+00 4
(PID.TID 0000.0001)  --> f_gentim2d = 0.000000000000000D+00 5
(PID.TID 0000.0001)  --> f_gentim2d = 0.000000000000000D+00 6
(PID.TID 0000.0001)  --> f_gentim2d = 0.000000000000000D+00 7
(PID.TID 0000.0001)  --> f_gentim2d = 0.000000000000000D+00 8
(PID.TID 0000.0001)  --> f_gentim2d = 0.000000000000000D+00 9
(PID.TID 0000.0001)  --> f_genarr3d = 0.100000000000000D-13 1
(PID.TID 0000.0001)  --> f_genarr3d = 0.000000000000000D+00 2
(PID.TID 0000.0001)  --> fc               = 0.691935530868985D+06
(PID.TID 0000.0001) Not writing cost function info to costfunction0000
(PID.TID 0000.0001)   early fc =  0.000000000000000D+00
(PID.TID 0000.0001)   local fc =  0.691935530868985D+06
(PID.TID 0000.0001)  global fc =  0.691935530868985D+06
(PID.TID 0000.0001) grdchk perturb(+)fc: fcpertplus  =  6.91935530868985E+05
(PID.TID 0000.0001) Start initial hydrostatic pressure computation
(PID.TID 0000.0001) Pressure is predetermined for buoyancyRelation OCEANIC
(PID.TID 0000.0001) 
(PID.TID 0000.0001) // =======================================================
(PID.TID 0000.0001) // Model current state
(PID.TID 0000.0001) // =======================================================
(PID.TID 0000.0001) 
 ph-ice B            0  -1.9300001000000000        3.1916331602546187E-003   1.5958165801273094E-003
 ph-ice C            0   7978.8612656013920     
(PID.TID 0000.0001) SOLVE_FOR_PRESSURE: putPmEinXvector =    F
 cg2d: Sum(rhs),rhsMax =   1.00000000000000E+00  5.58646773255263E-06
 ph-ice B            1  -1.9277401420478657        8.8874543836619229E-003   3.0949926719770118E-003
 ph-ice C            1   30196.880057567534     
 cg2d: Sum(rhs),rhsMax =   1.00000000000000E+00  1.08502716780581E-05
 ph-ice B            2  -1.9227424666157900        1.4502453612034501E-002   4.3835499959711715E-003
 ph-ice C            2   66452.007000794256     
 cg2d: Sum(rhs),rhsMax =   1.00000000000000E+00  1.54112208825351E-05
 ph-ice B            3  -1.9169493787879039        2.0024322508410949E-002   5.4303755050872215E-003
 ph-ice C            3   116511.42273249576     
 cg2d: Sum(rhs),rhsMax =   1.00000000000000E+00  1.91657413184728E-05
 ph-ice B            4  -1.9115569059622213        2.5443232416508570E-002   6.2544585920238155E-003
 ph-ice C            4   180117.73693170611     
 cg2d: Sum(rhs),rhsMax =   1.00000000000000E+00  2.21770866916650E-05
 ph-ice B            5  -1.9072005093389375        3.0754479477537174E-002   6.9007134439477650E-003
 ph-ice C            5   257001.79995713168     
 cg2d: Sum(rhs),rhsMax =   1.00000000000000E+00  2.45948342967500E-05
 ph-ice B            6  -1.9040036707625219        3.5957979893919571E-002   7.4184426561266894E-003
 ph-ice C            6   346894.25267935498     
 cg2d: Sum(rhs),rhsMax =   1.00000000000000E+00  2.65831746663136E-05
 ph-ice B            7  -1.9016154493203519        4.1055168979513668E-002   7.8418742859090902E-003
 ph-ice C            7   449529.32415393152     
 cg2d: Sum(rhs),rhsMax =   1.00000000000000E+00  2.82561052068971E-05
 ph-ice B            8  -1.8993863423375432        4.6044944926762130E-002   8.1783270500890501E-003
 ph-ice C            8   564638.48899403575     
 cg2d: Sum(rhs),rhsMax =   1.00000000000000E+00  2.96380238350802E-05
 ph-ice B            9  -1.8965950468122255        5.0920382467809500E-002   8.4058318129199422E-003
 ph-ice C            9   691935.90912411141     
 cg2d: Sum(rhs),rhsMax =   1.00000000000000E+00  3.06558100025197E-05
(PID.TID 0000.0001) Did not write pickup because writePickupAtEnd = FALSE
 --> f_ice     = 0.691935909124111D+06
(PID.TID 0000.0001)  --> f_gencost = 0.205295481038048D-01 1
(PID.TID 0000.0001)  --> f_gencost = 0.270357501757121D-02 2
(PID.TID 0000.0001)  --> f_gentim2d = 0.000000000000000D+00 1
(PID.TID 0000.0001)  --> f_gentim2d = 0.000000000000000D+00 2
(PID.TID 0000.0001)  --> f_gentim2d = 0.000000000000000D+00 3
(PID.TID 0000.0001)  --> f_gentim2d = 0.000000000000000D+00 4
(PID.TID 0000.0001)  --> f_gentim2d = 0.000000000000000D+00 5
(PID.TID 0000.0001)  --> f_gentim2d = 0.000000000000000D+00 6
(PID.TID 0000.0001)  --> f_gentim2d = 0.000000000000000D+00 7
(PID.TID 0000.0001)  --> f_gentim2d = 0.000000000000000D+00 8
(PID.TID 0000.0001)  --> f_gentim2d = 0.000000000000000D+00 9
(PID.TID 0000.0001)  --> f_genarr3d = 0.100000000000000D-13 1
(PID.TID 0000.0001)  --> f_genarr3d = 0.000000000000000D+00 2
(PID.TID 0000.0001)  --> fc               = 0.691935909124111D+06
(PID.TID 0000.0001) Not writing cost function info to costfunction0000
(PID.TID 0000.0001)   early fc =  0.000000000000000D+00
(PID.TID 0000.0001)   local fc =  0.691935909124111D+06
(PID.TID 0000.0001)  global fc =  0.691935909124111D+06
(PID.TID 0000.0001) grdchk perturb(-)fc: fcpertminus =  6.91935909124111E+05
grad-res -------------------------------
 grad-res     0    1    1    1    1    1    1    1   6.91935719996E+05  6.91935530869E+05  6.91935909124E+05
 grad-res     0    1    1    1    0    1    1    1  -1.89127636055E+06 -1.89127563382E+06  3.84250678720E-07
(PID.TID 0000.0001)  ADM  ref_cost_function      =  6.91935719996437E+05
(PID.TID 0000.0001)  ADM  adjoint_gradient       = -1.89127636054921E+06
(PID.TID 0000.0001)  ADM  finite-diff_grad       = -1.89127563382499E+06
(PID.TID 0000.0001) ====== End of gradient-check number   1 (ierr=  0) =======
(PID.TID 0000.0001) ====== Starts gradient-check number   2 (=ichknum) =======
 ph-test icomp, ncvarcomp, ichknum            2          23           2
 ph-grd _loc: bi, bj, icomptest, ichknum            1           1           1           2
 ph-grd _loc: bi, bj, icomptest, ichknum            1           1           1           2
 ph-grd -->hit<--            1           1           2           1
(PID.TID 0000.0001) grdchk pos: i,j,k=    1    1    2 ; bi,bj=   1   1 ; iobc=  1 ; rec=   1
(PID.TID 0000.0001) Start initial hydrostatic pressure computation
(PID.TID 0000.0001) Pressure is predetermined for buoyancyRelation OCEANIC
(PID.TID 0000.0001) 
(PID.TID 0000.0001) // =======================================================
(PID.TID 0000.0001) // Model current state
(PID.TID 0000.0001) // =======================================================
(PID.TID 0000.0001) 
 ph-ice B            0  -1.9299999999999999        3.1916247108025107E-003   1.5958123554012554E-003
 ph-ice C            0   7978.8401425578732     
(PID.TID 0000.0001) SOLVE_FOR_PRESSURE: putPmEinXvector =    F
 cg2d: Sum(rhs),rhsMax =   1.00000000000000E+00  5.58645366562891E-06
 ph-ice B            1  -1.9277400910425069        8.8874460238678159E-003   3.0949862991088068E-003
 ph-ice C            1   30196.838035619276     
 cg2d: Sum(rhs),rhsMax =   1.00000000000000E+00  1.08502504608395E-05
 ph-ice B            2  -1.9227424696307702        1.4502445369578546E-002   4.3835437484217423E-003
 ph-ice C            2   66451.944373278486     
 cg2d: Sum(rhs),rhsMax =   1.00000000000000E+00  1.54112000848616E-05
 ph-ice B            3  -1.9169494215006786        2.0024314500552958E-002   5.4303710355787637E-003
 ph-ice C            3   116511.34008589109     
 cg2d: Sum(rhs),rhsMax =   1.00000000000000E+00  1.91657264433263E-05
 ph-ice B            4  -1.9115569651386268        2.5443224758885271E-002   6.2544565727269321E-003
 ph-ice C            4   180117.63514157495     
 cg2d: Sum(rhs),rhsMax =   1.00000000000000E+00  2.21770799770893E-05
 ph-ice B            5  -1.9072005614148706        3.0754472200891246E-002   6.9007135680894897E-003
 ph-ice C            5   257001.67997589102     
 cg2d: Sum(rhs),rhsMax =   1.00000000000000E+00  2.45948347211920E-05
 ph-ice B            6  -1.9040037036785291        3.5957972937148468E-002   7.4184441252255918E-003
 ph-ice C            6   346894.11530666967     
 cg2d: Sum(rhs),rhsMax =   1.00000000000000E+00  2.65831795709844E-05
 ph-ice B            7  -1.9016154672675809        4.1055162269150812E-002   7.8418764809088781E-003
 ph-ice C            7   449529.17000580509     
 cg2d: Sum(rhs),rhsMax =   1.00000000000000E+00  2.82561125304554E-05
 ph-ice B            8  -1.8993863615380213        4.6044938489073914E-002   8.1783300175845043E-003
 ph-ice C            8   564638.31875213585     
 cg2d: Sum(rhs),rhsMax =   1.00000000000000E+00  2.96380337325971E-05
 ph-ice B            9  -1.8965950875566362        5.0920376513376740E-002   8.4058364198240365E-003
 ph-ice C            9   691935.72399654309     
 cg2d: Sum(rhs),rhsMax =   1.00000000000000E+00  3.06558253604928E-05
(PID.TID 0000.0001) Did not write pickup because writePickupAtEnd = FALSE
 --> f_ice     = 0.691935723996543D+06
(PID.TID 0000.0001)  --> f_gencost = 0.205294631696528D-01 1
(PID.TID 0000.0001)  --> f_gencost = 0.270356582168071D-02 2
(PID.TID 0000.0001)  --> f_gentim2d = 0.000000000000000D+00 1
(PID.TID 0000.0001)  --> f_gentim2d = 0.000000000000000D+00 2
(PID.TID 0000.0001)  --> f_gentim2d = 0.000000000000000D+00 3
(PID.TID 0000.0001)  --> f_gentim2d = 0.000000000000000D+00 4
(PID.TID 0000.0001)  --> f_gentim2d = 0.000000000000000D+00 5
(PID.TID 0000.0001)  --> f_gentim2d = 0.000000000000000D+00 6
(PID.TID 0000.0001)  --> f_gentim2d = 0.000000000000000D+00 7
(PID.TID 0000.0001)  --> f_gentim2d = 0.000000000000000D+00 8
(PID.TID 0000.0001)  --> f_gentim2d = 0.000000000000000D+00 9
(PID.TID 0000.0001)  --> f_genarr3d = 0.100000000000000D-13 1
(PID.TID 0000.0001)  --> f_genarr3d = 0.000000000000000D+00 2
(PID.TID 0000.0001)  --> fc               = 0.691935723996543D+06
(PID.TID 0000.0001) Not writing cost function info to costfunction0000
(PID.TID 0000.0001)   early fc =  0.000000000000000D+00
(PID.TID 0000.0001)   local fc =  0.691935723996543D+06
(PID.TID 0000.0001)  global fc =  0.691935723996543D+06
(PID.TID 0000.0001) grdchk perturb(+)fc: fcpertplus  =  6.91935723996543E+05
(PID.TID 0000.0001) Start initial hydrostatic pressure computation
(PID.TID 0000.0001) Pressure is predetermined for buoyancyRelation OCEANIC
(PID.TID 0000.0001) 
(PID.TID 0000.0001) // =======================================================
(PID.TID 0000.0001) // Model current state
(PID.TID 0000.0001) // =======================================================
(PID.TID 0000.0001) 
 ph-ice B            0  -1.9299999999999999        3.1916247108025107E-003   1.5958123554012554E-003
 ph-ice C            0   7978.8401425578732     
(PID.TID 0000.0001) SOLVE_FOR_PRESSURE: putPmEinXvector =    F
 cg2d: Sum(rhs),rhsMax =   1.00000000000000E+00  5.58645366562891E-06
 ph-ice B            1  -1.9277401475279452        8.8874460418830546E-003   3.0949886784590536E-003
 ph-ice C            1   30196.838080656122     
 cg2d: Sum(rhs),rhsMax =   1.00000000000000E+00  1.08502583832795E-05
 ph-ice B            2  -1.9227425093626678        1.4502445447593408E-002   4.3835477924926095E-003
 ph-ice C            2   66451.944613347063     
 cg2d: Sum(rhs),rhsMax =   1.00000000000000E+00  1.54112135502569E-05
 ph-ice B            3  -1.9169494218091825        2.0024314578485476E-002   5.4303750920643747E-003
 ph-ice C            3   116511.34052078555     
 cg2d: Sum(rhs),rhsMax =   1.00000000000000E+00  1.91657399500369E-05
 ph-ice B            4  -1.9115569302382345        2.5443224702960846E-002   6.2544591811859816E-003
 ph-ice C            4   180117.63543666224     
 cg2d: Sum(rhs),rhsMax =   1.00000000000000E+00  2.21770886623238E-05
 ph-ice B            5  -1.9072005128829574        3.0754471907926597E-002   6.9007141734406165E-003
 ph-ice C            5   257001.67953858702     
 cg2d: Sum(rhs),rhsMax =   1.00000000000000E+00  2.45948367367682E-05
 ph-ice B            6  -1.9040036643411082        3.5957972414129506E-002   7.4184431152233537E-003
 ph-ice C            6   346894.11356185458     
 cg2d: Sum(rhs),rhsMax =   1.00000000000000E+00  2.65831762080296E-05
 ph-ice B            7  -1.9016154456436141        4.1055161603243899E-002   7.8418745874948067E-003
 ph-ice C            7   449529.16659626894     
 cg2d: Sum(rhs),rhsMax =   1.00000000000000E+00  2.82561062261653E-05
 ph-ice B            8  -1.8993863476138091        4.6044937722570754E-002   8.1783275583680228E-003
 ph-ice C            8   564638.31342639495     
 cg2d: Sum(rhs),rhsMax =   1.00000000000000E+00  2.96380255445491E-05
 ph-ice B            9  -1.8965950523882773        5.0920375443619464E-002   8.4058325382630715E-003
 ph-ice C            9   691935.71599648334     
 cg2d: Sum(rhs),rhsMax =   1.00000000000000E+00  3.06558124367254E-05
(PID.TID 0000.0001) Did not write pickup because writePickupAtEnd = FALSE
 --> f_ice     = 0.691935715996483D+06
(PID.TID 0000.0001)  --> f_gencost = 0.205295356524328D-01 1
(PID.TID 0000.0001)  --> f_gencost = 0.270357339352712D-02 2
(PID.TID 0000.0001)  --> f_gentim2d = 0.000000000000000D+00 1
(PID.TID 0000.0001)  --> f_gentim2d = 0.000000000000000D+00 2
(PID.TID 0000.0001)  --> f_gentim2d = 0.000000000000000D+00 3
(PID.TID 0000.0001)  --> f_gentim2d = 0.000000000000000D+00 4
(PID.TID 0000.0001)  --> f_gentim2d = 0.000000000000000D+00 5
(PID.TID 0000.0001)  --> f_gentim2d = 0.000000000000000D+00 6
(PID.TID 0000.0001)  --> f_gentim2d = 0.000000000000000D+00 7
(PID.TID 0000.0001)  --> f_gentim2d = 0.000000000000000D+00 8
(PID.TID 0000.0001)  --> f_gentim2d = 0.000000000000000D+00 9
(PID.TID 0000.0001)  --> f_genarr3d = 0.100000000000000D-13 1
(PID.TID 0000.0001)  --> f_genarr3d = 0.000000000000000D+00 2
(PID.TID 0000.0001)  --> fc               = 0.691935715996483D+06
(PID.TID 0000.0001) Not writing cost function info to costfunction0000
(PID.TID 0000.0001)   early fc =  0.000000000000000D+00
(PID.TID 0000.0001)   local fc =  0.691935715996483D+06
(PID.TID 0000.0001)  global fc =  0.691935715996483D+06
(PID.TID 0000.0001) grdchk perturb(-)fc: fcpertminus =  6.91935715996483E+05
grad-res -------------------------------
 grad-res     0    2    1    1    2    1    1    1   6.91935719996E+05  6.91935723997E+05  6.91935715996E+05
 grad-res     0    2    2    2    0    1    1    1   4.00010117986E+04  4.00002987590E+04  1.78255399707E-05
(PID.TID 0000.0001)  ADM  ref_cost_function      =  6.91935719996437E+05
(PID.TID 0000.0001)  ADM  adjoint_gradient       =  4.00010117986034E+04
(PID.TID 0000.0001)  ADM  finite-diff_grad       =  4.00002987589687E+04
(PID.TID 0000.0001) ====== End of gradient-check number   2 (ierr=  0) =======
(PID.TID 0000.0001) ====== Starts gradient-check number   3 (=ichknum) =======
 ph-test icomp, ncvarcomp, ichknum            3          23           3
 ph-grd _loc: bi, bj, icomptest, ichknum            1           1           2           3
 ph-grd _loc: bi, bj, icomptest, ichknum            1           1           2           3
 ph-grd -->hit<--            1           1           3           1
(PID.TID 0000.0001) grdchk pos: i,j,k=    1    1    3 ; bi,bj=   1   1 ; iobc=  1 ; rec=   1
(PID.TID 0000.0001) Start initial hydrostatic pressure computation
(PID.TID 0000.0001) Pressure is predetermined for buoyancyRelation OCEANIC
(PID.TID 0000.0001) 
(PID.TID 0000.0001) // =======================================================
(PID.TID 0000.0001) // Model current state
(PID.TID 0000.0001) // =======================================================
(PID.TID 0000.0001) 
 ph-ice B            0  -1.9299999999999999        3.1916247108025107E-003   1.5958123554012554E-003
 ph-ice C            0   7978.8401425578732     
(PID.TID 0000.0001) SOLVE_FOR_PRESSURE: putPmEinXvector =    F
 cg2d: Sum(rhs),rhsMax =   1.00000000000000E+00  5.58645366562891E-06
 ph-ice B            1  -1.9277401056216843        8.8874460285176347E-003   3.0949869132311414E-003
 ph-ice C            1   30196.838047243498     
 cg2d: Sum(rhs),rhsMax =   1.00000000000000E+00  1.08502525056613E-05
 ph-ice B            2  -1.9227424726869975        1.4502445378808801E-002   4.3835444905742553E-003
 ph-ice C            2   66451.944407977702     
 cg2d: Sum(rhs),rhsMax =   1.00000000000000E+00  1.54112025559764E-05
 ph-ice B            3  -1.9169494134841050        2.0024314488203361E-002   5.4303714434868824E-003
 ph-ice C            3   116511.34008971718     
 cg2d: Sum(rhs),rhsMax =   1.00000000000000E+00  1.91657278015240E-05
 ph-ice B            4  -1.9115569535892702        2.5443224702732904E-002   6.2544565016069498E-003
 ph-ice C            4   180117.63500502403     
 cg2d: Sum(rhs),rhsMax =   1.00000000000000E+00  2.21770797403005E-05
 ph-ice B            5  -1.9072005535171810        3.0754472106850308E-002   6.9007131710992122E-003
 ph-ice C            5   257001.67960424427     
 cg2d: Sum(rhs),rhsMax =   1.00000000000000E+00  2.45948333993795E-05
 ph-ice B            6  -1.9040037018049243        3.5957972833401255E-002   7.4184436513766525E-003
 ph-ice C            6   346894.11467566213     
 cg2d: Sum(rhs),rhsMax =   1.00000000000000E+00  2.65831779932628E-05
 ph-ice B            7  -1.9016154688721079        4.1055162178293671E-002   7.8418760727065294E-003
 ph-ice C            7   449529.16914766096     
 cg2d: Sum(rhs),rhsMax =   1.00000000000000E+00  2.82561111713666E-05
 ph-ice B            8  -1.8993863617729279        4.6044938401535077E-002   8.1783296190390837E-003
 ph-ice C            8   564638.31767515070     
 cg2d: Sum(rhs),rhsMax =   1.00000000000000E+00  2.96380324056949E-05
 ph-ice B            9  -1.8965950826992892        5.0920376383595194E-002   8.4058358248827476E-003
 ph-ice C            9   691935.72259511310     
 cg2d: Sum(rhs),rhsMax =   1.00000000000000E+00  3.06558233796555E-05
(PID.TID 0000.0001) Did not write pickup because writePickupAtEnd = FALSE
 --> f_ice     = 0.691935722595113D+06
(PID.TID 0000.0001)  --> f_gencost = 0.205294688184345D-01 1
(PID.TID 0000.0001)  --> f_gencost = 0.270356653603156D-02 2
(PID.TID 0000.0001)  --> f_gentim2d = 0.000000000000000D+00 1
(PID.TID 0000.0001)  --> f_gentim2d = 0.000000000000000D+00 2
(PID.TID 0000.0001)  --> f_gentim2d = 0.000000000000000D+00 3
(PID.TID 0000.0001)  --> f_gentim2d = 0.000000000000000D+00 4
(PID.TID 0000.0001)  --> f_gentim2d = 0.000000000000000D+00 5
(PID.TID 0000.0001)  --> f_gentim2d = 0.000000000000000D+00 6
(PID.TID 0000.0001)  --> f_gentim2d = 0.000000000000000D+00 7
(PID.TID 0000.0001)  --> f_gentim2d = 0.000000000000000D+00 8
(PID.TID 0000.0001)  --> f_gentim2d = 0.000000000000000D+00 9
(PID.TID 0000.0001)  --> f_genarr3d = 0.100000000000000D-13 1
(PID.TID 0000.0001)  --> f_genarr3d = 0.000000000000000D+00 2
(PID.TID 0000.0001)  --> fc               = 0.691935722595113D+06
(PID.TID 0000.0001) Not writing cost function info to costfunction0000
(PID.TID 0000.0001)   early fc =  0.000000000000000D+00
(PID.TID 0000.0001)   local fc =  0.691935722595113D+06
(PID.TID 0000.0001)  global fc =  0.691935722595113D+06
(PID.TID 0000.0001) grdchk perturb(+)fc: fcpertplus  =  6.91935722595113E+05
(PID.TID 0000.0001) Start initial hydrostatic pressure computation
(PID.TID 0000.0001) Pressure is predetermined for buoyancyRelation OCEANIC
(PID.TID 0000.0001) 
(PID.TID 0000.0001) // =======================================================
(PID.TID 0000.0001) // Model current state
(PID.TID 0000.0001) // =======================================================
(PID.TID 0000.0001) 
 ph-ice B            0  -1.9299999999999999        3.1916247108025107E-003   1.5958123554012554E-003
 ph-ice C            0   7978.8401425578732     
(PID.TID 0000.0001) SOLVE_FOR_PRESSURE: putPmEinXvector =    F
 cg2d: Sum(rhs),rhsMax =   1.00000000000000E+00  5.58645366562891E-06
 ph-ice B            1  -1.9277401329490487        8.8874460372333243E-003   3.0949880643485507E-003
 ph-ice C            1   30196.838069032117     
 cg2d: Sum(rhs),rhsMax =   1.00000000000000E+00  1.08502563384971E-05
 ph-ice B            2  -1.9227425063068349        1.4502445438363811E-002   4.3835470503684392E-003
 ph-ice C            2   66451.944578649709     
 cg2d: Sum(rhs),rhsMax =   1.00000000000000E+00  1.54112110792288E-05
 ph-ice B            3  -1.9169494298257823        2.0024314590835805E-002   5.4303746841856924E-003
 ph-ice C            3   116511.34051696316     
 cg2d: Sum(rhs),rhsMax =   1.00000000000000E+00  1.91657385919387E-05
 ph-ice B            4  -1.9115569417872684        2.5443224759112693E-002   6.2544592523220092E-003
 ph-ice C            4   180117.63557321555     
 cg2d: Sum(rhs),rhsMax =   1.00000000000000E+00  2.21770888991787E-05
 ph-ice B            5  -1.9072005207792426        3.0754472001960138E-002   6.9007145703889952E-003
 ph-ice C            5   257001.67991021764     
 cg2d: Sum(rhs),rhsMax =   1.00000000000000E+00  2.45948380584667E-05
 ph-ice B            6  -1.9040036662140307        3.5957972517865373E-002   7.4184435890024009E-003
 ph-ice C            6   346894.11419281771     
 cg2d: Sum(rhs),rhsMax =   1.00000000000000E+00  2.65831777855458E-05
 ph-ice B            7  -1.9016154440387756        4.1055161694087697E-002   7.8418749956145617E-003
 ph-ice C            7   449529.16745433526     
 cg2d: Sum(rhs),rhsMax =   1.00000000000000E+00  2.82561075850383E-05
 ph-ice B            8  -1.8993863473799655        4.6044937810104956E-002   8.1783279568740826E-003
 ph-ice C            8   564638.31450329069     
 cg2d: Sum(rhs),rhsMax =   1.00000000000000E+00  2.96380268714089E-05
 ph-ice B            9  -1.8965950572464640        5.0920375573403981E-002   8.4058331331989915E-003
 ph-ice C            9   691935.71739783138     
 cg2d: Sum(rhs),rhsMax =   1.00000000000000E+00  3.06558144175958E-05
(PID.TID 0000.0001) Did not write pickup because writePickupAtEnd = FALSE
 --> f_ice     = 0.691935717397831D+06
(PID.TID 0000.0001)  --> f_gencost = 0.205295300035475D-01 1
(PID.TID 0000.0001)  --> f_gencost = 0.270357267916436D-02 2
(PID.TID 0000.0001)  --> f_gentim2d = 0.000000000000000D+00 1
(PID.TID 0000.0001)  --> f_gentim2d = 0.000000000000000D+00 2
(PID.TID 0000.0001)  --> f_gentim2d = 0.000000000000000D+00 3
(PID.TID 0000.0001)  --> f_gentim2d = 0.000000000000000D+00 4
(PID.TID 0000.0001)  --> f_gentim2d = 0.000000000000000D+00 5
(PID.TID 0000.0001)  --> f_gentim2d = 0.000000000000000D+00 6
(PID.TID 0000.0001)  --> f_gentim2d = 0.000000000000000D+00 7
(PID.TID 0000.0001)  --> f_gentim2d = 0.000000000000000D+00 8
(PID.TID 0000.0001)  --> f_gentim2d = 0.000000000000000D+00 9
(PID.TID 0000.0001)  --> f_genarr3d = 0.100000000000000D-13 1
(PID.TID 0000.0001)  --> f_genarr3d = 0.000000000000000D+00 2
(PID.TID 0000.0001)  --> fc               = 0.691935717397831D+06
(PID.TID 0000.0001) Not writing cost function info to costfunction0000
(PID.TID 0000.0001)   early fc =  0.000000000000000D+00
(PID.TID 0000.0001)   local fc =  0.691935717397831D+06
(PID.TID 0000.0001)  global fc =  0.691935717397831D+06
(PID.TID 0000.0001) grdchk perturb(-)fc: fcpertminus =  6.91935717397831E+05
grad-res -------------------------------
 grad-res     0    3    1    1    3    1    1    1   6.91935719996E+05  6.91935722595E+05  6.91935717398E+05
 grad-res     0    3    3    3    0    1    1    1   2.59864733519E+04  2.59864085820E+04  2.49244852524E-06
(PID.TID 0000.0001)  ADM  ref_cost_function      =  6.91935719996437E+05
(PID.TID 0000.0001)  ADM  adjoint_gradient       =  2.59864733519044E+04
(PID.TID 0000.0001)  ADM  finite-diff_grad       =  2.59864085819572E+04
(PID.TID 0000.0001) ====== End of gradient-check number   3 (ierr=  0) =======
(PID.TID 0000.0001) ====== Starts gradient-check number   4 (=ichknum) =======
 ph-test icomp, ncvarcomp, ichknum            4          23           4
 ph-grd _loc: bi, bj, icomptest, ichknum            1           1           3           4
 ph-grd _loc: bi, bj, icomptest, ichknum            1           1           3           4
 ph-grd -->hit<--            1           1           4           1
(PID.TID 0000.0001) grdchk pos: i,j,k=    1    1    4 ; bi,bj=   1   1 ; iobc=  1 ; rec=   1
(PID.TID 0000.0001) Start initial hydrostatic pressure computation
(PID.TID 0000.0001) Pressure is predetermined for buoyancyRelation OCEANIC
(PID.TID 0000.0001) 
(PID.TID 0000.0001) // =======================================================
(PID.TID 0000.0001) // Model current state
(PID.TID 0000.0001) // =======================================================
(PID.TID 0000.0001) 
 ph-ice B            0  -1.9299999999999999        3.1916247108025107E-003   1.5958123554012554E-003
 ph-ice C            0   7978.8401425578732     
(PID.TID 0000.0001) SOLVE_FOR_PRESSURE: putPmEinXvector =    F
 cg2d: Sum(rhs),rhsMax =   1.00000000000000E+00  5.58645366562891E-06
 ph-ice B            1  -1.9277401176231352        8.8874460323453228E-003   3.0949874187712581E-003
 ph-ice C            1   30196.838056812452     
 cg2d: Sum(rhs),rhsMax =   1.00000000000000E+00  1.08502541889407E-05
 ph-ice B            2  -1.9227424855662201        1.4502445402107008E-002   4.3835455357526133E-003
 ph-ice C            2   66451.944475790558     
 cg2d: Sum(rhs),rhsMax =   1.00000000000000E+00  1.54112060360743E-05
 ph-ice B            3  -1.9169494162402270        2.0024314518608165E-002   5.4303726034369516E-003
 ph-ice C            3   116511.34023353993     
 cg2d: Sum(rhs),rhsMax =   1.00000000000000E+00  1.91657316637560E-05
 ph-ice B            4  -1.9115569425874477        2.5443224690837193E-002   6.2544572051147409E-003
 ph-ice C            4   180117.63511910831     
 cg2d: Sum(rhs),rhsMax =   1.00000000000000E+00  2.21770820827291E-05
 ph-ice B            5  -1.9072005341319098        3.0754472000043078E-002   6.9007130745980024E-003
 ph-ice C            5   257001.67945131788     
 cg2d: Sum(rhs),rhsMax =   1.00000000000000E+00  2.45948330780473E-05
 ph-ice B            6  -1.9040036835610283        3.5957972619316186E-002   7.4184428058637593E-003
 ph-ice C            6   346894.11398753792     
 cg2d: Sum(rhs),rhsMax =   1.00000000000000E+00  2.65831751780294E-05
 ph-ice B            7  -1.9016154577295170        4.1055161889520096E-002   7.8418747721714782E-003
 ph-ice C            7   449529.16773762286     
 cg2d: Sum(rhs),rhsMax =   1.00000000000000E+00  2.82561068411284E-05
 ph-ice B            8  -1.8993863563628410        4.6044938073981301E-002   8.1783280989162280E-003
 ph-ice C            8   564638.31544625084     
 cg2d: Sum(rhs),rhsMax =   1.00000000000000E+00  2.96380273443947E-05
 ph-ice B            9  -1.8965950722172300        5.0920375967061102E-002   8.4058338811531415E-003
 ph-ice C            9   691935.71932490694     
 cg2d: Sum(rhs),rhsMax =   1.00000000000000E+00  3.06558169079923E-05
(PID.TID 0000.0001) Did not write pickup because writePickupAtEnd = FALSE
 --> f_ice     = 0.691935719324907D+06
(PID.TID 0000.0001)  --> f_gencost = 0.205294733846819D-01 1
(PID.TID 0000.0001)  --> f_gencost = 0.270356911492679D-02 2
(PID.TID 0000.0001)  --> f_gentim2d = 0.000000000000000D+00 1
(PID.TID 0000.0001)  --> f_gentim2d = 0.000000000000000D+00 2
(PID.TID 0000.0001)  --> f_gentim2d = 0.000000000000000D+00 3
(PID.TID 0000.0001)  --> f_gentim2d = 0.000000000000000D+00 4
(PID.TID 0000.0001)  --> f_gentim2d = 0.000000000000000D+00 5
(PID.TID 0000.0001)  --> f_gentim2d = 0.000000000000000D+00 6
(PID.TID 0000.0001)  --> f_gentim2d = 0.000000000000000D+00 7
(PID.TID 0000.0001)  --> f_gentim2d = 0.000000000000000D+00 8
(PID.TID 0000.0001)  --> f_gentim2d = 0.000000000000000D+00 9
(PID.TID 0000.0001)  --> f_genarr3d = 0.100000000000000D-13 1
(PID.TID 0000.0001)  --> f_genarr3d = 0.000000000000000D+00 2
(PID.TID 0000.0001)  --> fc               = 0.691935719324907D+06
(PID.TID 0000.0001) Not writing cost function info to costfunction0000
(PID.TID 0000.0001)   early fc =  0.000000000000000D+00
(PID.TID 0000.0001)   local fc =  0.691935719324907D+06
(PID.TID 0000.0001)  global fc =  0.691935719324907D+06
(PID.TID 0000.0001) grdchk perturb(+)fc: fcpertplus  =  6.91935719324907E+05
(PID.TID 0000.0001) Start initial hydrostatic pressure computation
(PID.TID 0000.0001) Pressure is predetermined for buoyancyRelation OCEANIC
(PID.TID 0000.0001) 
(PID.TID 0000.0001) // =======================================================
(PID.TID 0000.0001) // Model current state
(PID.TID 0000.0001) // =======================================================
(PID.TID 0000.0001) 
 ph-ice B            0  -1.9299999999999999        3.1916247108025107E-003   1.5958123554012554E-003
 ph-ice C            0   7978.8401425578732     
(PID.TID 0000.0001) SOLVE_FOR_PRESSURE: putPmEinXvector =    F
 cg2d: Sum(rhs),rhsMax =   1.00000000000000E+00  5.58645366562891E-06
 ph-ice B            1  -1.9277401209471945        8.8874460334054974E-003   3.0949875587914432E-003
 ph-ice C            1   30196.838059462818     
 cg2d: Sum(rhs),rhsMax =   1.00000000000000E+00  1.08502546551611E-05
 ph-ice B            2  -1.9227424934274584        1.4502445415065247E-002   4.3835460051666513E-003
 ph-ice C            2   66451.944510835630     
 cg2d: Sum(rhs),rhsMax =   1.00000000000000E+00  1.54112075990546E-05
 ph-ice B            3  -1.9169494270695875        2.0024314560430453E-002   5.4303735242091583E-003
 ph-ice C            3   116511.34037313782     
 cg2d: Sum(rhs),rhsMax =   1.00000000000000E+00  1.91657347296087E-05
 ph-ice B            4  -1.9115569527891569        2.5443224771008140E-002   6.2544585487905044E-003
 ph-ice C            4   180117.63545912801     
 cg2d: Sum(rhs),rhsMax =   1.00000000000000E+00  2.21770865566936E-05
 ph-ice B            5  -1.9072005401649523        3.0754472108769249E-002   6.9007146668845845E-003
 ph-ice C            5   257001.68006314547     
 cg2d: Sum(rhs),rhsMax =   1.00000000000000E+00  2.45948383797931E-05
 ph-ice B            6  -1.9040036844591643        3.5957972731959685E-002   7.4184444345604863E-003
 ph-ice C            6   346894.11488096643     
 cg2d: Sum(rhs),rhsMax =   1.00000000000000E+00  2.65831806009740E-05
 ph-ice B            7  -1.9016154551826632        4.1055161982879451E-002   7.8418762962477601E-003
 ph-ice C            7   449529.16886444332     
 cg2d: Sum(rhs),rhsMax =   1.00000000000000E+00  2.82561119156871E-05
 ph-ice B            8  -1.8993863527882442        4.6044938137662125E-002   8.1783294770215453E-003
 ph-ice C            8   564638.31673226901     
 cg2d: Sum(rhs),rhsMax =   1.00000000000000E+00  2.96380319328764E-05
 ph-ice B            9  -1.8965950677260803        5.0920375989919470E-002   8.4058350768543531E-003
 ph-ice C            9   691935.72066806944     
 cg2d: Sum(rhs),rhsMax =   1.00000000000000E+00  3.06558208891330E-05
(PID.TID 0000.0001) Did not write pickup because writePickupAtEnd = FALSE
 --> f_ice     = 0.691935720668069D+06
(PID.TID 0000.0001)  --> f_gencost = 0.205295254379969D-01 1
(PID.TID 0000.0001)  --> f_gencost = 0.270357010034824D-02 2
(PID.TID 0000.0001)  --> f_gentim2d = 0.000000000000000D+00 1
(PID.TID 0000.0001)  --> f_gentim2d = 0.000000000000000D+00 2
(PID.TID 0000.0001)  --> f_gentim2d = 0.000000000000000D+00 3
(PID.TID 0000.0001)  --> f_gentim2d = 0.000000000000000D+00 4
(PID.TID 0000.0001)  --> f_gentim2d = 0.000000000000000D+00 5
(PID.TID 0000.0001)  --> f_gentim2d = 0.000000000000000D+00 6
(PID.TID 0000.0001)  --> f_gentim2d = 0.000000000000000D+00 7
(PID.TID 0000.0001)  --> f_gentim2d = 0.000000000000000D+00 8
(PID.TID 0000.0001)  --> f_gentim2d = 0.000000000000000D+00 9
(PID.TID 0000.0001)  --> f_genarr3d = 0.100000000000000D-13 1
(PID.TID 0000.0001)  --> f_genarr3d = 0.000000000000000D+00 2
(PID.TID 0000.0001)  --> fc               = 0.691935720668069D+06
(PID.TID 0000.0001) Not writing cost function info to costfunction0000
(PID.TID 0000.0001)   early fc =  0.000000000000000D+00
(PID.TID 0000.0001)   local fc =  0.691935720668069D+06
(PID.TID 0000.0001)  global fc =  0.691935720668069D+06
(PID.TID 0000.0001) grdchk perturb(-)fc: fcpertminus =  6.91935720668069E+05
grad-res -------------------------------
 grad-res     0    4    1    1    4    1    1    1   6.91935719996E+05  6.91935719325E+05  6.91935720668E+05
 grad-res     0    4    4    4    0    1    1    1  -6.71549955420E+03 -6.71581248753E+03 -4.65986669178E-05
(PID.TID 0000.0001)  ADM  ref_cost_function      =  6.91935719996437E+05
(PID.TID 0000.0001)  ADM  adjoint_gradient       = -6.71549955420081E+03
(PID.TID 0000.0001)  ADM  finite-diff_grad       = -6.71581248752773E+03
(PID.TID 0000.0001) ====== End of gradient-check number   4 (ierr=  0) =======
(PID.TID 0000.0001) 
(PID.TID 0000.0001) // =======================================================
(PID.TID 0000.0001) // Gradient check results  >>> START <<<
(PID.TID 0000.0001) // =======================================================
(PID.TID 0000.0001) 
(PID.TID 0000.0001)  EPS = 1.000000E-07 ; grdchk CTRL var/file name: "xx_theta"
(PID.TID 0000.0001) 
(PID.TID 0000.0001) grdchk output h.p:  Id Itile Jtile LAYER   bi   bj   X(Id)           X(Id)+/-EPS
(PID.TID 0000.0001) grdchk output h.c:  Id  FC                   FC1                  FC2
(PID.TID 0000.0001) grdchk output h.g:  Id     FC1-FC2/(2*EPS)      ADJ GRAD(FC)         1-FDGRD/ADGRD
(PID.TID 0000.0001) 
(PID.TID 0000.0001) grdchk output (p):   1     1     1     1    1    1   0.000000000E+00 -1.000000000E-07
(PID.TID 0000.0001) grdchk output (c):   1  6.9193571999644E+05  6.9193553086898E+05  6.9193590912411E+05
(PID.TID 0000.0001) grdchk output (g):   1    -1.8912756338250E+06 -1.8912763605492E+06  3.8425067871994E-07
(PID.TID 0000.0001) 
(PID.TID 0000.0001) grdchk output (p):   2     1     1     2    1    1   0.000000000E+00 -1.000000000E-07
(PID.TID 0000.0001) grdchk output (c):   2  6.9193571999644E+05  6.9193572399654E+05  6.9193571599648E+05
(PID.TID 0000.0001) grdchk output (g):   2     4.0000298758969E+04  4.0001011798603E+04  1.7825539970651E-05
(PID.TID 0000.0001) 
(PID.TID 0000.0001) grdchk output (p):   3     1     1     3    1    1   0.000000000E+00 -1.000000000E-07
(PID.TID 0000.0001) grdchk output (c):   3  6.9193571999644E+05  6.9193572259511E+05  6.9193571739783E+05
(PID.TID 0000.0001) grdchk output (g):   3     2.5986408581957E+04  2.5986473351904E+04  2.4924485252376E-06
(PID.TID 0000.0001) 
(PID.TID 0000.0001) grdchk output (p):   4     1     1     4    1    1   0.000000000E+00 -1.000000000E-07
(PID.TID 0000.0001) grdchk output (c):   4  6.9193571999644E+05  6.9193571932491E+05  6.9193572066807E+05
(PID.TID 0000.0001) grdchk output (g):   4    -6.7158124875277E+03 -6.7154995542008E+03 -4.6598666917808E-05
(PID.TID 0000.0001) 
(PID.TID 0000.0001) grdchk  summary  :  RMS of    4 ratios =  2.4977717980217E-05
(PID.TID 0000.0001) 
(PID.TID 0000.0001) // =======================================================
(PID.TID 0000.0001) // Gradient check results  >>> END <<<
(PID.TID 0000.0001) // =======================================================
(PID.TID 0000.0001) 
(PID.TID 0000.0001)   Seconds in section "ALL                    [THE_MODEL_MAIN]":
(PID.TID 0000.0001)           User time:  0.85679398628417403
(PID.TID 0000.0001)         System time:   2.4227000772953033E-002
(PID.TID 0000.0001)     Wall clock time:  0.88843488693237305
(PID.TID 0000.0001)          No. starts:           1
(PID.TID 0000.0001)           No. stops:           1
(PID.TID 0000.0001)   Seconds in section "INITIALISE_FIXED       [THE_MODEL_MAIN]":
(PID.TID 0000.0001)           User time:   4.0255000116303563E-002
(PID.TID 0000.0001)         System time:   8.2900002598762512E-003
(PID.TID 0000.0001)     Wall clock time:   5.0364017486572266E-002
(PID.TID 0000.0001)          No. starts:           1
(PID.TID 0000.0001)           No. stops:           1
(PID.TID 0000.0001)   Seconds in section "ADTHE_MAIN_LOOP          [ADJOINT RUN]":
(PID.TID 0000.0001)           User time:  0.35921299830079079
(PID.TID 0000.0001)         System time:   1.2031999416649342E-002
(PID.TID 0000.0001)     Wall clock time:  0.37437891960144043
(PID.TID 0000.0001)          No. starts:           1
(PID.TID 0000.0001)           No. stops:           1
(PID.TID 0000.0001)   Seconds in section "FORWARD_STEP        [MAIN_DO_LOOP]":
(PID.TID 0000.0001)           User time:  0.53256046026945114
(PID.TID 0000.0001)         System time:   2.7150018140673637E-003
(PID.TID 0000.0001)     Wall clock time:  0.53814935684204102
(PID.TID 0000.0001)          No. starts:         100
(PID.TID 0000.0001)           No. stops:         100
(PID.TID 0000.0001)   Seconds in section "LOAD_FIELDS_DRIVER  [FORWARD_STEP]":
(PID.TID 0000.0001)           User time:   2.2913765162229538E-002
(PID.TID 0000.0001)         System time:   2.6400014758110046E-004
(PID.TID 0000.0001)     Wall clock time:   2.3448944091796875E-002
(PID.TID 0000.0001)          No. starts:         100
(PID.TID 0000.0001)           No. stops:         100
(PID.TID 0000.0001)   Seconds in section "EXF_GETFORCING     [LOAD_FLDS_DRIVER]":
(PID.TID 0000.0001)           User time:   1.3083934783935547E-002
(PID.TID 0000.0001)         System time:   1.4899950474500656E-004
(PID.TID 0000.0001)     Wall clock time:   1.3500690460205078E-002
(PID.TID 0000.0001)          No. starts:         100
(PID.TID 0000.0001)           No. stops:         100
(PID.TID 0000.0001)   Seconds in section "EXTERNAL_FLDS_LOAD [LOAD_FLDS_DRIVER]":
(PID.TID 0000.0001)           User time:   4.4103339314460754E-004
(PID.TID 0000.0001)         System time:   1.0002404451370239E-006
(PID.TID 0000.0001)     Wall clock time:   4.5299530029296875E-004
(PID.TID 0000.0001)          No. starts:         100
(PID.TID 0000.0001)           No. stops:         100
(PID.TID 0000.0001)   Seconds in section "CTRL_MAP_FORCING  [FORWARD_STEP]":
(PID.TID 0000.0001)           User time:   4.7740191221237183E-003
(PID.TID 0000.0001)         System time:   1.6000121831893921E-005
(PID.TID 0000.0001)     Wall clock time:   4.7967433929443359E-003
(PID.TID 0000.0001)          No. starts:         100
(PID.TID 0000.0001)           No. stops:         100
(PID.TID 0000.0001)   Seconds in section "DO_ATMOSPHERIC_PHYS [FORWARD_STEP]":
(PID.TID 0000.0001)           User time:   1.1720471084117889E-003
(PID.TID 0000.0001)         System time:   4.0009617805480957E-006
(PID.TID 0000.0001)     Wall clock time:   1.1844635009765625E-003
(PID.TID 0000.0001)          No. starts:         100
(PID.TID 0000.0001)           No. stops:         100
(PID.TID 0000.0001)   Seconds in section "DO_OCEANIC_PHYS     [FORWARD_STEP]":
(PID.TID 0000.0001)           User time:  0.15854808688163757
(PID.TID 0000.0001)         System time:   2.1999888122081757E-004
(PID.TID 0000.0001)     Wall clock time:  0.15896701812744141
(PID.TID 0000.0001)          No. starts:         100
(PID.TID 0000.0001)           No. stops:         100
(PID.TID 0000.0001)   Seconds in section "SEAICE_MODEL    [DO_OCEANIC_PHYS]":
(PID.TID 0000.0001)           User time:   1.3399910181760788E-002
(PID.TID 0000.0001)         System time:   4.5999884605407715E-005
(PID.TID 0000.0001)     Wall clock time:   1.3462066650390625E-002
(PID.TID 0000.0001)          No. starts:         100
(PID.TID 0000.0001)           No. stops:         100
(PID.TID 0000.0001)   Seconds in section "SEAICE_DYNSOLVER   [SEAICE_MODEL]":
(PID.TID 0000.0001)           User time:   2.3801922798156738E-003
(PID.TID 0000.0001)         System time:   8.9993700385093689E-006
(PID.TID 0000.0001)     Wall clock time:   2.3922920227050781E-003
(PID.TID 0000.0001)          No. starts:         100
(PID.TID 0000.0001)           No. stops:         100
(PID.TID 0000.0001)   Seconds in section "KPP_CALC [DO_OCEANIC_PHYS]":
(PID.TID 0000.0001)           User time:  0.12615709006786346
(PID.TID 0000.0001)         System time:   1.2400001287460327E-004
(PID.TID 0000.0001)     Wall clock time:  0.12647390365600586
(PID.TID 0000.0001)          No. starts:         100
(PID.TID 0000.0001)           No. stops:         100
(PID.TID 0000.0001)   Seconds in section "DYNAMICS            [FORWARD_STEP]":
(PID.TID 0000.0001)           User time:  0.13845312967896461
(PID.TID 0000.0001)         System time:   1.3899989426136017E-004
(PID.TID 0000.0001)     Wall clock time:  0.13977646827697754
(PID.TID 0000.0001)          No. starts:         100
(PID.TID 0000.0001)           No. stops:         100
(PID.TID 0000.0001)   Seconds in section "SOLVE_FOR_PRESSURE  [FORWARD_STEP]":
(PID.TID 0000.0001)           User time:   5.0696358084678650E-003
(PID.TID 0000.0001)         System time:   5.3000636398792267E-005
(PID.TID 0000.0001)     Wall clock time:   5.1267147064208984E-003
(PID.TID 0000.0001)          No. starts:         100
(PID.TID 0000.0001)           No. stops:         100
(PID.TID 0000.0001)   Seconds in section "MOM_CORRECTION_STEP [FORWARD_STEP]":
(PID.TID 0000.0001)           User time:   5.6809559464454651E-003
(PID.TID 0000.0001)         System time:   6.1999075114727020E-005
(PID.TID 0000.0001)     Wall clock time:   5.8243274688720703E-003
(PID.TID 0000.0001)          No. starts:         100
(PID.TID 0000.0001)           No. stops:         100
(PID.TID 0000.0001)   Seconds in section "INTEGR_CONTINUITY   [FORWARD_STEP]":
(PID.TID 0000.0001)           User time:   2.0351260900497437E-003
(PID.TID 0000.0001)         System time:   1.9999220967292786E-005
(PID.TID 0000.0001)     Wall clock time:   2.0575523376464844E-003
(PID.TID 0000.0001)          No. starts:         100
(PID.TID 0000.0001)           No. stops:         100
(PID.TID 0000.0001)   Seconds in section "BLOCKING_EXCHANGES  [FORWARD_STEP]":
(PID.TID 0000.0001)           User time:   2.2346273064613342E-002
(PID.TID 0000.0001)         System time:   2.3900065571069717E-004
(PID.TID 0000.0001)     Wall clock time:   2.3264884948730469E-002
(PID.TID 0000.0001)          No. starts:         200
(PID.TID 0000.0001)           No. stops:         200
(PID.TID 0000.0001)   Seconds in section "THERMODYNAMICS      [FORWARD_STEP]":
(PID.TID 0000.0001)           User time:  0.12979864701628685
(PID.TID 0000.0001)         System time:   1.3310005888342857E-003
(PID.TID 0000.0001)     Wall clock time:  0.13141918182373047
(PID.TID 0000.0001)          No. starts:         100
(PID.TID 0000.0001)           No. stops:         100
(PID.TID 0000.0001)   Seconds in section "TRC_CORRECTION_STEP [FORWARD_STEP]":
(PID.TID 0000.0001)           User time:   4.4371187686920166E-004
(PID.TID 0000.0001)         System time:   4.9993395805358887E-006
(PID.TID 0000.0001)     Wall clock time:   4.5037269592285156E-004
(PID.TID 0000.0001)          No. starts:         100
(PID.TID 0000.0001)           No. stops:         100
(PID.TID 0000.0001)   Seconds in section "MONITOR             [FORWARD_STEP]":
(PID.TID 0000.0001)           User time:   4.9501471221446991E-003
(PID.TID 0000.0001)         System time:   4.0009617805480957E-006
(PID.TID 0000.0001)     Wall clock time:   5.1417350769042969E-003
(PID.TID 0000.0001)          No. starts:         100
(PID.TID 0000.0001)           No. stops:         100
(PID.TID 0000.0001)   Seconds in section "COST_TILE           [FORWARD_STEP]":
(PID.TID 0000.0001)           User time:   4.2511895298957825E-004
(PID.TID 0000.0001)         System time:   4.0009617805480957E-006
(PID.TID 0000.0001)     Wall clock time:   4.2486190795898438E-004
(PID.TID 0000.0001)          No. starts:         100
(PID.TID 0000.0001)           No. stops:         100
(PID.TID 0000.0001)   Seconds in section "DO_THE_MODEL_IO     [FORWARD_STEP]":
(PID.TID 0000.0001)           User time:   2.6060752570629120E-003
(PID.TID 0000.0001)         System time:   4.9993395805358887E-006
(PID.TID 0000.0001)     Wall clock time:   2.5928020477294922E-003
(PID.TID 0000.0001)          No. starts:         100
(PID.TID 0000.0001)           No. stops:         100
(PID.TID 0000.0001)   Seconds in section "DO_WRITE_PICKUP     [FORWARD_STEP]":
(PID.TID 0000.0001)           User time:   8.2400441169738770E-004
(PID.TID 0000.0001)         System time:   1.3999640941619873E-005
(PID.TID 0000.0001)     Wall clock time:   8.3398818969726562E-004
(PID.TID 0000.0001)          No. starts:         100
(PID.TID 0000.0001)           No. stops:         100
(PID.TID 0000.0001)   Seconds in section "COST_GENCOST_ALL    [ECCO SPIN-DOWN]":
(PID.TID 0000.0001)           User time:   4.2771026492118835E-003
(PID.TID 0000.0001)         System time:   5.0199963152408600E-004
(PID.TID 0000.0001)     Wall clock time:   5.5658817291259766E-003
(PID.TID 0000.0001)          No. starts:           9
(PID.TID 0000.0001)           No. stops:           9
(PID.TID 0000.0001)   Seconds in section "CTRL_COST_DRIVER [ECCO SPIN-DOWN]":
(PID.TID 0000.0001)           User time:   3.4770667552947998E-003
(PID.TID 0000.0001)         System time:   4.3899938464164734E-004
(PID.TID 0000.0001)     Wall clock time:   3.9179325103759766E-003
(PID.TID 0000.0001)          No. starts:           9
(PID.TID 0000.0001)           No. stops:           9
(PID.TID 0000.0001)   Seconds in section "I/O (WRITE)        [ADJOINT LOOP]":
(PID.TID 0000.0001)           User time:   1.6017958521842957E-002
(PID.TID 0000.0001)         System time:   1.6919989138841629E-003
(PID.TID 0000.0001)     Wall clock time:   1.7699003219604492E-002
(PID.TID 0000.0001)          No. starts:          71
(PID.TID 0000.0001)           No. stops:          71
(PID.TID 0000.0001)   Seconds in section "CTRL_PACK           [THE_MODEL_MAIN]":
(PID.TID 0000.0001)           User time:   7.0098042488098145E-004
(PID.TID 0000.0001)         System time:   0.0000000000000000
(PID.TID 0000.0001)     Wall clock time:   7.0095062255859375E-004
(PID.TID 0000.0001)          No. starts:           1
(PID.TID 0000.0001)           No. stops:           1
(PID.TID 0000.0001)   Seconds in section "CTRL_PACK     [THE_MODEL_MAIN]":
(PID.TID 0000.0001)           User time:   6.6399574279785156E-004
(PID.TID 0000.0001)         System time:   0.0000000000000000
(PID.TID 0000.0001)     Wall clock time:   6.6399574279785156E-004
(PID.TID 0000.0001)          No. starts:           1
(PID.TID 0000.0001)           No. stops:           1
(PID.TID 0000.0001)   Seconds in section "GRDCHK_MAIN         [THE_MODEL_MAIN]":
(PID.TID 0000.0001)           User time:  0.45591697096824646
(PID.TID 0000.0001)         System time:   3.9030015468597412E-003
(PID.TID 0000.0001)     Wall clock time:  0.46229314804077148
(PID.TID 0000.0001)          No. starts:           1
(PID.TID 0000.0001)           No. stops:           1
(PID.TID 0000.0001)   Seconds in section "INITIALISE_VARIA    [THE_MAIN_LOOP]":
(PID.TID 0000.0001)           User time:   2.4305999279022217E-002
(PID.TID 0000.0001)         System time:   3.9299950003623962E-004
(PID.TID 0000.0001)     Wall clock time:   2.5381326675415039E-002
(PID.TID 0000.0001)          No. starts:           8
(PID.TID 0000.0001)           No. stops:           8
(PID.TID 0000.0001)   Seconds in section "MAIN LOOP           [THE_MAIN_LOOP]":
(PID.TID 0000.0001)           User time:  0.43000701069831848
(PID.TID 0000.0001)         System time:   3.3690016716718674E-003
(PID.TID 0000.0001)     Wall clock time:  0.43517112731933594
(PID.TID 0000.0001)          No. starts:           8
(PID.TID 0000.0001)           No. stops:           8
(PID.TID 0000.0001)   Seconds in section "COST_AVERAGESFIELDS [MAIN_DO_LOOP]":
(PID.TID 0000.0001)           User time:   2.2082626819610596E-003
(PID.TID 0000.0001)         System time:   2.0004808902740479E-006
(PID.TID 0000.0001)     Wall clock time:   2.2118091583251953E-003
(PID.TID 0000.0001)          No. starts:          80
(PID.TID 0000.0001)           No. stops:          80
(PID.TID 0000.0001)   Seconds in section "MAIN_DO_LOOP        [THE_MAIN_LOOP]":
(PID.TID 0000.0001)           User time:  0.41825282573699951
(PID.TID 0000.0001)         System time:   2.0750015974044800E-003
(PID.TID 0000.0001)     Wall clock time:  0.42200183868408203
(PID.TID 0000.0001)          No. starts:          80
(PID.TID 0000.0001)           No. stops:          80
(PID.TID 0000.0001)   Seconds in section "COST_AVERAGESFIELDS [THE_MAIN_LOOP]":
(PID.TID 0000.0001)           User time:   1.2180805206298828E-003
(PID.TID 0000.0001)         System time:   1.8399953842163086E-004
(PID.TID 0000.0001)     Wall clock time:   1.4073848724365234E-003
(PID.TID 0000.0001)          No. starts:           8
(PID.TID 0000.0001)           No. stops:           8
(PID.TID 0000.0001)   Seconds in section "ECCO_COST_DRIVER   [THE_MAIN_LOOP]":
(PID.TID 0000.0001)           User time:   6.6310763359069824E-003
(PID.TID 0000.0001)         System time:   9.5499865710735321E-004
(PID.TID 0000.0001)     Wall clock time:   7.7052116394042969E-003
(PID.TID 0000.0001)          No. starts:           8
(PID.TID 0000.0001)           No. stops:           8
(PID.TID 0000.0001)   Seconds in section "COST_FINAL         [ADJOINT SPIN-DOWN]":
(PID.TID 0000.0001)           User time:   7.8701972961425781E-004
(PID.TID 0000.0001)         System time:   1.3200007379055023E-004
(PID.TID 0000.0001)     Wall clock time:   9.2005729675292969E-004
(PID.TID 0000.0001)          No. starts:           8
(PID.TID 0000.0001)           No. stops:           8
(PID.TID 0000.0001) // ======================================================
(PID.TID 0000.0001) // Tile <-> Tile communication statistics
(PID.TID 0000.0001) // ======================================================
(PID.TID 0000.0001) // o Tile number: 000001
(PID.TID 0000.0001) //         No. X exchanges =              0
(PID.TID 0000.0001) //            Max. X spins =              0
(PID.TID 0000.0001) //            Min. X spins =     1000000000
(PID.TID 0000.0001) //          Total. X spins =              0
(PID.TID 0000.0001) //            Avg. X spins =       0.00E+00
(PID.TID 0000.0001) //         No. Y exchanges =              0
(PID.TID 0000.0001) //            Max. Y spins =              0
(PID.TID 0000.0001) //            Min. Y spins =     1000000000
(PID.TID 0000.0001) //          Total. Y spins =              0
(PID.TID 0000.0001) //            Avg. Y spins =       0.00E+00
(PID.TID 0000.0001) // o Thread number: 000001
(PID.TID 0000.0001) //            No. barriers =          31804
(PID.TID 0000.0001) //      Max. barrier spins =              1
(PID.TID 0000.0001) //      Min. barrier spins =              1
(PID.TID 0000.0001) //     Total barrier spins =          31804
(PID.TID 0000.0001) //      Avg. barrier spins =       1.00E+00
PROGRAM MAIN: Execution ended Normally
