(PID.TID 0000.0001) 
(PID.TID 0000.0001) // ======================================================
(PID.TID 0000.0001) //                      MITgcm UV
(PID.TID 0000.0001) //                      =========
(PID.TID 0000.0001) // ======================================================
(PID.TID 0000.0001) // execution environment starting up...
(PID.TID 0000.0001) 
(PID.TID 0000.0001) // MITgcmUV version:  checkpoint69g
(PID.TID 0000.0001) // Build user:        psummers8
(PID.TID 0000.0001) // Build host:        ipsec-10-2-65-64.vpn.gatech.edu
(PID.TID 0000.0001) // Build date:        Fri Oct 10 14:17:04 EDT 2025
(PID.TID 0000.0001) 
(PID.TID 0000.0001) // =======================================================
(PID.TID 0000.0001) // Execution Environment parameter file "eedata"
(PID.TID 0000.0001) // =======================================================
(PID.TID 0000.0001) ># "eedata" file
(PID.TID 0000.0001) ># Lines beginning "#" are comments
(PID.TID 0000.0001) ># nTx - No. threads per process in X
(PID.TID 0000.0001) ># nTy - No. threads per process in Y
(PID.TID 0000.0001) > &EEPARMS
(PID.TID 0000.0001) > nTx=1,
(PID.TID 0000.0001) > nTy=1,
(PID.TID 0000.0001) > /
(PID.TID 0000.0001) ># Note: Some systems use & as the namelist terminator (as shown here).
(PID.TID 0000.0001) >#       Other systems use a / character.
(PID.TID 0000.0001) 
(PID.TID 0000.0001) // =======================================================
(PID.TID 0000.0001) // Computational Grid Specification ( see files "SIZE.h" )
(PID.TID 0000.0001) //                                  ( and "eedata"       )
(PID.TID 0000.0001) // =======================================================
(PID.TID 0000.0001)      nPx =    1 ; /* No. processes in X */
(PID.TID 0000.0001)      nPy =    1 ; /* No. processes in Y */
(PID.TID 0000.0001)      nSx =    1 ; /* No. tiles in X per process */
(PID.TID 0000.0001)      nSy =    1 ; /* No. tiles in Y per process */
(PID.TID 0000.0001)      sNx =   30 ; /* Tile size in X */
(PID.TID 0000.0001)      sNy =   10 ; /* Tile size in Y */
(PID.TID 0000.0001)      OLx =    3 ; /* Tile overlap distance in X */
(PID.TID 0000.0001)      OLy =    3 ; /* Tile overlap distance in Y */
(PID.TID 0000.0001)      nTx =    1 ; /* No. threads in X per process */
(PID.TID 0000.0001)      nTy =    1 ; /* No. threads in Y per process */
(PID.TID 0000.0001)       Nr =   12 ; /* No. levels in the vertical   */
(PID.TID 0000.0001)       Nx =   30 ; /* Total domain size in X ( = nPx*nSx*sNx ) */
(PID.TID 0000.0001)       Ny =   10 ; /* Total domain size in Y ( = nPy*nSy*sNy ) */
(PID.TID 0000.0001)   nTiles =    1 ; /* Total no. tiles per process ( = nSx*nSy ) */
(PID.TID 0000.0001)   nProcs =    1 ; /* Total no. processes ( = nPx*nPy ) */
(PID.TID 0000.0001) nThreads =    1 ; /* Total no. threads per process ( = nTx*nTy ) */
(PID.TID 0000.0001) usingMPI =    F ; /* Flag used to control whether MPI is in use */
(PID.TID 0000.0001)                   /*  note: To execute a program with MPI calls */
(PID.TID 0000.0001)                   /*  it must be launched appropriately e.g     */
(PID.TID 0000.0001)                   /*  "mpirun -np 64 ......"                    */
(PID.TID 0000.0001) useCoupler=   F ; /* Flag used to control communications with   */
(PID.TID 0000.0001)                   /*  other model components, through a coupler */
(PID.TID 0000.0001) useNest2W_parent =    F ;/* Control 2-W Nesting comm */
(PID.TID 0000.0001) useNest2W_child  =    F ;/* Control 2-W Nesting comm */
(PID.TID 0000.0001) debugMode =    F ; /* print debug msg. (sequence of S/R calls)  */
(PID.TID 0000.0001) printMapIncludesZeros=    F ; /* print zeros in Std.Output maps */
(PID.TID 0000.0001) maxLengthPrt1D=   65 /* maxLength of 1D array printed to StdOut */
(PID.TID 0000.0001) 
(PID.TID 0000.0001) // ======================================================
(PID.TID 0000.0001) // Mapping of tiles to threads
(PID.TID 0000.0001) // ======================================================
(PID.TID 0000.0001) // -o- Thread   1, tiles (   1:   1,   1:   1)
(PID.TID 0000.0001) 
(PID.TID 0000.0001) // ======================================================
(PID.TID 0000.0001) // Tile <-> Tile connectvity table
(PID.TID 0000.0001) // ======================================================
(PID.TID 0000.0001) // Tile number: 000001 (process no. = 000000)
(PID.TID 0000.0001) //        WEST: Tile = 000001, Process = 000000, Comm = put
(PID.TID 0000.0001) //                bi = 000001, bj = 000001
(PID.TID 0000.0001) //        EAST: Tile = 000001, Process = 000000, Comm = put
(PID.TID 0000.0001) //                bi = 000001, bj = 000001
(PID.TID 0000.0001) //       SOUTH: Tile = 000001, Process = 000000, Comm = put
(PID.TID 0000.0001) //                bi = 000001, bj = 000001
(PID.TID 0000.0001) //       NORTH: Tile = 000001, Process = 000000, Comm = put
(PID.TID 0000.0001) //                bi = 000001, bj = 000001
(PID.TID 0000.0001) 
(PID.TID 0000.0001)  INI_PARMS: opening model parameter file "data"
(PID.TID 0000.0001)  OPEN_COPY_DATA_FILE: opening file data
(PID.TID 0000.0001) // =======================================================
(PID.TID 0000.0001) // Parameter file "data"
(PID.TID 0000.0001) // =======================================================
(PID.TID 0000.0001) ># ====================
(PID.TID 0000.0001) ># | Model parameters |
(PID.TID 0000.0001) ># ====================
(PID.TID 0000.0001) >
(PID.TID 0000.0001) ># Continuous equation parameters
(PID.TID 0000.0001) > &PARM01
(PID.TID 0000.0001) ># vectorInvariantMomentum=.TRUE.,
(PID.TID 0000.0001) > viscAz=1.00000000e-04,
(PID.TID 0000.0001) > viscAh=1.00000000e-03,
(PID.TID 0000.0001) > viscC2smag=2.20000000e+00,
(PID.TID 0000.0001) > tempAdvScheme=33,
(PID.TID 0000.0001) > saltAdvScheme=33,
(PID.TID 0000.0001) > saltStepping=.TRUE.,
(PID.TID 0000.0001) > staggerTimeStep=.TRUE.,
(PID.TID 0000.0001) > diffKhT=0.00000000e+00,
(PID.TID 0000.0001) > diffKhS=0.00000000e+00,
(PID.TID 0000.0001) > diffKzT=0.00000000e+00,
(PID.TID 0000.0001) > diffKzS=0.00000000e+00,
(PID.TID 0000.0001) > eosType='JMD95Z',
(PID.TID 0000.0001) > Tref=0.00000000e+00, 0.00000000e+00, 0.00000000e+00, 0.00000000e+00, 0.00000000e+00, 0.00000000e+00, 0.00000000e+00, 0.00000000e+00, 0.00000000e+00, 0.00000000e+00,
(PID.TID 0000.0001) >      0.00000000e+00, 0.00000000e+00,
(PID.TID 0000.0001) > Sref=3.40000000e+01, 3.40000000e+01, 3.40000000e+01, 3.40000000e+01, 3.40000000e+01, 3.40000000e+01, 3.40000000e+01, 3.40000000e+01, 3.40000000e+01, 3.40000000e+01,
(PID.TID 0000.0001) >      3.40000000e+01, 3.40000000e+01,
(PID.TID 0000.0001) > no_slip_sides=.FALSE.,
(PID.TID 0000.0001) > no_slip_bottom=.FALSE.,
(PID.TID 0000.0001) > rigidLid=.FALSE.,
(PID.TID 0000.0001) > implicitFreeSurface=.TRUE.,
(PID.TID 0000.0001) > implicitViscosity=.TRUE.,
(PID.TID 0000.0001) > implicitDiffusion=.TRUE.,
(PID.TID 0000.0001) > f0=1.37000000e-04,
(PID.TID 0000.0001) > beta=0.00000000e+00,
(PID.TID 0000.0001) > gravity=9.81000000e+00,
(PID.TID 0000.0001) > hFacMin=5.00000000e-02,
(PID.TID 0000.0001) > nonHydrostatic=.FALSE.,
(PID.TID 0000.0001) > readBinaryPrec=64,
(PID.TID 0000.0001) > useSmag3D=.FALSE.,
(PID.TID 0000.0001) > smag3D_coeff=1.00000000e-04,
(PID.TID 0000.0001) > /
(PID.TID 0000.0001) >
(PID.TID 0000.0001) ># Elliptic solver parameters
(PID.TID 0000.0001) > &PARM02
(PID.TID 0000.0001) > cg2dMaxIters=300,
(PID.TID 0000.0001) > cg2dTargetResidual=1.00000000e-13,
(PID.TID 0000.0001) > cg3dMaxIters=20,
(PID.TID 0000.0001) > cg3dTargetResidual=1.00000000e-08,
(PID.TID 0000.0001) > /
(PID.TID 0000.0001) >
(PID.TID 0000.0001) ># Time stepping parameters
(PID.TID 0000.0001) > &PARM03
(PID.TID 0000.0001) > dumpInitAndLast=.FALSE.,
(PID.TID 0000.0001) > nIter0=0,
(PID.TID 0000.0001) > abEps=1.00000000e-01,
(PID.TID 0000.0001) > chkptFreq=0.00000000e+00,
(PID.TID 0000.0001) > pChkptFreq=8.64000000e+04,
(PID.TID 0000.0001) > taveFreq=0.00000000e+00,
(PID.TID 0000.0001) > dumpFreq=3600,
(PID.TID 0000.0001) > monitorFreq=2.16000000e+04,
(PID.TID 0000.0001) > monitorSelect=1,
(PID.TID 0000.0001) > endTime=864000,
(PID.TID 0000.0001) > deltaT=25,
(PID.TID 0000.0001) > /
(PID.TID 0000.0001) >
(PID.TID 0000.0001) ># Gridding parameters
(PID.TID 0000.0001) > &PARM04
(PID.TID 0000.0001) > usingCartesianGrid=.TRUE.,
(PID.TID 0000.0001) > usingSphericalPolarGrid=.FALSE.,
(PID.TID 0000.0001) > delX=5.00000000e+02, 5.00000000e+02, 5.00000000e+02, 5.00000000e+02, 5.00000000e+02, 5.00000000e+02, 5.00000000e+02, 5.00000000e+02, 5.00000000e+02, 5.00000000e+02,
(PID.TID 0000.0001) >      5.00000000e+02, 5.00000000e+02, 5.00000000e+02, 5.00000000e+02, 5.00000000e+02, 5.00000000e+02, 5.00000000e+02, 5.00000000e+02, 5.00000000e+02, 5.00000000e+02,
(PID.TID 0000.0001) >      5.00000000e+02, 5.00000000e+02, 5.00000000e+02, 5.00000000e+02, 5.00000000e+02, 5.00000000e+02, 5.00000000e+02, 5.00000000e+02, 5.00000000e+02, 5.00000000e+02,
(PID.TID 0000.0001) > delY=5.00000000e+02, 5.00000000e+02, 5.00000000e+02, 5.00000000e+02, 5.00000000e+02, 5.00000000e+02, 5.00000000e+02, 5.00000000e+02, 5.00000000e+02, 5.00000000e+02,
(PID.TID 0000.0001) > delZ=1.25000000e+01, 1.93181818e+01, 2.61363636e+01, 3.29545455e+01, 3.97727273e+01, 4.65909091e+01, 5.34090909e+01, 6.02272727e+01, 6.70454545e+01, 7.38636364e+01,
(PID.TID 0000.0001) >      8.06818182e+01, 8.75000000e+01,
(PID.TID 0000.0001) > /
(PID.TID 0000.0001) >
(PID.TID 0000.0001) ># Input datasets
(PID.TID 0000.0001) > &PARM05
(PID.TID 0000.0001) > bathyFile='bathymetry.bin',
(PID.TID 0000.0001) > hydrogThetaFile='T.init',
(PID.TID 0000.0001) > hydrogSaltFile='S.init',
(PID.TID 0000.0001) > /
(PID.TID 0000.0001) >
(PID.TID 0000.0001) 
(PID.TID 0000.0001)  INI_PARMS ; starts to read PARM01
(PID.TID 0000.0001)  INI_PARMS ; read PARM01 : OK
(PID.TID 0000.0001)  INI_PARMS ; starts to read PARM02
(PID.TID 0000.0001)  INI_PARMS ; read PARM02 : OK
(PID.TID 0000.0001)  INI_PARMS ; starts to read PARM03
(PID.TID 0000.0001)  INI_PARMS ; read PARM03 : OK
(PID.TID 0000.0001)  INI_PARMS ; starts to read PARM04
(PID.TID 0000.0001)  INI_PARMS ; read PARM04 : OK
(PID.TID 0000.0001)  INI_PARMS ; starts to read PARM05
(PID.TID 0000.0001)  INI_PARMS ; read PARM05 : OK
(PID.TID 0000.0001)  INI_PARMS: finished reading file "data"
(PID.TID 0000.0001)  PACKAGES_BOOT: opening data.pkg
(PID.TID 0000.0001)  OPEN_COPY_DATA_FILE: opening file data.pkg
(PID.TID 0000.0001) // =======================================================
(PID.TID 0000.0001) // Parameter file "data.pkg"
(PID.TID 0000.0001) // =======================================================
(PID.TID 0000.0001) ># Packages
(PID.TID 0000.0001) > &PACKAGES
(PID.TID 0000.0001) > useICEBERG=.TRUE.,
(PID.TID 0000.0001) > useDiagnostics=.TRUE.,
(PID.TID 0000.0001) > useOBCS=.TRUE.,
(PID.TID 0000.0001) > /
(PID.TID 0000.0001) 
(PID.TID 0000.0001)  PACKAGES_BOOT: finished reading data.pkg
(PID.TID 0000.0001)  PACKAGES_BOOT: On/Off package Summary
 --------  pkgs with a standard "usePKG" On/Off switch in "data.pkg":  --------
 pkg/obcs                 compiled   and   used ( useOBCS                  = T )
 pkg/kpp                  compiled but not used ( useKPP                   = F )
 pkg/diagnostics          compiled   and   used ( useDiagnostics           = T )
 -------- pkgs without standard "usePKG" On/Off switch in "data.pkg":  --------
 pkg/generic_advdiff      compiled   and   used ( useGAD                   = T )
 pkg/mom_common           compiled   and   used ( momStepping              = T )
 pkg/mom_vecinv           compiled but not used ( +vectorInvariantMomentum = F )
 pkg/mom_fluxform         compiled   and   used ( & not vectorInvariantMom = T )
 pkg/monitor              compiled   and   used ( monitorFreq > 0.         = T )
 pkg/debug                compiled but not used ( debugMode                = F )
 pkg/rw                   compiled   and   used
 pkg/mdsio                compiled   and   used
(PID.TID 0000.0001)  PACKAGES_BOOT: End of package Summary
(PID.TID 0000.0001) 
(PID.TID 0000.0001)  OBCS_READPARMS: opening data.obcs
(PID.TID 0000.0001)  OPEN_COPY_DATA_FILE: opening file data.obcs
(PID.TID 0000.0001) // =======================================================
(PID.TID 0000.0001) // Parameter file "data.obcs"
(PID.TID 0000.0001) // =======================================================
(PID.TID 0000.0001) ># ===================
(PID.TID 0000.0001) ># | OBCS parameters |
(PID.TID 0000.0001) ># ===================
(PID.TID 0000.0001) >
(PID.TID 0000.0001) ># Open boundary types and locations
(PID.TID 0000.0001) > &OBCS_PARM01
(PID.TID 0000.0001) > OB_singleIeast=-1,
(PID.TID 0000.0001) > OB_Jsouth(15:30)=1, 1, 1, 1, 1, 1, 1, 1, 1, 1,
(PID.TID 0000.0001) >      1, 1, 1, 1, 1, 1,
(PID.TID 0000.0001) > OB_Jnorth(15:30)=-1, -1, -1, -1, -1, -1, -1, -1, -1, -1,
(PID.TID 0000.0001) >      -1, -1, -1, -1, -1, -1,
(PID.TID 0000.0001) > useOBCSsponge=.TRUE.,
(PID.TID 0000.0001) > useOBCSprescribe=.TRUE.,
(PID.TID 0000.0001) > OBEsFile='EBCs.bin',
(PID.TID 0000.0001) > OBEtFile='EBCt.bin',
(PID.TID 0000.0001) > OBEvFile='EBCv.bin',
(PID.TID 0000.0001) ># OBEptrFile='EBCptr.bin','EBCptr.bin',
(PID.TID 0000.0001) > OBNsFile='NsBCs.bin',
(PID.TID 0000.0001) > OBNtFile='NsBCt.bin',
(PID.TID 0000.0001) > OBNvFile='NsBCv.bin',
(PID.TID 0000.0001) ># OBNptrFile='NsBCptr.bin','NsBCptr.bin',
(PID.TID 0000.0001) > OBSsFile='NsBCs.bin',
(PID.TID 0000.0001) > OBStFile='NsBCt.bin',
(PID.TID 0000.0001) > OBSvFile='NsBCv.bin',
(PID.TID 0000.0001) ># OBSptrFile='NsBCptr.bin','NsBCptr.bin',
(PID.TID 0000.0001) > /
(PID.TID 0000.0001) >
(PID.TID 0000.0001) ># Orlanski parameters
(PID.TID 0000.0001) > &OBCS_PARM02
(PID.TID 0000.0001) > /
(PID.TID 0000.0001) >
(PID.TID 0000.0001) ># Sponge-layer parameters
(PID.TID 0000.0001) > &OBCS_PARM03
(PID.TID 0000.0001) > spongeThickness=12,
(PID.TID 0000.0001) > Urelaxobcsinner=8.64000000e+04,
(PID.TID 0000.0001) > Urelaxobcsbound=3.60000000e+03,
(PID.TID 0000.0001) > Vrelaxobcsinner=8.64000000e+04,
(PID.TID 0000.0001) > Vrelaxobcsbound=3.60000000e+03,
(PID.TID 0000.0001) > /
(PID.TID 0000.0001) >
(PID.TID 0000.0001) 
(PID.TID 0000.0001)  OBCS_READPARMS: finished reading data.obcs
(PID.TID 0000.0001)  OB_indexUnset = /* unset OB index value (i.e. no OB) */
(PID.TID 0000.0001)                       0
(PID.TID 0000.0001)     ;
(PID.TID 0000.0001)  Northern OB global indices : OB_Jnorth =
(PID.TID 0000.0001)    14 @        0,                           /* I =  1: 14 */
(PID.TID 0000.0001)    16 @       10                            /* I = 15: 30 */
(PID.TID 0000.0001)  Southern OB global indices : OB_Jsouth =
(PID.TID 0000.0001)    14 @        0,                           /* I =  1: 14 */
(PID.TID 0000.0001)    16 @        1                            /* I = 15: 30 */
(PID.TID 0000.0001)  Eastern  OB global indices : OB_Ieast =
(PID.TID 0000.0001)    10 @       30                            /* J =  1: 10 */
(PID.TID 0000.0001)  Western  OB global indices : OB_Iwest =
(PID.TID 0000.0001)    10 @        0                            /* J =  1: 10 */
(PID.TID 0000.0001) 
(PID.TID 0000.0001)  ICEBERG_READPARMS: opening data.iceberg
(PID.TID 0000.0001)  OPEN_COPY_DATA_FILE: opening file data.iceberg
(PID.TID 0000.0001) // =======================================================
(PID.TID 0000.0001) // Parameter file "data.iceberg"
(PID.TID 0000.0001) // =======================================================
(PID.TID 0000.0001) ># ===================================
(PID.TID 0000.0001) ># | Parameters for ICEBERG package |
(PID.TID 0000.0001) ># ===================================
(PID.TID 0000.0001) > &ICEBERG_PARM01
(PID.TID 0000.0001) > ICEBERGopenFracFile = 'openFrac.bin',
(PID.TID 0000.0001) > ICEBERGdriftFile = 'driftMask.bin',
(PID.TID 0000.0001) > ICEBERGbarrierFile = 'barrierMask.bin',
(PID.TID 0000.0001) > ICEBERGmaskFile = 'bergMask.bin',
(PID.TID 0000.0001) > ICEBERGmeltFile = 'meltMask.bin',
(PID.TID 0000.0001) > ICEBERGlengthFile = 'icebergs_length.bin'
(PID.TID 0000.0001) > ICEBERGwidthsFile = 'icebergs_widths.bin'
(PID.TID 0000.0001) > ICEBERGdepthsFile = 'icebergs_depths.bin'
(PID.TID 0000.0001) > ICEBERGmaskNumsFile = 'bergMaskNums.bin',
(PID.TID 0000.0001) > ICEBERGnumPerCellFile = 'numBergsPerCell.bin',
(PID.TID 0000.0001) > ICEBERGareaFile = 'totalBergArea.bin',
(PID.TID 0000.0001) > brg_uMin=0.04,
(PID.TID 0000.0001) > brg_iceTemp=-10,
(PID.TID 0000.0001) > brg_GamT = 0.088,
(PID.TID 0000.0001) > brg_GamS = 0.00248,
(PID.TID 0000.0001) > /
(PID.TID 0000.0001) >
(PID.TID 0000.0001) > &ICEBERG_PARM02
(PID.TID 0000.0001) ># brg_useInputPtracers = 1,
(PID.TID 0000.0001) ># brg_ptracerMaskFile = 'brg_tracerMask.bin',
(PID.TID 0000.0001) > /
(PID.TID 0000.0001) >
(PID.TID 0000.0001) 
(PID.TID 0000.0001)  ICEBERG_READPARMS: finished reading data.iceberg
(PID.TID 0000.0001)  DIAGNOSTICS_READPARMS: opening data.diagnostics
(PID.TID 0000.0001)  OPEN_COPY_DATA_FILE: opening file data.diagnostics
(PID.TID 0000.0001) // =======================================================
(PID.TID 0000.0001) // Parameter file "data.diagnostics"
(PID.TID 0000.0001) // =======================================================
(PID.TID 0000.0001) ># ==========================
(PID.TID 0000.0001) ># | DIAGNOSTICS parameters |
(PID.TID 0000.0001) ># ==========================
(PID.TID 0000.0001) >
(PID.TID 0000.0001) ># Diagnostics package choices
(PID.TID 0000.0001) > &DIAGNOSTICS_LIST
(PID.TID 0000.0001) > diag_mnc=.FALSE.,
(PID.TID 0000.0001) > fields(1:5,1)='THETA','SALT','UVEL','WVEL','VVEL',
(PID.TID 0000.0001) > fileName(1)='dynDiag',
(PID.TID 0000.0001) > frequency(1)=3600,
(PID.TID 0000.0001) > timePhase(1)=0.00000000e+00,
(PID.TID 0000.0001) > fields(1:6,2)='BRGfwFlx','BRGhtFlx','BRGmltRt','BRG_TauX','BRG_TauY','BRGhFacC',
(PID.TID 0000.0001) > fileName(2)='BRGFlx',
(PID.TID 0000.0001) > frequency(2)=3600,
(PID.TID 0000.0001) > timePhase(2)=0.00000000e+00,
(PID.TID 0000.0001) > /
(PID.TID 0000.0001) >
(PID.TID 0000.0001) ># Statistics package choices
(PID.TID 0000.0001) > &DIAG_STATIS_PARMS
(PID.TID 0000.0001) > /
(PID.TID 0000.0001) >
(PID.TID 0000.0001) 
(PID.TID 0000.0001) S/R DIAGNOSTICS_READPARMS, read namelist "diagnostics_list": start
(PID.TID 0000.0001) S/R DIAGNOSTICS_READPARMS, read namelist "diagnostics_list": OK
(PID.TID 0000.0001) S/R DIAGNOSTICS_READPARMS, read namelist "DIAG_STATIS_PARMS": start
(PID.TID 0000.0001) S/R DIAGNOSTICS_READPARMS, read namelist "DIAG_STATIS_PARMS": OK
(PID.TID 0000.0001) -----------------------------------------------------
(PID.TID 0000.0001)  DIAGNOSTICS_READPARMS: global parameter summary:
(PID.TID 0000.0001)  diag_dBugLevel = /* level of printed debug messages */
(PID.TID 0000.0001)                       2
(PID.TID 0000.0001)     ;
(PID.TID 0000.0001)  dumpAtLast = /* always write time-ave diags at the end */
(PID.TID 0000.0001)                   F
(PID.TID 0000.0001)     ;
(PID.TID 0000.0001)  diag_mnc =   /* write NetCDF output files */
(PID.TID 0000.0001)                   F
(PID.TID 0000.0001)     ;
(PID.TID 0000.0001)  useMissingValue = /* put MissingValue where mask = 0 */
(PID.TID 0000.0001)                   F
(PID.TID 0000.0001)     ;
(PID.TID 0000.0001)  diagCG_maxIters = /* max number of iters in diag_cg2d */
(PID.TID 0000.0001)                     300
(PID.TID 0000.0001)     ;
(PID.TID 0000.0001)  diagCG_resTarget = /* residual target for diag_cg2d */
(PID.TID 0000.0001)                 1.000000000000000E-13
(PID.TID 0000.0001)     ;
(PID.TID 0000.0001)  diagCG_pcOffDFac = /* preconditioner off-diagonal factor */
(PID.TID 0000.0001)                 9.611687812379854E-01
(PID.TID 0000.0001)     ;
(PID.TID 0000.0001) -----------------------------------------------------
(PID.TID 0000.0001)  DIAGNOSTICS_READPARMS: active diagnostics summary:
(PID.TID 0000.0001) -----------------------------------------------------
(PID.TID 0000.0001) Creating Output Stream: dynDiag
(PID.TID 0000.0001) Output Frequency:       3600.000000 ; Phase:           0.000000
(PID.TID 0000.0001)  Averaging Freq.:       3600.000000 , Phase:           0.000000 , Cycle:   1
(PID.TID 0000.0001)  missing value: -9.990000000000E+02
(PID.TID 0000.0001)  Levels:    will be set later
(PID.TID 0000.0001)  Fields:    THETA    SALT     UVEL     WVEL     VVEL
(PID.TID 0000.0001) Creating Output Stream: BRGFlx
(PID.TID 0000.0001) Output Frequency:       3600.000000 ; Phase:           0.000000
(PID.TID 0000.0001)  Averaging Freq.:       3600.000000 , Phase:           0.000000 , Cycle:   1
(PID.TID 0000.0001)  missing value: -9.990000000000E+02
(PID.TID 0000.0001)  Levels:    will be set later
(PID.TID 0000.0001)  Fields:    BRGfwFlx BRGhtFlx BRGmltRt BRG_TauX BRG_TauY BRGhFacC
(PID.TID 0000.0001) -----------------------------------------------------
(PID.TID 0000.0001)  DIAGNOSTICS_READPARMS: statistics diags. summary:
(PID.TID 0000.0001) -----------------------------------------------------
(PID.TID 0000.0001) 
(PID.TID 0000.0001) SET_PARMS: done
(PID.TID 0000.0001) Enter INI_VERTICAL_GRID: setInterFDr=    T ; setCenterDr=    F
(PID.TID 0000.0001) %MON XC_max                       =   1.4750000000000E+04
(PID.TID 0000.0001) %MON XC_min                       =   2.5000000000000E+02
(PID.TID 0000.0001) %MON XC_mean                      =   7.5000000000000E+03
(PID.TID 0000.0001) %MON XC_sd                        =   4.3277207241996E+03
(PID.TID 0000.0001) %MON XG_max                       =   1.4500000000000E+04
(PID.TID 0000.0001) %MON XG_min                       =   0.0000000000000E+00
(PID.TID 0000.0001) %MON XG_mean                      =   7.2500000000000E+03
(PID.TID 0000.0001) %MON XG_sd                        =   4.3277207241996E+03
(PID.TID 0000.0001) %MON DXC_max                      =   5.0000000000000E+02
(PID.TID 0000.0001) %MON DXC_min                      =   5.0000000000000E+02
(PID.TID 0000.0001) %MON DXC_mean                     =   5.0000000000000E+02
(PID.TID 0000.0001) %MON DXC_sd                       =   5.6843418860808E-14
(PID.TID 0000.0001) %MON DXF_max                      =   5.0000000000000E+02
(PID.TID 0000.0001) %MON DXF_min                      =   5.0000000000000E+02
(PID.TID 0000.0001) %MON DXF_mean                     =   5.0000000000000E+02
(PID.TID 0000.0001) %MON DXF_sd                       =   5.6843418860808E-14
(PID.TID 0000.0001) %MON DXG_max                      =   5.0000000000000E+02
(PID.TID 0000.0001) %MON DXG_min                      =   5.0000000000000E+02
(PID.TID 0000.0001) %MON DXG_mean                     =   5.0000000000000E+02
(PID.TID 0000.0001) %MON DXG_sd                       =   5.6843418860808E-14
(PID.TID 0000.0001) %MON DXV_max                      =   5.0000000000000E+02
(PID.TID 0000.0001) %MON DXV_min                      =   5.0000000000000E+02
(PID.TID 0000.0001) %MON DXV_mean                     =   5.0000000000000E+02
(PID.TID 0000.0001) %MON DXV_sd                       =   5.6843418860808E-14
(PID.TID 0000.0001) %MON YC_max                       =   4.7500000000000E+03
(PID.TID 0000.0001) %MON YC_min                       =   2.5000000000000E+02
(PID.TID 0000.0001) %MON YC_mean                      =   2.5000000000000E+03
(PID.TID 0000.0001) %MON YC_sd                        =   1.4361406616345E+03
(PID.TID 0000.0001) %MON YG_max                       =   4.5000000000000E+03
(PID.TID 0000.0001) %MON YG_min                       =   0.0000000000000E+00
(PID.TID 0000.0001) %MON YG_mean                      =   2.2500000000000E+03
(PID.TID 0000.0001) %MON YG_sd                        =   1.4361406616345E+03
(PID.TID 0000.0001) %MON DYC_max                      =   5.0000000000000E+02
(PID.TID 0000.0001) %MON DYC_min                      =   5.0000000000000E+02
(PID.TID 0000.0001) %MON DYC_mean                     =   5.0000000000000E+02
(PID.TID 0000.0001) %MON DYC_sd                       =   5.6843418860808E-14
(PID.TID 0000.0001) %MON DYF_max                      =   5.0000000000000E+02
(PID.TID 0000.0001) %MON DYF_min                      =   5.0000000000000E+02
(PID.TID 0000.0001) %MON DYF_mean                     =   5.0000000000000E+02
(PID.TID 0000.0001) %MON DYF_sd                       =   5.6843418860808E-14
(PID.TID 0000.0001) %MON DYG_max                      =   5.0000000000000E+02
(PID.TID 0000.0001) %MON DYG_min                      =   5.0000000000000E+02
(PID.TID 0000.0001) %MON DYG_mean                     =   5.0000000000000E+02
(PID.TID 0000.0001) %MON DYG_sd                       =   5.6843418860808E-14
(PID.TID 0000.0001) %MON DYU_max                      =   5.0000000000000E+02
(PID.TID 0000.0001) %MON DYU_min                      =   5.0000000000000E+02
(PID.TID 0000.0001) %MON DYU_mean                     =   5.0000000000000E+02
(PID.TID 0000.0001) %MON DYU_sd                       =   5.6843418860808E-14
(PID.TID 0000.0001) %MON RA_max                       =   2.5000000000000E+05
(PID.TID 0000.0001) %MON RA_min                       =   2.5000000000000E+05
(PID.TID 0000.0001) %MON RA_mean                      =   2.5000000000000E+05
(PID.TID 0000.0001) %MON RA_sd                        =   2.9103830456734E-11
(PID.TID 0000.0001) %MON RAW_max                      =   2.5000000000000E+05
(PID.TID 0000.0001) %MON RAW_min                      =   2.5000000000000E+05
(PID.TID 0000.0001) %MON RAW_mean                     =   2.5000000000000E+05
(PID.TID 0000.0001) %MON RAW_sd                       =   2.9103830456734E-11
(PID.TID 0000.0001) %MON RAS_max                      =   2.5000000000000E+05
(PID.TID 0000.0001) %MON RAS_min                      =   2.5000000000000E+05
(PID.TID 0000.0001) %MON RAS_mean                     =   2.5000000000000E+05
(PID.TID 0000.0001) %MON RAS_sd                       =   2.9103830456734E-11
(PID.TID 0000.0001) %MON RAZ_max                      =   2.5000000000000E+05
(PID.TID 0000.0001) %MON RAZ_min                      =   2.5000000000000E+05
(PID.TID 0000.0001) %MON RAZ_mean                     =   2.5000000000000E+05
(PID.TID 0000.0001) %MON RAZ_sd                       =   2.9103830456734E-11
(PID.TID 0000.0001) %MON AngleCS_max                  =   1.0000000000000E+00
(PID.TID 0000.0001) %MON AngleCS_min                  =   1.0000000000000E+00
(PID.TID 0000.0001) %MON AngleCS_mean                 =   1.0000000000000E+00
(PID.TID 0000.0001) %MON AngleCS_sd                   =   0.0000000000000E+00
(PID.TID 0000.0001) %MON AngleSN_max                  =   0.0000000000000E+00
(PID.TID 0000.0001) %MON AngleSN_min                  =   0.0000000000000E+00
(PID.TID 0000.0001) %MON AngleSN_mean                 =   0.0000000000000E+00
(PID.TID 0000.0001) %MON AngleSN_sd                   =   0.0000000000000E+00
(PID.TID 0000.0001)  MDS_READ_FIELD: opening global file: bathymetry.bin
(PID.TID 0000.0001) // =======================================================
(PID.TID 0000.0001) // Field Model R_low (ini_masks_etc)
(PID.TID 0000.0001) // CMIN =         -6.000000000000000E+02
(PID.TID 0000.0001) // CMAX =         -6.000000000000000E+02
(PID.TID 0000.0001) // CINT =          0.000000000000000E+00
(PID.TID 0000.0001) // SYMBOLS (CMIN->CMAX): -abcdefghijklmnopqrstuvwxyz+
(PID.TID 0000.0001) //                  0.0: .
(PID.TID 0000.0001) // RANGE I (Lo:Hi:Step):(    -2:    33:     1)
(PID.TID 0000.0001) // RANGE J (Lo:Hi:Step):(    13:    -2:    -1)
(PID.TID 0000.0001) // RANGE K (Lo:Hi:Step):(   1:   1:   1)
(PID.TID 0000.0001) // =======================================================
(PID.TID 0000.0001) // =======================================================
(PID.TID 0000.0001) // END OF FIELD                                          =
(PID.TID 0000.0001) // =======================================================
(PID.TID 0000.0001) 
(PID.TID 0000.0001) // =======================================================
(PID.TID 0000.0001) // Field Model Ro_surf (ini_masks_etc)
(PID.TID 0000.0001) // CMIN =          1.000000000000000E+32
(PID.TID 0000.0001) // CMAX =         -1.000000000000000E+32
(PID.TID 0000.0001) // CINT =          0.000000000000000E+00
(PID.TID 0000.0001) // SYMBOLS (CMIN->CMAX): -abcdefghijklmnopqrstuvwxyz+
(PID.TID 0000.0001) //                  0.0: .
(PID.TID 0000.0001) // RANGE I (Lo:Hi:Step):(    -2:    33:     1)
(PID.TID 0000.0001) // RANGE J (Lo:Hi:Step):(    13:    -2:    -1)
(PID.TID 0000.0001) // RANGE K (Lo:Hi:Step):(   1:   1:   1)
(PID.TID 0000.0001) // =======================================================
(PID.TID 0000.0001) // =======================================================
(PID.TID 0000.0001) // END OF FIELD                                          =
(PID.TID 0000.0001) // =======================================================
(PID.TID 0000.0001) 
(PID.TID 0000.0001) // =======================================================
(PID.TID 0000.0001) // Field hFacC at iteration          0
(PID.TID 0000.0001) // CMIN =          1.000000000000000E+00
(PID.TID 0000.0001) // CMAX =          1.000000000000000E+00
(PID.TID 0000.0001) // CINT =          0.000000000000000E+00
(PID.TID 0000.0001) // SYMBOLS (CMIN->CMAX): -abcdefghijklmnopqrstuvwxyz+
(PID.TID 0000.0001) //                  0.0: .
(PID.TID 0000.0001) // RANGE I (Lo:Hi:Step):(    -2:    33:     1)
(PID.TID 0000.0001) // RANGE J (Lo:Hi:Step):(    13:    -2:    -1)
(PID.TID 0000.0001) // RANGE K (Lo:Hi:Step):(   1:   1:   1)
(PID.TID 0000.0001) // =======================================================
(PID.TID 0000.0001) // =======================================================
(PID.TID 0000.0001) // END OF FIELD                                          =
(PID.TID 0000.0001) // =======================================================
(PID.TID 0000.0001) 
(PID.TID 0000.0001) // =======================================================
(PID.TID 0000.0001) // Field hFacW at iteration          0
(PID.TID 0000.0001) // CMIN =          1.000000000000000E+00
(PID.TID 0000.0001) // CMAX =          1.000000000000000E+00
(PID.TID 0000.0001) // CINT =          0.000000000000000E+00
(PID.TID 0000.0001) // SYMBOLS (CMIN->CMAX): -abcdefghijklmnopqrstuvwxyz+
(PID.TID 0000.0001) //                  0.0: .
(PID.TID 0000.0001) // RANGE I (Lo:Hi:Step):(    -2:    33:     1)
(PID.TID 0000.0001) // RANGE J (Lo:Hi:Step):(    13:    -2:    -1)
(PID.TID 0000.0001) // RANGE K (Lo:Hi:Step):(   1:   1:   1)
(PID.TID 0000.0001) // =======================================================
(PID.TID 0000.0001) // =======================================================
(PID.TID 0000.0001) // END OF FIELD                                          =
(PID.TID 0000.0001) // =======================================================
(PID.TID 0000.0001) 
(PID.TID 0000.0001) // =======================================================
(PID.TID 0000.0001) // Field hFacS at iteration          0
(PID.TID 0000.0001) // CMIN =          1.000000000000000E+00
(PID.TID 0000.0001) // CMAX =          1.000000000000000E+00
(PID.TID 0000.0001) // CINT =          0.000000000000000E+00
(PID.TID 0000.0001) // SYMBOLS (CMIN->CMAX): -abcdefghijklmnopqrstuvwxyz+
(PID.TID 0000.0001) //                  0.0: .
(PID.TID 0000.0001) // RANGE I (Lo:Hi:Step):(    -2:    33:     1)
(PID.TID 0000.0001) // RANGE J (Lo:Hi:Step):(    13:    -2:    -1)
(PID.TID 0000.0001) // RANGE K (Lo:Hi:Step):(   1:   1:   1)
(PID.TID 0000.0001) // =======================================================
(PID.TID 0000.0001) // =======================================================
(PID.TID 0000.0001) // END OF FIELD                                          =
(PID.TID 0000.0001) // =======================================================
(PID.TID 0000.0001) 
(PID.TID 0000.0001) GAD_INIT_FIXED: GAD_OlMinSize=  2  0  1
(PID.TID 0000.0001) 
(PID.TID 0000.0001) // ===================================
(PID.TID 0000.0001) // GAD parameters :
(PID.TID 0000.0001) // ===================================
(PID.TID 0000.0001) tempAdvScheme =   /* Temp. Horiz.Advection scheme selector */
(PID.TID 0000.0001)                      33
(PID.TID 0000.0001)     ;
(PID.TID 0000.0001) tempVertAdvScheme =   /* Temp. Vert. Advection scheme selector */
(PID.TID 0000.0001)                      33
(PID.TID 0000.0001)     ;
(PID.TID 0000.0001) tempMultiDimAdvec =   /* use Muti-Dim Advec method for Temp */
(PID.TID 0000.0001)                   T
(PID.TID 0000.0001)     ;
(PID.TID 0000.0001) tempSOM_Advection = /* use 2nd Order Moment Advection for Temp */
(PID.TID 0000.0001)                   F
(PID.TID 0000.0001)     ;
(PID.TID 0000.0001) AdamsBashforthGt = /* apply Adams-Bashforth extrapolation on Gt */
(PID.TID 0000.0001)                   F
(PID.TID 0000.0001)     ;
(PID.TID 0000.0001) AdamsBashforth_T = /* apply Adams-Bashforth extrapolation on Temp */
(PID.TID 0000.0001)                   F
(PID.TID 0000.0001)     ;
(PID.TID 0000.0001) saltAdvScheme =   /* Salt. Horiz.advection scheme selector */
(PID.TID 0000.0001)                      33
(PID.TID 0000.0001)     ;
(PID.TID 0000.0001) saltVertAdvScheme =   /* Salt. Vert. Advection scheme selector */
(PID.TID 0000.0001)                      33
(PID.TID 0000.0001)     ;
(PID.TID 0000.0001) saltMultiDimAdvec =   /* use Muti-Dim Advec method for Salt */
(PID.TID 0000.0001)                   T
(PID.TID 0000.0001)     ;
(PID.TID 0000.0001) saltSOM_Advection = /* use 2nd Order Moment Advection for Salt */
(PID.TID 0000.0001)                   F
(PID.TID 0000.0001)     ;
(PID.TID 0000.0001) AdamsBashforthGs = /* apply Adams-Bashforth extrapolation on Gs */
(PID.TID 0000.0001)                   F
(PID.TID 0000.0001)     ;
(PID.TID 0000.0001) AdamsBashforth_S = /* apply Adams-Bashforth extrapolation on Salt */
(PID.TID 0000.0001)                   F
(PID.TID 0000.0001)     ;
(PID.TID 0000.0001) // ===================================
(PID.TID 0000.0001)  MDS_READ_FIELD: opening global file: bergMask.bin
(PID.TID 0000.0001)  MDS_READ_FIELD: opening global file: bergMaskNums.bin
(PID.TID 0000.0001)  MDS_READ_FIELD: opening global file: numBergsPerCell.bin
(PID.TID 0000.0001)  MDS_READ_FIELD: opening global file: meltMask.bin
(PID.TID 0000.0001)  MDS_READ_FIELD: opening global file: driftMask.bin
(PID.TID 0000.0001)  MDS_READ_FIELD: opening global file: barrierMask.bin
(PID.TID 0000.0001)  MDS_READ_FIELD: opening global file: totalBergArea.bin
(PID.TID 0000.0001)  MDS_READ_FIELD: opening global file: icebergs_length.bin
(PID.TID 0000.0001)  MDS_READ_FIELD: opening global file: icebergs_widths.bin
(PID.TID 0000.0001)  MDS_READ_FIELD: opening global file: icebergs_depths.bin
(PID.TID 0000.0001)  MDS_READ_FIELD: opening global file: openFrac.bin
(PID.TID 0000.0001) ------------------------------------------------------------
(PID.TID 0000.0001) DIAGNOSTICS_SET_LEVELS: done
(PID.TID 0000.0001)  Total Nb of available Diagnostics: ndiagt=   203
(PID.TID 0000.0001)  write list of available Diagnostics to file: available_diagnostics.log
(PID.TID 0000.0001) SETDIAG: Allocate 12 x  1 Levels for Diagnostic #    26 THETA
(PID.TID 0000.0001) SETDIAG: Allocate 12 x  1 Levels for Diagnostic #    27 SALT
(PID.TID 0000.0001) SETDIAG: Allocate 12 x  1 Levels for Diagnostic #    30 UVEL
(PID.TID 0000.0001) SETDIAG: Allocate 12 x  1 Levels for Diagnostic #    32 WVEL
(PID.TID 0000.0001) SETDIAG: Allocate 12 x  1 Levels for Diagnostic #    31 VVEL
(PID.TID 0000.0001) SETDIAG: Allocate 12 x  1 Levels for Diagnostic #   197 BRGfwFlx
(PID.TID 0000.0001) SETDIAG: Allocate 12 x  1 Levels for Diagnostic #   198 BRGhtFlx
(PID.TID 0000.0001) SETDIAG: Allocate 12 x  1 Levels for Diagnostic #   199 BRGmltRt
(PID.TID 0000.0001) SETDIAG: Allocate 12 x  1 Levels for Diagnostic #   201 BRG_TauX
(PID.TID 0000.0001) SETDIAG: Allocate 12 x  1 Levels for Diagnostic #   202 BRG_TauY
(PID.TID 0000.0001) SETDIAG: Allocate 12 x  1 Levels for Diagnostic #   203 BRGhFacC
(PID.TID 0000.0001)   space allocated for all diagnostics:     132 levels
(PID.TID 0000.0001)   set mate pointer for diag #    30  UVEL     , Parms: UUR     MR , mate:    31
(PID.TID 0000.0001)   set mate pointer for diag #    31  VVEL     , Parms: VVR     MR , mate:    30
(PID.TID 0000.0001) DIAGNOSTICS_SET_POINTERS: Set levels for Outp.Stream: dynDiag
(PID.TID 0000.0001)  Levels:       1.   2.   3.   4.   5.   6.   7.   8.   9.  10.  11.  12.
(PID.TID 0000.0001) DIAGNOSTICS_SET_POINTERS: Set levels for Outp.Stream: BRGFlx
(PID.TID 0000.0001)  Levels:       1.   2.   3.   4.   5.   6.   7.   8.   9.  10.  11.  12.
(PID.TID 0000.0001) DIAGNOSTICS_SET_POINTERS: done, use     132 levels (numDiags =     240 )
(PID.TID 0000.0001) ------------------------------------------------------------
(PID.TID 0000.0001) DIAGSTATS_SET_REGIONS: define no region
(PID.TID 0000.0001) ------------------------------------------------------------
(PID.TID 0000.0001)   space allocated for all stats-diags:       0 levels
(PID.TID 0000.0001) DIAGSTATS_SET_POINTERS: done, use       0 levels (diagSt_size=     108 )
(PID.TID 0000.0001) ------------------------------------------------------------
(PID.TID 0000.0001) %MON fCori_max                    =   1.3700000000000E-04
(PID.TID 0000.0001) %MON fCori_min                    =   1.3700000000000E-04
(PID.TID 0000.0001) %MON fCori_mean                   =   1.3700000000000E-04
(PID.TID 0000.0001) %MON fCori_sd                     =   2.4394548880924E-19
(PID.TID 0000.0001) %MON fCoriG_max                   =   1.3700000000000E-04
(PID.TID 0000.0001) %MON fCoriG_min                   =   1.3700000000000E-04
(PID.TID 0000.0001) %MON fCoriG_mean                  =   1.3700000000000E-04
(PID.TID 0000.0001) %MON fCoriG_sd                    =   2.4394548880924E-19
(PID.TID 0000.0001) %MON fCoriCos_max                 =   0.0000000000000E+00
(PID.TID 0000.0001) %MON fCoriCos_min                 =   0.0000000000000E+00
(PID.TID 0000.0001) %MON fCoriCos_mean                =   0.0000000000000E+00
(PID.TID 0000.0001) %MON fCoriCos_sd                  =   0.0000000000000E+00
(PID.TID 0000.0001) INI_CG2D: CG2D normalisation factor =  1.6666666666666668E-03
(PID.TID 0000.0001) 
(PID.TID 0000.0001) // =======================================================
(PID.TID 0000.0001) // Model configuration
(PID.TID 0000.0001) // =======================================================
(PID.TID 0000.0001) //
(PID.TID 0000.0001) // "Physical" paramters ( PARM01 in namelist )
(PID.TID 0000.0001) //
(PID.TID 0000.0001) buoyancyRelation = /* Type of relation to get Buoyancy */
(PID.TID 0000.0001)               'OCEANIC'
(PID.TID 0000.0001)     ;
(PID.TID 0000.0001) fluidIsAir   =  /* fluid major constituent is Air */
(PID.TID 0000.0001)                   F
(PID.TID 0000.0001)     ;
(PID.TID 0000.0001) fluidIsWater =  /* fluid major constituent is Water */
(PID.TID 0000.0001)                   T
(PID.TID 0000.0001)     ;
(PID.TID 0000.0001) usingPCoords =  /* use p (or p*) vertical coordinate */
(PID.TID 0000.0001)                   F
(PID.TID 0000.0001)     ;
(PID.TID 0000.0001) usingZCoords =  /* use z (or z*) vertical coordinate */
(PID.TID 0000.0001)                   T
(PID.TID 0000.0001)     ;
(PID.TID 0000.0001) tRef =   /* Reference temperature profile ( oC or K ) */
(PID.TID 0000.0001)    12 @  0.000000000000000E+00              /* K =  1: 12 */
(PID.TID 0000.0001)     ;
(PID.TID 0000.0001) sRef =   /* Reference salinity profile ( g/kg ) */
(PID.TID 0000.0001)    12 @  3.400000000000000E+01              /* K =  1: 12 */
(PID.TID 0000.0001)     ;
(PID.TID 0000.0001) rhoRef =   /* Density vertical profile from (Ref,sRef)( kg/m^3 ) */
(PID.TID 0000.0001)                 1.027328181297422E+03,      /* K =  1 */
(PID.TID 0000.0001)                 1.027402599253516E+03,      /* K =  2 */
(PID.TID 0000.0001)                 1.027508864902045E+03,      /* K =  3 */
(PID.TID 0000.0001)                 1.027646929866773E+03,      /* K =  4 */
(PID.TID 0000.0001)                 1.027816731303339E+03,      /* K =  5 */
(PID.TID 0000.0001)                 1.028018191934517E+03,      /* K =  6 */
(PID.TID 0000.0001)                 1.028251220094088E+03,      /* K =  7 */
(PID.TID 0000.0001)                 1.028515709778149E+03,      /* K =  8 */
(PID.TID 0000.0001)                 1.028811540704808E+03,      /* K =  9 */
(PID.TID 0000.0001)                 1.029138578382249E+03,      /* K = 10 */
(PID.TID 0000.0001)                 1.029496674184260E+03,      /* K = 11 */
(PID.TID 0000.0001)                 1.029885665434372E+03       /* K = 12 */
(PID.TID 0000.0001)     ;
(PID.TID 0000.0001) dBdrRef = /* Vertical grad. of reference buoyancy [(m/s/r)^2] */
(PID.TID 0000.0001)    12 @  0.000000000000000E+00              /* K =  1: 12 */
(PID.TID 0000.0001)     ;
(PID.TID 0000.0001) useStrainTensionVisc= /* Use StrainTension Form of Viscous Operator */
(PID.TID 0000.0001)                   F
(PID.TID 0000.0001)     ;
(PID.TID 0000.0001) useVariableVisc = /* Use variable horizontal viscosity */
(PID.TID 0000.0001)                   T
(PID.TID 0000.0001)     ;
(PID.TID 0000.0001) useHarmonicVisc = /* Use harmonic horizontal viscosity */
(PID.TID 0000.0001)                   T
(PID.TID 0000.0001)     ;
(PID.TID 0000.0001) useBiharmonicVisc= /* Use biharmonic horiz.  viscosity */
(PID.TID 0000.0001)                   F
(PID.TID 0000.0001)     ;
(PID.TID 0000.0001) useSmag3D = /* Use isotropic 3-D Smagorinsky viscosity */
(PID.TID 0000.0001)                   F
(PID.TID 0000.0001)     ;
(PID.TID 0000.0001) viscAh  =   /* Lateral harmonic viscosity ( m^2/s ) */
(PID.TID 0000.0001)                 1.000000000000000E-03
(PID.TID 0000.0001)     ;
(PID.TID 0000.0001) viscAhMax = /* Maximum lateral harmonic viscosity ( m^2/s ) */
(PID.TID 0000.0001)                 1.000000000000000E+21
(PID.TID 0000.0001)     ;
(PID.TID 0000.0001) viscAhGrid = /* Grid dependent lateral harmonic viscosity ( non-dim. ) */
(PID.TID 0000.0001)                 0.000000000000000E+00
(PID.TID 0000.0001)     ;
(PID.TID 0000.0001) useFullLeith = /* Use Full Form of Leith Viscosity on/off flag*/
(PID.TID 0000.0001)                   F
(PID.TID 0000.0001)     ;
(PID.TID 0000.0001) useAreaViscLength = /* Use area for visc length instead of geom. mean*/
(PID.TID 0000.0001)                   F
(PID.TID 0000.0001)     ;
(PID.TID 0000.0001) viscC2leith = /* Leith harmonic visc. factor (on grad(vort),non-dim.) */
(PID.TID 0000.0001)                 0.000000000000000E+00
(PID.TID 0000.0001)     ;
(PID.TID 0000.0001) viscC2leithD = /* Leith harmonic viscosity factor (on grad(div),non-dim.)*/
(PID.TID 0000.0001)                 0.000000000000000E+00
(PID.TID 0000.0001)     ;
(PID.TID 0000.0001) viscC2LeithQG = /* QG Leith harmonic viscosity factor (non-dim.)*/
(PID.TID 0000.0001)                 0.000000000000000E+00
(PID.TID 0000.0001)     ;
(PID.TID 0000.0001) viscC2smag = /* Smagorinsky harmonic viscosity factor (non-dim.) */
(PID.TID 0000.0001)                 2.200000000000000E+00
(PID.TID 0000.0001)     ;
(PID.TID 0000.0001) viscA4  =   /* Lateral biharmonic viscosity ( m^4/s ) */
(PID.TID 0000.0001)                 0.000000000000000E+00
(PID.TID 0000.0001)     ;
(PID.TID 0000.0001) viscA4Max = /* Maximum biharmonic viscosity ( m^2/s ) */
(PID.TID 0000.0001)                 1.000000000000000E+21
(PID.TID 0000.0001)     ;
(PID.TID 0000.0001) viscA4Grid = /* Grid dependent biharmonic viscosity ( non-dim. ) */
(PID.TID 0000.0001)                 0.000000000000000E+00
(PID.TID 0000.0001)     ;
(PID.TID 0000.0001) viscC4leith = /* Leith biharm viscosity factor (on grad(vort), non-dim.)*/
(PID.TID 0000.0001)                 0.000000000000000E+00
(PID.TID 0000.0001)     ;
(PID.TID 0000.0001) viscC4leithD = /* Leith biharm viscosity factor (on grad(div), non-dim.) */
(PID.TID 0000.0001)                 0.000000000000000E+00
(PID.TID 0000.0001)     ;
(PID.TID 0000.0001) viscC4Smag = /* Smagorinsky biharm viscosity factor (non-dim) */
(PID.TID 0000.0001)                 0.000000000000000E+00
(PID.TID 0000.0001)     ;
(PID.TID 0000.0001) no_slip_sides =  /* Viscous BCs: No-slip sides */
(PID.TID 0000.0001)                   F
(PID.TID 0000.0001)     ;
(PID.TID 0000.0001) sideDragFactor = /* side-drag scaling factor (non-dim) */
(PID.TID 0000.0001)                 2.000000000000000E+00
(PID.TID 0000.0001)     ;
(PID.TID 0000.0001) viscArNr = /* vertical profile of vertical viscosity ( m^2/s )*/
(PID.TID 0000.0001)    12 @  1.000000000000000E-04              /* K =  1: 12 */
(PID.TID 0000.0001)     ;
(PID.TID 0000.0001) no_slip_bottom =  /* Viscous BCs: No-slip bottom */
(PID.TID 0000.0001)                   F
(PID.TID 0000.0001)     ;
(PID.TID 0000.0001) bottomVisc_pCell = /* Partial-cell in bottom Visc. BC */
(PID.TID 0000.0001)                   F
(PID.TID 0000.0001)     ;
(PID.TID 0000.0001) bottomDragLinear = /* linear bottom-drag coefficient ( m/s ) */
(PID.TID 0000.0001)                 0.000000000000000E+00
(PID.TID 0000.0001)     ;
(PID.TID 0000.0001) bottomDragQuadratic = /* quadratic bottom-drag coefficient (-) */
(PID.TID 0000.0001)                 0.000000000000000E+00
(PID.TID 0000.0001)     ;
(PID.TID 0000.0001) selectBotDragQuadr = /* select quadratic bottom drag options */
(PID.TID 0000.0001)                      -1
(PID.TID 0000.0001)     ;
(PID.TID 0000.0001) diffKhT =   /* Laplacian diffusion of heat laterally ( m^2/s ) */
(PID.TID 0000.0001)                 0.000000000000000E+00
(PID.TID 0000.0001)     ;
(PID.TID 0000.0001) diffK4T =   /* Biharmonic diffusion of heat laterally ( m^4/s ) */
(PID.TID 0000.0001)                 0.000000000000000E+00
(PID.TID 0000.0001)     ;
(PID.TID 0000.0001) diffKhS =   /* Laplacian diffusion of salt laterally ( m^2/s ) */
(PID.TID 0000.0001)                 0.000000000000000E+00
(PID.TID 0000.0001)     ;
(PID.TID 0000.0001) diffK4S =   /* Biharmonic diffusion of salt laterally ( m^4/s ) */
(PID.TID 0000.0001)                 0.000000000000000E+00
(PID.TID 0000.0001)     ;
(PID.TID 0000.0001) diffKrNrT = /* vertical profile of vertical diffusion of Temp ( m^2/s )*/
(PID.TID 0000.0001)    12 @  0.000000000000000E+00              /* K =  1: 12 */
(PID.TID 0000.0001)     ;
(PID.TID 0000.0001) diffKrNrS = /* vertical profile of vertical diffusion of Salt ( m^2/s )*/
(PID.TID 0000.0001)    12 @  0.000000000000000E+00              /* K =  1: 12 */
(PID.TID 0000.0001)     ;
(PID.TID 0000.0001) diffKrBL79surf = /* Surface diffusion for Bryan and Lewis 79 ( m^2/s ) */
(PID.TID 0000.0001)                 0.000000000000000E+00
(PID.TID 0000.0001)     ;
(PID.TID 0000.0001) diffKrBL79deep = /* Deep diffusion for Bryan and Lewis 1979 ( m^2/s ) */
(PID.TID 0000.0001)                 0.000000000000000E+00
(PID.TID 0000.0001)     ;
(PID.TID 0000.0001) diffKrBL79scl = /* Depth scale for Bryan and Lewis 1979 ( m ) */
(PID.TID 0000.0001)                 2.000000000000000E+02
(PID.TID 0000.0001)     ;
(PID.TID 0000.0001) diffKrBL79Ho = /* Turning depth for Bryan and Lewis 1979 ( m ) */
(PID.TID 0000.0001)                -2.000000000000000E+03
(PID.TID 0000.0001)     ;
(PID.TID 0000.0001) ivdc_kappa = /* Implicit Vertical Diffusivity for Convection ( m^2/s) */
(PID.TID 0000.0001)                 0.000000000000000E+00
(PID.TID 0000.0001)     ;
(PID.TID 0000.0001) hMixCriteria=  /* Criteria for mixed-layer diagnostic */
(PID.TID 0000.0001)                -8.000000000000000E-01
(PID.TID 0000.0001)     ;
(PID.TID 0000.0001) dRhoSmall =  /* Parameter for mixed-layer diagnostic */
(PID.TID 0000.0001)                 1.000000000000000E-06
(PID.TID 0000.0001)     ;
(PID.TID 0000.0001) hMixSmooth=  /* Smoothing parameter for mixed-layer diagnostic */
(PID.TID 0000.0001)                 0.000000000000000E+00
(PID.TID 0000.0001)     ;
(PID.TID 0000.0001) eosType =  /* Type of Equation of State */
(PID.TID 0000.0001)               'JMD95Z'
(PID.TID 0000.0001)     ;
(PID.TID 0000.0001) eosRefP0 = /* Reference atmospheric pressure for EOS ( Pa ) */
(PID.TID 0000.0001)                 1.013250000000000E+05
(PID.TID 0000.0001)     ;
(PID.TID 0000.0001) selectP_inEOS_Zc = /* select pressure to use in EOS (0,1,2,3) */
(PID.TID 0000.0001)                       0
(PID.TID 0000.0001)     0= -g*rhoConst*z ; 1= pRef (from tRef,sRef); 2= Hyd P ; 3= Hyd+NH P
(PID.TID 0000.0001)     ;
(PID.TID 0000.0001) surf_pRef = /* Surface reference pressure ( Pa ) */
(PID.TID 0000.0001)                 1.013250000000000E+05
(PID.TID 0000.0001)     ;
(PID.TID 0000.0001) HeatCapacity_Cp =  /* Specific heat capacity ( J/kg/K ) */
(PID.TID 0000.0001)                 3.994000000000000E+03
(PID.TID 0000.0001)     ;
(PID.TID 0000.0001) celsius2K = /* 0 degree Celsius converted to Kelvin ( K ) */
(PID.TID 0000.0001)                 2.731500000000000E+02
(PID.TID 0000.0001)     ;
(PID.TID 0000.0001) rhoConst  = /* Reference density (Boussinesq)  ( kg/m^3 ) */
(PID.TID 0000.0001)                 9.998000000000000E+02
(PID.TID 0000.0001)     ;
(PID.TID 0000.0001) rhoFacC = /* normalized Reference density @ cell-Center (-) */
(PID.TID 0000.0001)    12 @  1.000000000000000E+00              /* K =  1: 12 */
(PID.TID 0000.0001)     ;
(PID.TID 0000.0001) rhoFacF = /* normalized Reference density @ W-Interface (-) */
(PID.TID 0000.0001)    13 @  1.000000000000000E+00              /* K =  1: 13 */
(PID.TID 0000.0001)     ;
(PID.TID 0000.0001) rhoConstFresh = /* Fresh-water reference density ( kg/m^3 ) */
(PID.TID 0000.0001)                 9.998000000000000E+02
(PID.TID 0000.0001)     ;
(PID.TID 0000.0001) gravity =   /* Gravitational acceleration ( m/s^2 ) */
(PID.TID 0000.0001)                 9.810000000000000E+00
(PID.TID 0000.0001)     ;
(PID.TID 0000.0001) gBaro =   /* Barotropic gravity ( m/s^2 ) */
(PID.TID 0000.0001)                 9.810000000000000E+00
(PID.TID 0000.0001)     ;
(PID.TID 0000.0001) gravFacC = /* gravity factor (vs surf.) @ cell-Center (-) */
(PID.TID 0000.0001)    12 @  1.000000000000000E+00              /* K =  1: 12 */
(PID.TID 0000.0001)     ;
(PID.TID 0000.0001) gravFacF = /* gravity factor (vs surf.) @ W-Interface (-) */
(PID.TID 0000.0001)    13 @  1.000000000000000E+00              /* K =  1: 13 */
(PID.TID 0000.0001)     ;
(PID.TID 0000.0001) rotationPeriod =   /* Rotation Period ( s ) */
(PID.TID 0000.0001)                 8.616400000000000E+04
(PID.TID 0000.0001)     ;
(PID.TID 0000.0001) omega =   /* Angular velocity ( rad/s ) */
(PID.TID 0000.0001)                 7.292123516990375E-05
(PID.TID 0000.0001)     ;
(PID.TID 0000.0001) f0 =   /* Reference coriolis parameter ( 1/s ) */
(PID.TID 0000.0001)                 1.370000000000000E-04
(PID.TID 0000.0001)     ;
(PID.TID 0000.0001) beta =   /* Beta ( 1/(m.s) ) */
(PID.TID 0000.0001)                 0.000000000000000E+00
(PID.TID 0000.0001)     ;
(PID.TID 0000.0001) fPrime =   /* Second coriolis parameter ( 1/s ) */
(PID.TID 0000.0001)                 0.000000000000000E+00
(PID.TID 0000.0001)     ;
(PID.TID 0000.0001) rigidLid =   /* Rigid lid on/off flag */
(PID.TID 0000.0001)                   F
(PID.TID 0000.0001)     ;
(PID.TID 0000.0001) implicitFreeSurface =   /* Implicit free surface on/off flag */
(PID.TID 0000.0001)                   T
(PID.TID 0000.0001)     ;
(PID.TID 0000.0001) freeSurfFac =   /* Implicit free surface factor */
(PID.TID 0000.0001)                 1.000000000000000E+00
(PID.TID 0000.0001)     ;
(PID.TID 0000.0001) implicSurfPress =  /* Surface Pressure implicit factor (0-1) */
(PID.TID 0000.0001)                 1.000000000000000E+00
(PID.TID 0000.0001)     ;
(PID.TID 0000.0001) implicDiv2DFlow =  /* Barot. Flow Div. implicit factor (0-1) */
(PID.TID 0000.0001)                 1.000000000000000E+00
(PID.TID 0000.0001)     ;
(PID.TID 0000.0001) uniformLin_PhiSurf = /* use uniform Bo_surf on/off flag */
(PID.TID 0000.0001)                   T
(PID.TID 0000.0001)     ;
(PID.TID 0000.0001) uniformFreeSurfLev = /* free-surface level-index is uniform */
(PID.TID 0000.0001)                   T
(PID.TID 0000.0001)     ;
(PID.TID 0000.0001) sIceLoadFac =  /* scale factor for sIceLoad (0-1) */
(PID.TID 0000.0001)                 1.000000000000000E+00
(PID.TID 0000.0001)     ;
(PID.TID 0000.0001) hFacMin =   /* minimum partial cell factor (hFac) */
(PID.TID 0000.0001)                 5.000000000000000E-02
(PID.TID 0000.0001)     ;
(PID.TID 0000.0001) hFacMinDr = /* minimum partial cell thickness ( m) */
(PID.TID 0000.0001)                 0.000000000000000E+00
(PID.TID 0000.0001)     ;
(PID.TID 0000.0001) exactConserv = /* Update etaN from continuity Eq on/off flag */
(PID.TID 0000.0001)                   F
(PID.TID 0000.0001)     ;
(PID.TID 0000.0001) linFSConserveTr = /* Tracer correction for Lin Free Surface on/off flag */
(PID.TID 0000.0001)                   F
(PID.TID 0000.0001)     ;
(PID.TID 0000.0001) nonlinFreeSurf = /* Non-linear Free Surf. options (-1,0,1,2,3)*/
(PID.TID 0000.0001)                       0
(PID.TID 0000.0001)      -1,0= Off ; 1,2,3= On, 2=+rescale gU,gV, 3=+update cg2d solv.
(PID.TID 0000.0001)     ;
(PID.TID 0000.0001) hFacInf =   /* lower threshold for hFac (nonlinFreeSurf only)*/
(PID.TID 0000.0001)                 2.000000000000000E-01
(PID.TID 0000.0001)     ;
(PID.TID 0000.0001) hFacSup =   /* upper threshold for hFac (nonlinFreeSurf only)*/
(PID.TID 0000.0001)                 2.000000000000000E+00
(PID.TID 0000.0001)     ;
(PID.TID 0000.0001) select_rStar = /* r* Vertical coord. options (=0 r coord.; >0 uses r*)*/
(PID.TID 0000.0001)                       0
(PID.TID 0000.0001)     ;
(PID.TID 0000.0001) useRealFreshWaterFlux = /* Real Fresh Water Flux on/off flag*/
(PID.TID 0000.0001)                   F
(PID.TID 0000.0001)     ;
(PID.TID 0000.0001) temp_EvPrRn = /* Temp. of Evap/Prec/R (UNSET=use local T)(oC)*/
(PID.TID 0000.0001)                 1.234567000000000E+05
(PID.TID 0000.0001)     ;
(PID.TID 0000.0001) salt_EvPrRn = /* Salin. of Evap/Prec/R (UNSET=use local S)(g/kg)*/
(PID.TID 0000.0001)                 0.000000000000000E+00
(PID.TID 0000.0001)     ;
(PID.TID 0000.0001) selectAddFluid = /* option for mass source/sink of fluid (=0: off) */
(PID.TID 0000.0001)                       0
(PID.TID 0000.0001)     ;
(PID.TID 0000.0001) temp_addMass = /* Temp. of addMass array (UNSET=use local T)(oC)*/
(PID.TID 0000.0001)                 1.234567000000000E+05
(PID.TID 0000.0001)     ;
(PID.TID 0000.0001) salt_addMass = /* Salin. of addMass array (UNSET=use local S)(g/kg)*/
(PID.TID 0000.0001)                 0.000000000000000E+00
(PID.TID 0000.0001)     ;
(PID.TID 0000.0001) convertFW2Salt = /* convert F.W. Flux to Salt Flux (-1=use local S)(g/kg)*/
(PID.TID 0000.0001)                 3.500000000000000E+01
(PID.TID 0000.0001)     ;
(PID.TID 0000.0001) use3Dsolver = /* use 3-D pressure solver on/off flag */
(PID.TID 0000.0001)                   F
(PID.TID 0000.0001)     ;
(PID.TID 0000.0001) nonHydrostatic =  /* Non-Hydrostatic on/off flag */
(PID.TID 0000.0001)                   F
(PID.TID 0000.0001)     ;
(PID.TID 0000.0001) nh_Am2 = /* Non-Hydrostatic terms scaling factor */
(PID.TID 0000.0001)                 1.000000000000000E+00
(PID.TID 0000.0001)     ;
(PID.TID 0000.0001) implicitNHPress = /* Non-Hyd Pressure implicit factor (0-1)*/
(PID.TID 0000.0001)                 1.000000000000000E+00
(PID.TID 0000.0001)     ;
(PID.TID 0000.0001) selectNHfreeSurf = /* Non-Hyd (free-)Surface option */
(PID.TID 0000.0001)                       0
(PID.TID 0000.0001)     ;
(PID.TID 0000.0001) quasiHydrostatic = /* Quasi-Hydrostatic on/off flag */
(PID.TID 0000.0001)                   F
(PID.TID 0000.0001)     ;
(PID.TID 0000.0001) calc_wVelocity = /* vertical velocity calculation on/off flag */
(PID.TID 0000.0001)                   T
(PID.TID 0000.0001)     ;
(PID.TID 0000.0001) momStepping =  /* Momentum equation on/off flag */
(PID.TID 0000.0001)                   T
(PID.TID 0000.0001)     ;
(PID.TID 0000.0001) vectorInvariantMomentum= /* Vector-Invariant Momentum on/off */
(PID.TID 0000.0001)                   F
(PID.TID 0000.0001)     ;
(PID.TID 0000.0001) momAdvection =  /* Momentum advection on/off flag */
(PID.TID 0000.0001)                   T
(PID.TID 0000.0001)     ;
(PID.TID 0000.0001) momViscosity =  /* Momentum viscosity on/off flag */
(PID.TID 0000.0001)                   T
(PID.TID 0000.0001)     ;
(PID.TID 0000.0001) momImplVertAdv= /* Momentum implicit vert. advection on/off*/
(PID.TID 0000.0001)                   F
(PID.TID 0000.0001)     ;
(PID.TID 0000.0001) implicitViscosity = /* Implicit viscosity on/off flag */
(PID.TID 0000.0001)                   T
(PID.TID 0000.0001)     ;
(PID.TID 0000.0001) selectImplicitDrag= /* Implicit bot Drag options (0,1,2)*/
(PID.TID 0000.0001)                       0
(PID.TID 0000.0001)     0= Expl. ; 1= Impl. on provis. Vel ; 2= Fully Impl (with surf.P)
(PID.TID 0000.0001)     ;
(PID.TID 0000.0001) selectMetricTerms= /* Scheme selector for Horizontal Metric Terms */
(PID.TID 0000.0001)                       0
(PID.TID 0000.0001)    = 0 : Off (ignore Spherical/Cylindrical Metric Terms)
(PID.TID 0000.0001)    = 1 : original discretization
(PID.TID 0000.0001)    = 2 : using (Spherical) grid-spacing
(PID.TID 0000.0001)    = 3 : as 2 but gU-Metric inside Advection
(PID.TID 0000.0001)     ;
(PID.TID 0000.0001) useNHMTerms = /* Non-Hydrostatic Metric-Terms on/off */
(PID.TID 0000.0001)                   F
(PID.TID 0000.0001)     ;
(PID.TID 0000.0001) useCoriolis =  /* Coriolis on/off flag */
(PID.TID 0000.0001)                   T
(PID.TID 0000.0001)     ;
(PID.TID 0000.0001) useCDscheme =  /* CD scheme on/off flag */
(PID.TID 0000.0001)                   F
(PID.TID 0000.0001)     ;
(PID.TID 0000.0001) selectCoriMap = /* Coriolis Map options (0,1,2,3)*/
(PID.TID 0000.0001)                       1
(PID.TID 0000.0001)     0= f-Plane ; 1= Beta-Plane ; 2= Spherical ; 3= read from file
(PID.TID 0000.0001)     ;
(PID.TID 0000.0001) select3dCoriScheme= /* Scheme selector for 3-D Coriolis-Term */
(PID.TID 0000.0001)                       0
(PID.TID 0000.0001)    = 0 : Off (ignore 3-D Coriolis Terms in Omega.Cos(Lat) )
(PID.TID 0000.0001)    = 1 : original discretization ; = 2 : using averaged Transport
(PID.TID 0000.0001)    = 3 : same as 2 with hFac in gW_Cor
(PID.TID 0000.0001)     ;
(PID.TID 0000.0001) selectCoriScheme= /* Scheme selector for Coriolis-Term */
(PID.TID 0000.0001)                       0
(PID.TID 0000.0001)    = 0 : original discretization (simple averaging, no hFac)
(PID.TID 0000.0001)    = 1 : Wet-point averaging (Jamar & Ozer 1986)
(PID.TID 0000.0001)    = 2 : energy conserving scheme (no hFac weight)
(PID.TID 0000.0001)    = 3 : energy conserving scheme using Wet-point averaging
(PID.TID 0000.0001)    = 4 : hFac weighted average (Angular Mom. conserving)
(PID.TID 0000.0001)     ;
(PID.TID 0000.0001) momForcing =  /* Momentum forcing on/off flag */
(PID.TID 0000.0001)                   T
(PID.TID 0000.0001)     ;
(PID.TID 0000.0001) momTidalForcing = /* Momentum Tidal forcing on/off flag */
(PID.TID 0000.0001)                   T
(PID.TID 0000.0001)     ;
(PID.TID 0000.0001) momPressureForcing =  /* Momentum pressure term on/off flag */
(PID.TID 0000.0001)                   T
(PID.TID 0000.0001)     ;
(PID.TID 0000.0001) implicitIntGravWave= /* Implicit Internal Gravity Wave flag */
(PID.TID 0000.0001)                   F
(PID.TID 0000.0001)     ;
(PID.TID 0000.0001) staggerTimeStep =    /* Stagger time stepping on/off flag */
(PID.TID 0000.0001)                   T
(PID.TID 0000.0001)     ;
(PID.TID 0000.0001) doResetHFactors = /* reset thickness factors @ each time-step */
(PID.TID 0000.0001)                   F
(PID.TID 0000.0001)     ;
(PID.TID 0000.0001) multiDimAdvection =  /* enable/disable Multi-Dim Advection */
(PID.TID 0000.0001)                   T
(PID.TID 0000.0001)     ;
(PID.TID 0000.0001) useMultiDimAdvec =   /* Multi-Dim Advection is/is-not used */
(PID.TID 0000.0001)                   T
(PID.TID 0000.0001)     ;
(PID.TID 0000.0001) implicitDiffusion = /* Implicit Diffusion on/off flag */
(PID.TID 0000.0001)                   T
(PID.TID 0000.0001)     ;
(PID.TID 0000.0001) tempStepping =  /* Temperature equation on/off flag */
(PID.TID 0000.0001)                   T
(PID.TID 0000.0001)     ;
(PID.TID 0000.0001) tempAdvection = /* Temperature advection on/off flag */
(PID.TID 0000.0001)                   T
(PID.TID 0000.0001)     ;
(PID.TID 0000.0001) tempImplVertAdv = /* Temp. implicit vert. advection on/off */
(PID.TID 0000.0001)                   F
(PID.TID 0000.0001)     ;
(PID.TID 0000.0001) tempForcing  =  /* Temperature forcing on/off flag */
(PID.TID 0000.0001)                   T
(PID.TID 0000.0001)     ;
(PID.TID 0000.0001) selectPenetratingSW = /* short wave penetration selector */
(PID.TID 0000.0001)                       0
(PID.TID 0000.0001)     ;
(PID.TID 0000.0001) doThetaClimRelax = /* apply SST relaxation on/off flag */
(PID.TID 0000.0001)                   F
(PID.TID 0000.0001)     ;
(PID.TID 0000.0001) tempIsActiveTr = /* Temp. is a dynamically Active Tracer */
(PID.TID 0000.0001)                   T
(PID.TID 0000.0001)     ;
(PID.TID 0000.0001) saltStepping =  /* Salinity equation on/off flag */
(PID.TID 0000.0001)                   T
(PID.TID 0000.0001)     ;
(PID.TID 0000.0001) saltAdvection = /* Salinity advection on/off flag */
(PID.TID 0000.0001)                   T
(PID.TID 0000.0001)     ;
(PID.TID 0000.0001) saltImplVertAdv = /* Sali. implicit vert. advection on/off */
(PID.TID 0000.0001)                   F
(PID.TID 0000.0001)     ;
(PID.TID 0000.0001) saltForcing  =  /* Salinity forcing on/off flag */
(PID.TID 0000.0001)                   T
(PID.TID 0000.0001)     ;
(PID.TID 0000.0001) doSaltClimRelax = /* apply SSS relaxation on/off flag */
(PID.TID 0000.0001)                   F
(PID.TID 0000.0001)     ;
(PID.TID 0000.0001) saltIsActiveTr = /* Salt  is a dynamically Active Tracer */
(PID.TID 0000.0001)                   T
(PID.TID 0000.0001)     ;
(PID.TID 0000.0001)  readBinaryPrec = /* Precision used for reading binary files */
(PID.TID 0000.0001)                      64
(PID.TID 0000.0001)     ;
(PID.TID 0000.0001) writeBinaryPrec = /* Precision used for writing binary files */
(PID.TID 0000.0001)                      32
(PID.TID 0000.0001)     ;
(PID.TID 0000.0001)  rwSuffixType =   /* select format of mds file suffix */
(PID.TID 0000.0001)                       0
(PID.TID 0000.0001)    = 0 : myIter (I10.10) ;   = 1 : 100*myTime (100th sec) ;
(PID.TID 0000.0001)    = 2 : myTime (seconds);   = 3 : myTime/360 (10th of hr);
(PID.TID 0000.0001)    = 4 : myTime/3600 (hours)
(PID.TID 0000.0001)     ;
(PID.TID 0000.0001)  globalFiles = /* write "global" (=not per tile) files */
(PID.TID 0000.0001)                   F
(PID.TID 0000.0001)     ;
(PID.TID 0000.0001)  useSingleCpuIO = /* only master MPI process does I/O */
(PID.TID 0000.0001)                   F
(PID.TID 0000.0001)     ;
(PID.TID 0000.0001)  useSingleCpuInput = /* only master process reads input */
(PID.TID 0000.0001)                   F
(PID.TID 0000.0001)     ;
(PID.TID 0000.0001) /* debLev[*]  : level of debug & auxiliary message printing */
(PID.TID 0000.0001) debLevZero =  0 ; /* level of disabled aux. msg printing */
(PID.TID 0000.0001)    debLevA =  1 ; /* level of minimum  aux. msg printing */
(PID.TID 0000.0001)    debLevB =  2 ; /* level of low aux. print (report read-file opening)*/
(PID.TID 0000.0001)    debLevC =  3 ; /* level of moderate debug prt (most pkgs debug msg) */
(PID.TID 0000.0001)    debLevD =  4 ; /* level of enhanced debug prt (add DEBUG_STATS prt) */
(PID.TID 0000.0001)    debLevE =  5 ; /* level of extensive debug printing */
(PID.TID 0000.0001) debugLevel =  /* select debug printing level */
(PID.TID 0000.0001)                       2
(PID.TID 0000.0001)     ;
(PID.TID 0000.0001)  plotLevel =  /* select PLOT_FIELD printing level */
(PID.TID 0000.0001)                       2
(PID.TID 0000.0001)     ;
(PID.TID 0000.0001) //
(PID.TID 0000.0001) // Elliptic solver(s) paramters ( PARM02 in namelist )
(PID.TID 0000.0001) //
(PID.TID 0000.0001) cg2dMaxIters =   /* Upper limit on 2d con. grad iterations  */
(PID.TID 0000.0001)                     300
(PID.TID 0000.0001)     ;
(PID.TID 0000.0001) cg2dMinItersNSA =   /* Minimum number of iterations of 2d con. grad solver  */
(PID.TID 0000.0001)                       0
(PID.TID 0000.0001)     ;
(PID.TID 0000.0001) cg2dUseMinResSol= /* use cg2d last-iter(=0) / min-resid.(=1) solution */
(PID.TID 0000.0001)                       0
(PID.TID 0000.0001)     ;
(PID.TID 0000.0001) cg2dTargetResidual =   /* 2d con. grad target residual  */
(PID.TID 0000.0001)                 1.000000000000000E-13
(PID.TID 0000.0001)     ;
(PID.TID 0000.0001) cg2dTargetResWunit =   /* CG2d target residual [W units] */
(PID.TID 0000.0001)                -1.000000000000000E+00
(PID.TID 0000.0001)     ;
(PID.TID 0000.0001) cg2dPreCondFreq =   /* Freq. for updating cg2d preconditioner */
(PID.TID 0000.0001)                       1
(PID.TID 0000.0001)     ;
(PID.TID 0000.0001) useSRCGSolver =  /* use single reduction CG solver(s) */
(PID.TID 0000.0001)                   F
(PID.TID 0000.0001)     ;
(PID.TID 0000.0001) useNSACGSolver =  /* use not-self-adjoint CG solver */
(PID.TID 0000.0001)                   F
(PID.TID 0000.0001)     ;
(PID.TID 0000.0001) printResidualFreq = /* Freq. for printing CG residual */
(PID.TID 0000.0001)                      -1
(PID.TID 0000.0001)     ;
(PID.TID 0000.0001) //
(PID.TID 0000.0001) // Time stepping paramters ( PARM03 in namelist )
(PID.TID 0000.0001) //
(PID.TID 0000.0001) deltaTMom =   /* Momentum equation timestep ( s ) */
(PID.TID 0000.0001)                 2.500000000000000E+01
(PID.TID 0000.0001)     ;
(PID.TID 0000.0001) deltaTFreeSurf = /* FreeSurface equation timestep ( s ) */
(PID.TID 0000.0001)                 2.500000000000000E+01
(PID.TID 0000.0001)     ;
(PID.TID 0000.0001) dTtracerLev =  /* Tracer equation timestep ( s ) */
(PID.TID 0000.0001)    12 @  2.500000000000000E+01              /* K =  1: 12 */
(PID.TID 0000.0001)     ;
(PID.TID 0000.0001) deltaTClock  =   /* Model clock timestep ( s ) */
(PID.TID 0000.0001)                 2.500000000000000E+01
(PID.TID 0000.0001)     ;
(PID.TID 0000.0001) cAdjFreq =   /* Convective adjustment interval ( s ) */
(PID.TID 0000.0001)                 0.000000000000000E+00
(PID.TID 0000.0001)     ;
(PID.TID 0000.0001) momForcingOutAB = /* =1: take Momentum Forcing out of Adams-Bash. stepping */
(PID.TID 0000.0001)                       0
(PID.TID 0000.0001)     ;
(PID.TID 0000.0001) tracForcingOutAB = /* =1: take T,S,pTr Forcing out of Adams-Bash. stepping */
(PID.TID 0000.0001)                       0
(PID.TID 0000.0001)     ;
(PID.TID 0000.0001) momDissip_In_AB = /* put Dissipation Tendency in Adams-Bash. stepping */
(PID.TID 0000.0001)                   T
(PID.TID 0000.0001)     ;
(PID.TID 0000.0001) doAB_onGtGs = /* apply AB on Tendencies (rather than on T,S)*/
(PID.TID 0000.0001)                   T
(PID.TID 0000.0001)     ;
(PID.TID 0000.0001) abEps =   /* Adams-Bashforth-2 stabilizing weight */
(PID.TID 0000.0001)                 1.000000000000000E-01
(PID.TID 0000.0001)     ;
(PID.TID 0000.0001) applyExchUV_early = /* Apply EXCH to U,V earlier in time-step */
(PID.TID 0000.0001)                   F
(PID.TID 0000.0001)     ;
(PID.TID 0000.0001) pickupStrictlyMatch= /* stop if pickup do not strictly match */
(PID.TID 0000.0001)                   T
(PID.TID 0000.0001)     ;
(PID.TID 0000.0001) nIter0   =   /* Run starting timestep number */
(PID.TID 0000.0001)                       0
(PID.TID 0000.0001)     ;
(PID.TID 0000.0001) nTimeSteps = /* Number of timesteps */
(PID.TID 0000.0001)                   34560
(PID.TID 0000.0001)     ;
(PID.TID 0000.0001) nEndIter =   /* Run ending timestep number */
(PID.TID 0000.0001)                   34560
(PID.TID 0000.0001)     ;
(PID.TID 0000.0001) baseTime =   /* Model base time ( s ) */
(PID.TID 0000.0001)                 0.000000000000000E+00
(PID.TID 0000.0001)     ;
(PID.TID 0000.0001) startTime =  /* Run start time ( s ) */
(PID.TID 0000.0001)                 0.000000000000000E+00
(PID.TID 0000.0001)     ;
(PID.TID 0000.0001) endTime  =   /* Integration ending time ( s ) */
(PID.TID 0000.0001)                 8.640000000000000E+05
(PID.TID 0000.0001)     ;
(PID.TID 0000.0001) pChkPtFreq = /* Permanent restart/pickup file interval ( s ) */
(PID.TID 0000.0001)                 8.640000000000000E+04
(PID.TID 0000.0001)     ;
(PID.TID 0000.0001) chkPtFreq  = /* Rolling restart/pickup file interval ( s ) */
(PID.TID 0000.0001)                 0.000000000000000E+00
(PID.TID 0000.0001)     ;
(PID.TID 0000.0001) pickup_write_mdsio =   /* Model IO flag. */
(PID.TID 0000.0001)                   T
(PID.TID 0000.0001)     ;
(PID.TID 0000.0001) pickup_read_mdsio =   /* Model IO flag. */
(PID.TID 0000.0001)                   T
(PID.TID 0000.0001)     ;
(PID.TID 0000.0001) writePickupAtEnd =   /* Model IO flag. */
(PID.TID 0000.0001)                   T
(PID.TID 0000.0001)     ;
(PID.TID 0000.0001) dumpFreq =   /* Model state write out interval ( s ). */
(PID.TID 0000.0001)                 3.600000000000000E+03
(PID.TID 0000.0001)     ;
(PID.TID 0000.0001) dumpInitAndLast= /* write out Initial & Last iter. model state */
(PID.TID 0000.0001)                   F
(PID.TID 0000.0001)     ;
(PID.TID 0000.0001) snapshot_mdsio =   /* Model IO flag. */
(PID.TID 0000.0001)                   T
(PID.TID 0000.0001)     ;
(PID.TID 0000.0001) monitorFreq =   /* Monitor output interval ( s ). */
(PID.TID 0000.0001)                 2.160000000000000E+04
(PID.TID 0000.0001)     ;
(PID.TID 0000.0001) monitorSelect = /* select group of variables to monitor */
(PID.TID 0000.0001)                       1
(PID.TID 0000.0001)     ;
(PID.TID 0000.0001) monitor_stdio =   /* Model IO flag. */
(PID.TID 0000.0001)                   T
(PID.TID 0000.0001)     ;
(PID.TID 0000.0001) externForcingPeriod =   /* forcing period (s) */
(PID.TID 0000.0001)                 0.000000000000000E+00
(PID.TID 0000.0001)     ;
(PID.TID 0000.0001) externForcingCycle =   /* period of the cyle (s). */
(PID.TID 0000.0001)                 0.000000000000000E+00
(PID.TID 0000.0001)     ;
(PID.TID 0000.0001) tauThetaClimRelax =   /* relaxation time scale (s) */
(PID.TID 0000.0001)                 0.000000000000000E+00
(PID.TID 0000.0001)     ;
(PID.TID 0000.0001) tauSaltClimRelax =   /* relaxation time scale (s) */
(PID.TID 0000.0001)                 0.000000000000000E+00
(PID.TID 0000.0001)     ;
(PID.TID 0000.0001) latBandClimRelax =   /* max. Lat. where relaxation */
(PID.TID 0000.0001)                 1.500000000000000E+04
(PID.TID 0000.0001)     ;
(PID.TID 0000.0001) //
(PID.TID 0000.0001) // Gridding paramters ( PARM04 in namelist )
(PID.TID 0000.0001) //
(PID.TID 0000.0001) usingCartesianGrid = /* Cartesian coordinates flag ( True/False ) */
(PID.TID 0000.0001)                   T
(PID.TID 0000.0001)     ;
(PID.TID 0000.0001) usingCylindricalGrid = /* Cylindrical coordinates flag ( True/False ) */
(PID.TID 0000.0001)                   F
(PID.TID 0000.0001)     ;
(PID.TID 0000.0001) usingSphericalPolarGrid = /* Spherical coordinates flag ( True/False ) */
(PID.TID 0000.0001)                   F
(PID.TID 0000.0001)     ;
(PID.TID 0000.0001) usingCurvilinearGrid = /* Curvilinear coordinates flag ( True/False ) */
(PID.TID 0000.0001)                   F
(PID.TID 0000.0001)     ;
(PID.TID 0000.0001) useMin4hFacEdges = /* set hFacW,S as minimum of adjacent hFacC factor */
(PID.TID 0000.0001)                   F
(PID.TID 0000.0001)     ;
(PID.TID 0000.0001) interViscAr_pCell = /* account for partial-cell in interior vert. viscosity */
(PID.TID 0000.0001)                   F
(PID.TID 0000.0001)     ;
(PID.TID 0000.0001) interDiffKr_pCell = /* account for partial-cell in interior vert. diffusion */
(PID.TID 0000.0001)                   F
(PID.TID 0000.0001)     ;
(PID.TID 0000.0001) pCellMix_select = /* option to enhance mixing near surface & bottom */
(PID.TID 0000.0001)                       0
(PID.TID 0000.0001)     ;
(PID.TID 0000.0001) selectSigmaCoord = /* Hybrid-Sigma Vert. Coordinate option */
(PID.TID 0000.0001)                       0
(PID.TID 0000.0001)     ;
(PID.TID 0000.0001) rSigmaBnd = /* r/sigma transition ( units of r ==  m ) */
(PID.TID 0000.0001)                 1.234567000000000E+05
(PID.TID 0000.0001)     ;
(PID.TID 0000.0001) rkSign =   /* index orientation relative to vertical coordinate */
(PID.TID 0000.0001)                -1.000000000000000E+00
(PID.TID 0000.0001)     ;
(PID.TID 0000.0001) gravitySign = /* gravity orientation relative to vertical coordinate */
(PID.TID 0000.0001)                -1.000000000000000E+00
(PID.TID 0000.0001)     ;
(PID.TID 0000.0001) seaLev_Z =  /* reference height of sea-level [m] */
(PID.TID 0000.0001)                 0.000000000000000E+00
(PID.TID 0000.0001)     ;
(PID.TID 0000.0001) top_Pres =  /* reference pressure at the top [Pa] */
(PID.TID 0000.0001)                 0.000000000000000E+00
(PID.TID 0000.0001)     ;
(PID.TID 0000.0001) mass2rUnit = /* convert mass per unit area [kg/m2] to r-units [m] */
(PID.TID 0000.0001)                 1.000200040008002E-03
(PID.TID 0000.0001)     ;
(PID.TID 0000.0001) rUnit2mass = /* convert r-units [m] to mass per unit area [kg/m2] */
(PID.TID 0000.0001)                 9.998000000000000E+02
(PID.TID 0000.0001)     ;
(PID.TID 0000.0001) drC =   /* C spacing ( units of r ) */
(PID.TID 0000.0001)                 6.250000000000000E+00,      /* K =  1 */
(PID.TID 0000.0001)                 1.590909090000000E+01,      /* K =  2 */
(PID.TID 0000.0001)                 2.272727270000000E+01,      /* K =  3 */
(PID.TID 0000.0001)                 2.954545455000000E+01,      /* K =  4 */
(PID.TID 0000.0001)                 3.636363640000000E+01,      /* K =  5 */
(PID.TID 0000.0001)                 4.318181820000000E+01,      /* K =  6 */
(PID.TID 0000.0001)                 5.000000000000000E+01,      /* K =  7 */
(PID.TID 0000.0001)                 5.681818180000000E+01,      /* K =  8 */
(PID.TID 0000.0001)                 6.363636360000000E+01,      /* K =  9 */
(PID.TID 0000.0001)                 7.045454545000001E+01,      /* K = 10 */
(PID.TID 0000.0001)                 7.727272730000000E+01,      /* K = 11 */
(PID.TID 0000.0001)                 8.409090910000000E+01,      /* K = 12 */
(PID.TID 0000.0001)                 4.375000000000000E+01       /* K = 13 */
(PID.TID 0000.0001)     ;
(PID.TID 0000.0001) drF =   /* W spacing ( units of r ) */
(PID.TID 0000.0001)                 1.250000000000000E+01,      /* K =  1 */
(PID.TID 0000.0001)                 1.931818180000000E+01,      /* K =  2 */
(PID.TID 0000.0001)                 2.613636360000000E+01,      /* K =  3 */
(PID.TID 0000.0001)                 3.295454550000000E+01,      /* K =  4 */
(PID.TID 0000.0001)                 3.977272730000000E+01,      /* K =  5 */
(PID.TID 0000.0001)                 4.659090910000000E+01,      /* K =  6 */
(PID.TID 0000.0001)                 5.340909090000000E+01,      /* K =  7 */
(PID.TID 0000.0001)                 6.022727270000000E+01,      /* K =  8 */
(PID.TID 0000.0001)                 6.704545450000001E+01,      /* K =  9 */
(PID.TID 0000.0001)                 7.386363640000000E+01,      /* K = 10 */
(PID.TID 0000.0001)                 8.068181820000000E+01,      /* K = 11 */
(PID.TID 0000.0001)                 8.750000000000000E+01       /* K = 12 */
(PID.TID 0000.0001)     ;
(PID.TID 0000.0001) delX = /* U spacing ( m - cartesian, degrees - spherical ) */
(PID.TID 0000.0001)    30 @  5.000000000000000E+02              /* I =  1: 30 */
(PID.TID 0000.0001)     ;
(PID.TID 0000.0001) delY = /* V spacing ( m - cartesian, degrees - spherical ) */
(PID.TID 0000.0001)    10 @  5.000000000000000E+02              /* J =  1: 10 */
(PID.TID 0000.0001)     ;
(PID.TID 0000.0001) xgOrigin = /* X-axis origin of West  edge (cartesian: m, lat-lon: deg) */
(PID.TID 0000.0001)                 0.000000000000000E+00
(PID.TID 0000.0001)     ;
(PID.TID 0000.0001) ygOrigin = /* Y-axis origin of South edge (cartesian: m, lat-lon: deg) */
(PID.TID 0000.0001)                 0.000000000000000E+00
(PID.TID 0000.0001)     ;
(PID.TID 0000.0001) rSphere =  /* Radius ( ignored - cartesian, m - spherical ) */
(PID.TID 0000.0001)                 6.370000000000000E+06
(PID.TID 0000.0001)     ;
(PID.TID 0000.0001) deepAtmosphere = /* Deep/Shallow Atmosphere flag (True/False) */
(PID.TID 0000.0001)                   F
(PID.TID 0000.0001)     ;
(PID.TID 0000.0001) xC =  /* xC(:,1,:,1) : P-point X coord ( deg. or m if cartesian) */
(PID.TID 0000.0001)                 2.500000000000000E+02,      /* I =  1 */
(PID.TID 0000.0001)                 7.500000000000000E+02,      /* I =  2 */
(PID.TID 0000.0001)                 1.250000000000000E+03,      /* I =  3 */
(PID.TID 0000.0001)                 1.750000000000000E+03,      /* I =  4 */
(PID.TID 0000.0001)                 2.250000000000000E+03,      /* I =  5 */
(PID.TID 0000.0001)                 2.750000000000000E+03,      /* I =  6 */
(PID.TID 0000.0001)                 3.250000000000000E+03,      /* I =  7 */
(PID.TID 0000.0001)                 3.750000000000000E+03,      /* I =  8 */
(PID.TID 0000.0001)                 4.250000000000000E+03,      /* I =  9 */
(PID.TID 0000.0001)                 4.750000000000000E+03,      /* I = 10 */
(PID.TID 0000.0001)                 5.250000000000000E+03,      /* I = 11 */
(PID.TID 0000.0001)                 5.750000000000000E+03,      /* I = 12 */
(PID.TID 0000.0001)                 6.250000000000000E+03,      /* I = 13 */
(PID.TID 0000.0001)                 6.750000000000000E+03,      /* I = 14 */
(PID.TID 0000.0001)                 7.250000000000000E+03,      /* I = 15 */
(PID.TID 0000.0001)                 7.750000000000000E+03,      /* I = 16 */
(PID.TID 0000.0001)                 8.250000000000000E+03,      /* I = 17 */
(PID.TID 0000.0001)                 8.750000000000000E+03,      /* I = 18 */
(PID.TID 0000.0001)                 9.250000000000000E+03,      /* I = 19 */
(PID.TID 0000.0001)                 9.750000000000000E+03,      /* I = 20 */
(PID.TID 0000.0001)                 1.025000000000000E+04,      /* I = 21 */
(PID.TID 0000.0001)                 1.075000000000000E+04,      /* I = 22 */
(PID.TID 0000.0001)                 1.125000000000000E+04,      /* I = 23 */
(PID.TID 0000.0001)                 1.175000000000000E+04,      /* I = 24 */
(PID.TID 0000.0001)                 1.225000000000000E+04,      /* I = 25 */
(PID.TID 0000.0001)                 1.275000000000000E+04,      /* I = 26 */
(PID.TID 0000.0001)                 1.325000000000000E+04,      /* I = 27 */
(PID.TID 0000.0001)                 1.375000000000000E+04,      /* I = 28 */
(PID.TID 0000.0001)                 1.425000000000000E+04,      /* I = 29 */
(PID.TID 0000.0001)                 1.475000000000000E+04       /* I = 30 */
(PID.TID 0000.0001)     ;
(PID.TID 0000.0001) yC =  /* yC(1,:,1,:) : P-point Y coord ( deg. or m if cartesian) */
(PID.TID 0000.0001)                 2.500000000000000E+02,      /* J =  1 */
(PID.TID 0000.0001)                 7.500000000000000E+02,      /* J =  2 */
(PID.TID 0000.0001)                 1.250000000000000E+03,      /* J =  3 */
(PID.TID 0000.0001)                 1.750000000000000E+03,      /* J =  4 */
(PID.TID 0000.0001)                 2.250000000000000E+03,      /* J =  5 */
(PID.TID 0000.0001)                 2.750000000000000E+03,      /* J =  6 */
(PID.TID 0000.0001)                 3.250000000000000E+03,      /* J =  7 */
(PID.TID 0000.0001)                 3.750000000000000E+03,      /* J =  8 */
(PID.TID 0000.0001)                 4.250000000000000E+03,      /* J =  9 */
(PID.TID 0000.0001)                 4.750000000000000E+03       /* J = 10 */
(PID.TID 0000.0001)     ;
(PID.TID 0000.0001) rcoord = /* P-point R coordinate (  units of r ) */
(PID.TID 0000.0001)                -6.250000000000000E+00,      /* K =  1 */
(PID.TID 0000.0001)                -2.215909090000000E+01,      /* K =  2 */
(PID.TID 0000.0001)                -4.488636360000000E+01,      /* K =  3 */
(PID.TID 0000.0001)                -7.443181815000000E+01,      /* K =  4 */
(PID.TID 0000.0001)                -1.107954545500000E+02,      /* K =  5 */
(PID.TID 0000.0001)                -1.539772727500000E+02,      /* K =  6 */
(PID.TID 0000.0001)                -2.039772727500000E+02,      /* K =  7 */
(PID.TID 0000.0001)                -2.607954545500000E+02,      /* K =  8 */
(PID.TID 0000.0001)                -3.244318181500000E+02,      /* K =  9 */
(PID.TID 0000.0001)                -3.948863636000000E+02,      /* K = 10 */
(PID.TID 0000.0001)                -4.721590909000000E+02,      /* K = 11 */
(PID.TID 0000.0001)                -5.562500000000000E+02       /* K = 12 */
(PID.TID 0000.0001)     ;
(PID.TID 0000.0001) rF =   /* W-Interf. R coordinate (  units of r ) */
(PID.TID 0000.0001)                 0.000000000000000E+00,      /* K =  1 */
(PID.TID 0000.0001)                -1.250000000000000E+01,      /* K =  2 */
(PID.TID 0000.0001)                -3.181818180000000E+01,      /* K =  3 */
(PID.TID 0000.0001)                -5.795454540000000E+01,      /* K =  4 */
(PID.TID 0000.0001)                -9.090909090000000E+01,      /* K =  5 */
(PID.TID 0000.0001)                -1.306818182000000E+02,      /* K =  6 */
(PID.TID 0000.0001)                -1.772727273000000E+02,      /* K =  7 */
(PID.TID 0000.0001)                -2.306818182000000E+02,      /* K =  8 */
(PID.TID 0000.0001)                -2.909090909000000E+02,      /* K =  9 */
(PID.TID 0000.0001)                -3.579545454000000E+02,      /* K = 10 */
(PID.TID 0000.0001)                -4.318181818000000E+02,      /* K = 11 */
(PID.TID 0000.0001)                -5.125000000000000E+02,      /* K = 12 */
(PID.TID 0000.0001)                -6.000000000000000E+02       /* K = 13 */
(PID.TID 0000.0001)     ;
(PID.TID 0000.0001) deepFacC = /* deep-model grid factor @ cell-Center (-) */
(PID.TID 0000.0001)    12 @  1.000000000000000E+00              /* K =  1: 12 */
(PID.TID 0000.0001)     ;
(PID.TID 0000.0001) deepFacF = /* deep-model grid factor @ W-Interface (-) */
(PID.TID 0000.0001)    13 @  1.000000000000000E+00              /* K =  1: 13 */
(PID.TID 0000.0001)     ;
(PID.TID 0000.0001) rotateGrid = /* use rotated grid ( True/False ) */
(PID.TID 0000.0001)                   F
(PID.TID 0000.0001)     ;
(PID.TID 0000.0001) phiEuler = /* Euler angle, rotation about original z-coordinate [rad] */
(PID.TID 0000.0001)                 0.000000000000000E+00
(PID.TID 0000.0001)     ;
(PID.TID 0000.0001) thetaEuler = /* Euler angle, rotation about new x-coordinate [rad] */
(PID.TID 0000.0001)                 0.000000000000000E+00
(PID.TID 0000.0001)     ;
(PID.TID 0000.0001) psiEuler = /* Euler angle, rotation about new z-coordinate [rad] */
(PID.TID 0000.0001)                 0.000000000000000E+00
(PID.TID 0000.0001)     ;
(PID.TID 0000.0001) dxF =  /* dxF(:,1,:,1) ( units: m ) */
(PID.TID 0000.0001)    30 @  5.000000000000000E+02              /* I =  1: 30 */
(PID.TID 0000.0001)     ;
(PID.TID 0000.0001) dxF =  /* dxF(1,:,1,:) ( units: m ) */
(PID.TID 0000.0001)    10 @  5.000000000000000E+02              /* J =  1: 10 */
(PID.TID 0000.0001)     ;
(PID.TID 0000.0001) dyF =  /* dyF(:,1,:,1) ( units: m ) */
(PID.TID 0000.0001)    30 @  5.000000000000000E+02              /* I =  1: 30 */
(PID.TID 0000.0001)     ;
(PID.TID 0000.0001) dyF =  /* dyF(1,:,1,:) ( units: m ) */
(PID.TID 0000.0001)    10 @  5.000000000000000E+02              /* J =  1: 10 */
(PID.TID 0000.0001)     ;
(PID.TID 0000.0001) dxG =  /* dxG(:,1,:,1) ( units: m ) */
(PID.TID 0000.0001)    30 @  5.000000000000000E+02              /* I =  1: 30 */
(PID.TID 0000.0001)     ;
(PID.TID 0000.0001) dxG =  /* dxG(1,:,1,:) ( units: m ) */
(PID.TID 0000.0001)    10 @  5.000000000000000E+02              /* J =  1: 10 */
(PID.TID 0000.0001)     ;
(PID.TID 0000.0001) dyG =  /* dyG(:,1,:,1) ( units: m ) */
(PID.TID 0000.0001)    30 @  5.000000000000000E+02              /* I =  1: 30 */
(PID.TID 0000.0001)     ;
(PID.TID 0000.0001) dyG =  /* dyG(1,:,1,:) ( units: m ) */
(PID.TID 0000.0001)    10 @  5.000000000000000E+02              /* J =  1: 10 */
(PID.TID 0000.0001)     ;
(PID.TID 0000.0001) dxC =  /* dxC(:,1,:,1) ( units: m ) */
(PID.TID 0000.0001)    30 @  5.000000000000000E+02              /* I =  1: 30 */
(PID.TID 0000.0001)     ;
(PID.TID 0000.0001) dxC =  /* dxC(1,:,1,:) ( units: m ) */
(PID.TID 0000.0001)    10 @  5.000000000000000E+02              /* J =  1: 10 */
(PID.TID 0000.0001)     ;
(PID.TID 0000.0001) dyC =  /* dyC(:,1,:,1) ( units: m ) */
(PID.TID 0000.0001)    30 @  5.000000000000000E+02              /* I =  1: 30 */
(PID.TID 0000.0001)     ;
(PID.TID 0000.0001) dyC =  /* dyC(1,:,1,:) ( units: m ) */
(PID.TID 0000.0001)    10 @  5.000000000000000E+02              /* J =  1: 10 */
(PID.TID 0000.0001)     ;
(PID.TID 0000.0001) dxV =  /* dxV(:,1,:,1) ( units: m ) */
(PID.TID 0000.0001)    30 @  5.000000000000000E+02              /* I =  1: 30 */
(PID.TID 0000.0001)     ;
(PID.TID 0000.0001) dxV =  /* dxV(1,:,1,:) ( units: m ) */
(PID.TID 0000.0001)    10 @  5.000000000000000E+02              /* J =  1: 10 */
(PID.TID 0000.0001)     ;
(PID.TID 0000.0001) dyU =  /* dyU(:,1,:,1) ( units: m ) */
(PID.TID 0000.0001)    30 @  5.000000000000000E+02              /* I =  1: 30 */
(PID.TID 0000.0001)     ;
(PID.TID 0000.0001) dyU =  /* dyU(1,:,1,:) ( units: m ) */
(PID.TID 0000.0001)    10 @  5.000000000000000E+02              /* J =  1: 10 */
(PID.TID 0000.0001)     ;
(PID.TID 0000.0001) rA  =  /* rA (:,1,:,1) ( units: m^2 ) */
(PID.TID 0000.0001)    30 @  2.500000000000000E+05              /* I =  1: 30 */
(PID.TID 0000.0001)     ;
(PID.TID 0000.0001) rA  =  /* rA (1,:,1,:) ( units: m^2 ) */
(PID.TID 0000.0001)    10 @  2.500000000000000E+05              /* J =  1: 10 */
(PID.TID 0000.0001)     ;
(PID.TID 0000.0001) rAw =  /* rAw(:,1,:,1) ( units: m^2 ) */
(PID.TID 0000.0001)    30 @  2.500000000000000E+05              /* I =  1: 30 */
(PID.TID 0000.0001)     ;
(PID.TID 0000.0001) rAw =  /* rAw(1,:,1,:) ( units: m^2 ) */
(PID.TID 0000.0001)    10 @  2.500000000000000E+05              /* J =  1: 10 */
(PID.TID 0000.0001)     ;
(PID.TID 0000.0001) rAs =  /* rAs(:,1,:,1) ( units: m^2 ) */
(PID.TID 0000.0001)    30 @  2.500000000000000E+05              /* I =  1: 30 */
(PID.TID 0000.0001)     ;
(PID.TID 0000.0001) rAs =  /* rAs(1,:,1,:) ( units: m^2 ) */
(PID.TID 0000.0001)    10 @  2.500000000000000E+05              /* J =  1: 10 */
(PID.TID 0000.0001)     ;
(PID.TID 0000.0001) globalArea = /* Integrated horizontal Area (m^2) */
(PID.TID 0000.0001)                 5.600000000000000E+07
(PID.TID 0000.0001)     ;
(PID.TID 0000.0001) // =======================================================
(PID.TID 0000.0001) // End of Model config. summary
(PID.TID 0000.0001) // =======================================================
(PID.TID 0000.0001) 
(PID.TID 0000.0001) == Packages configuration : Check & print summary ==
(PID.TID 0000.0001) 
(PID.TID 0000.0001) OBCS_CHECK: #define ALLOW_OBCS
(PID.TID 0000.0001) // =======================================================
(PID.TID 0000.0001) // OBCS_CHECK: OBCS configuration summary
(PID.TID 0000.0001) // =======================================================
(PID.TID 0000.0001) 
(PID.TID 0000.0001) useOBCSprescribe = /* prescribe OB values */
(PID.TID 0000.0001)                   T
(PID.TID 0000.0001)     ;
(PID.TID 0000.0001) useOBCSbalance = /* balance the flow through OB */
(PID.TID 0000.0001)                   F
(PID.TID 0000.0001)     ;
(PID.TID 0000.0001) OBCSfixTopo =  /* mod. topo to have zero gradient across boundaries. */
(PID.TID 0000.0001)                   F
(PID.TID 0000.0001)     ;
(PID.TID 0000.0001) OBCS_uvApplyFac = /* Factor to apply to U,V 2nd column/row */
(PID.TID 0000.0001)                 1.000000000000000E+00
(PID.TID 0000.0001)     ;
(PID.TID 0000.0001) OBCS_u1_adv_T = /* Temp uses upwind adv-scheme @ OB */
(PID.TID 0000.0001)                       0
(PID.TID 0000.0001)     ;
(PID.TID 0000.0001) OBCS_u1_adv_S = /* Salt uses upwind adv-scheme @ OB */
(PID.TID 0000.0001)                       0
(PID.TID 0000.0001)     ;
(PID.TID 0000.0001) OBCS_monitorFreq = /* monitor output frequency [s] */
(PID.TID 0000.0001)                 2.160000000000000E+04
(PID.TID 0000.0001)     ;
(PID.TID 0000.0001) OBCS_monSelect = /* select group of variables to monitor */
(PID.TID 0000.0001)                       0
(PID.TID 0000.0001)     ;
(PID.TID 0000.0001) OBCSprintDiags =  /* print some OBCS diagnostics. */
(PID.TID 0000.0001)                   F
(PID.TID 0000.0001)     ;
(PID.TID 0000.0001) useOBCStides = /* apply tidal forcing through OB */
(PID.TID 0000.0001)                   F
(PID.TID 0000.0001)     ;
(PID.TID 0000.0001) useOrlanskiNorth =  /* use Orlanski for northern bound. */
(PID.TID 0000.0001)                   F
(PID.TID 0000.0001)     ;
(PID.TID 0000.0001) useOrlanskiSouth =  /* use Orlanski for southern bound. */
(PID.TID 0000.0001)                   F
(PID.TID 0000.0001)     ;
(PID.TID 0000.0001) useOrlanskiEast  =  /* use Orlanski for eastern bound. */
(PID.TID 0000.0001)                   F
(PID.TID 0000.0001)     ;
(PID.TID 0000.0001) useOrlanskiWest  =  /* use Orlanski for western bound. */
(PID.TID 0000.0001)                   F
(PID.TID 0000.0001)     ;
(PID.TID 0000.0001) useStevensNorth =  /* use Stevens for northern bound. */
(PID.TID 0000.0001)                   F
(PID.TID 0000.0001)     ;
(PID.TID 0000.0001) useStevensSouth =  /* use Stevens for southern bound. */
(PID.TID 0000.0001)                   F
(PID.TID 0000.0001)     ;
(PID.TID 0000.0001) useStevensEast  =  /* use Stevens for eastern bound. */
(PID.TID 0000.0001)                   F
(PID.TID 0000.0001)     ;
(PID.TID 0000.0001) useStevensWest  =  /* use Stevens for western bound. */
(PID.TID 0000.0001)                   F
(PID.TID 0000.0001)     ;
(PID.TID 0000.0001) useStevensPhaseVel  =  /* include phase vel. term. */
(PID.TID 0000.0001)                   T
(PID.TID 0000.0001)     ;
(PID.TID 0000.0001) useStevensAdvection  =  /* include advection term. */
(PID.TID 0000.0001)                   T
(PID.TID 0000.0001)     ;
(PID.TID 0000.0001) TrelaxStevens = /* relaxation time scale for theta ( s ). */
(PID.TID 0000.0001)                 0.000000000000000E+00
(PID.TID 0000.0001)     ;
(PID.TID 0000.0001) SrelaxStevens = /* relaxation time scale for salinity ( s ). */
(PID.TID 0000.0001)                 0.000000000000000E+00
(PID.TID 0000.0001)     ;
(PID.TID 0000.0001) useOBCSSponge =  /* use sponge along boundaries */
(PID.TID 0000.0001)                   T
(PID.TID 0000.0001)     ;
(PID.TID 0000.0001) OBCSSponge_N =  /* use sponge for northern boundary */
(PID.TID 0000.0001)                   T
(PID.TID 0000.0001)     ;
(PID.TID 0000.0001) OBCSSponge_S =  /* use sponge for southern boundary */
(PID.TID 0000.0001)                   T
(PID.TID 0000.0001)     ;
(PID.TID 0000.0001) OBCSSponge_E =  /* use sponge for eastern boundary */
(PID.TID 0000.0001)                   T
(PID.TID 0000.0001)     ;
(PID.TID 0000.0001) OBCSSponge_W =  /* use sponge for western boundary */
(PID.TID 0000.0001)                   T
(PID.TID 0000.0001)     ;
(PID.TID 0000.0001) OBCSSponge_UatNS =  /* use u-vel. sponge at N/S bound. */
(PID.TID 0000.0001)                   T
(PID.TID 0000.0001)     ;
(PID.TID 0000.0001) OBCSSponge_UatEW =  /* use u-vel. sponge at E/W bound. */
(PID.TID 0000.0001)                   T
(PID.TID 0000.0001)     ;
(PID.TID 0000.0001) OBCSSponge_VatNS =  /* use v-vel. sponge at N/S bound. */
(PID.TID 0000.0001)                   T
(PID.TID 0000.0001)     ;
(PID.TID 0000.0001) OBCSSponge_VatEW =  /* use v-vel. sponge at E/W bound. */
(PID.TID 0000.0001)                   T
(PID.TID 0000.0001)     ;
(PID.TID 0000.0001) OBCSSponge_Theta =  /* use sponge for Theta. */
(PID.TID 0000.0001)                   T
(PID.TID 0000.0001)     ;
(PID.TID 0000.0001) OBCSSponge_Salt =  /* use sponge for salinity. */
(PID.TID 0000.0001)                   T
(PID.TID 0000.0001)     ;
(PID.TID 0000.0001) useLinearSponge =  /* use linear sponge. */
(PID.TID 0000.0001)                   F
(PID.TID 0000.0001)     ;
(PID.TID 0000.0001) spongeThickness = /* number grid points in sponge */
(PID.TID 0000.0001)                      12
(PID.TID 0000.0001)     ;
(PID.TID 0000.0001) Urelaxobcsinner = /* innermost relaxation time scale, u-velocity ( s ). */
(PID.TID 0000.0001)                 8.640000000000000E+04
(PID.TID 0000.0001)     ;
(PID.TID 0000.0001) Urelaxobcsbound = /* boudnary relaxation time scale, u-velocity ( s ). */
(PID.TID 0000.0001)                 3.600000000000000E+03
(PID.TID 0000.0001)     ;
(PID.TID 0000.0001) Vrelaxobcsinner = /* innermost relaxation time scale, v-velocity ( s ). */
(PID.TID 0000.0001)                 8.640000000000000E+04
(PID.TID 0000.0001)     ;
(PID.TID 0000.0001) Vrelaxobcsbound = /* boundary relaxation time scale, v-velocity ( s ). */
(PID.TID 0000.0001)                 3.600000000000000E+03
(PID.TID 0000.0001)     ;
(PID.TID 0000.0001) useSeaiceSponge =  /* use sponge for sea ice variables */
(PID.TID 0000.0001)                   F
(PID.TID 0000.0001)     ;
(PID.TID 0000.0001) useSeaiceNeumann =  /* use Neumann conditions for sea ice variables */
(PID.TID 0000.0001)                   F
(PID.TID 0000.0001)     ;
(PID.TID 0000.0001) OB_indexNone = /* null value for OB index (i.e. no OB) */
(PID.TID 0000.0001)                     -99
(PID.TID 0000.0001)     ;
(PID.TID 0000.0001) ======== Tile bi=   1 , bj=   1 ========
(PID.TID 0000.0001)  OB_Jn = /* Northern OB local indices */
(PID.TID 0000.0001)     3 @       10,                           /* I = -2:  0 */
(PID.TID 0000.0001)    14 @      -99,                           /* I =  1: 14 */
(PID.TID 0000.0001)    16 @       10,                           /* I = 15: 30 */
(PID.TID 0000.0001)     3 @      -99                            /* I = 31: 33 */
(PID.TID 0000.0001)  OB_Js = /* Southern OB local indices */
(PID.TID 0000.0001)     3 @        1,                           /* I = -2:  0 */
(PID.TID 0000.0001)    14 @      -99,                           /* I =  1: 14 */
(PID.TID 0000.0001)    16 @        1,                           /* I = 15: 30 */
(PID.TID 0000.0001)     3 @      -99                            /* I = 31: 33 */
(PID.TID 0000.0001)  OB_Ie = /* Eastern OB local indices */
(PID.TID 0000.0001)    16 @       30                            /* J = -2: 13 */
(PID.TID 0000.0001)  OB_Iw = /* Western OB local indices */
(PID.TID 0000.0001)    16 @      -99                            /* J = -2: 13 */
(PID.TID 0000.0001) // =======================================================
(PID.TID 0000.0001) // End of OBCS config. summary
(PID.TID 0000.0001) // =======================================================
(PID.TID 0000.0001) 
(PID.TID 0000.0001) OBCS_CHECK: set-up OK
(PID.TID 0000.0001) OBCS_CHECK: check Inside Mask and OB locations: OK
(PID.TID 0000.0001) 
(PID.TID 0000.0001) ICEBERG_CHECK: #define ALLOW_ICEBERG
(PID.TID 0000.0001) GAD_CHECK: #define ALLOW_GENERIC_ADVDIFF
(PID.TID 0000.0001) // =======================================================
(PID.TID 0000.0001) // Check Model config. (CONFIG_CHECK):
(PID.TID 0000.0001) // CONFIG_CHECK : Normal End
(PID.TID 0000.0001) // =======================================================
(PID.TID 0000.0001) 
(PID.TID 0000.0001)  MDS_READ_FIELD: opening global file: T.init
(PID.TID 0000.0001)  MDS_READ_FIELD: opening global file: S.init
(PID.TID 0000.0001) Start initial hydrostatic pressure computation
(PID.TID 0000.0001) Pressure is predetermined for buoyancyRelation OCEANIC
(PID.TID 0000.0001) 
(PID.TID 0000.0001)  write diagnostics summary to file ioUnit:      6
Iter.Nb:         0 ; Time(s):  0.0000000000000E+00
------------------------------------------------------------------------
2D/3D diagnostics: Number of lists:     2
------------------------------------------------------------------------
listId=    1 ; file name: dynDiag
 nFlds, nActive,       freq     &     phase        , nLev               
    5  |    5  |      3600.000000         0.000000 |  12
 levels:   1   2   3   4   5   6   7   8   9  10  11  12
 diag# | name   |   ipt  |  iMate | kLev|   count |   mate.C|           
    26 |THETA   |      1 |      0 |  12 |       0 |
    27 |SALT    |     13 |      0 |  12 |       0 |
    30 |UVEL    |     25 |     49 |  12 |       0 |       0 |
    32 |WVEL    |     37 |      0 |  12 |       0 |
    31 |VVEL    |     49 |     25 |  12 |       0 |       0 |
------------------------------------------------------------------------
listId=    2 ; file name: BRGFlx
 nFlds, nActive,       freq     &     phase        , nLev               
    6  |    6  |      3600.000000         0.000000 |  12
 levels:   1   2   3   4   5   6   7   8   9  10  11  12
 diag# | name   |   ipt  |  iMate | kLev|   count |   mate.C|           
   197 |BRGfwFlx|     61 |      0 |  12 |       0 |
   198 |BRGhtFlx|     73 |      0 |  12 |       0 |
   199 |BRGmltRt|     85 |      0 |  12 |       0 |
   201 |BRG_TauX|     97 |      0 |  12 |       0 |
   202 |BRG_TauY|    109 |      0 |  12 |       0 |
   203 |BRGhFacC|    121 |      0 |  12 |       0 |
------------------------------------------------------------------------
Global & Regional Statistics diagnostics: Number of lists:     0
------------------------------------------------------------------------
(PID.TID 0000.0001)  OBCS_FIELDS_LOAD: Reading initial data:         0  0.000000000000E+00
(PID.TID 0000.0001)  MDS_READ_SEC_YZ: opening global file: EBCv.bin
(PID.TID 0000.0001)  MDS_READ_SEC_YZ: opening global file: EBCt.bin
(PID.TID 0000.0001)  MDS_READ_SEC_YZ: opening global file: EBCs.bin
(PID.TID 0000.0001)  MDS_READ_SEC_XZ: opening global file: NsBCv.bin
(PID.TID 0000.0001)  MDS_READ_SEC_XZ: opening global file: NsBCt.bin
(PID.TID 0000.0001)  MDS_READ_SEC_XZ: opening global file: NsBCs.bin
(PID.TID 0000.0001)  MDS_READ_SEC_XZ: opening global file: NsBCv.bin
(PID.TID 0000.0001)  MDS_READ_SEC_XZ: opening global file: NsBCt.bin
(PID.TID 0000.0001)  MDS_READ_SEC_XZ: opening global file: NsBCs.bin
(PID.TID 0000.0001) // =======================================================
(PID.TID 0000.0001) // Model current state
(PID.TID 0000.0001) // =======================================================
(PID.TID 0000.0001) 
(PID.TID 0000.0001) // =======================================================
(PID.TID 0000.0001) // Begin MONITOR dynamic field statistics
(PID.TID 0000.0001) // =======================================================
(PID.TID 0000.0001) %MON time_tsnumber                =                     0
(PID.TID 0000.0001) %MON time_secondsf                =   0.0000000000000E+00
(PID.TID 0000.0001) %MON dynstat_eta_max              =   0.0000000000000E+00
(PID.TID 0000.0001) %MON dynstat_eta_min              =   0.0000000000000E+00
(PID.TID 0000.0001) %MON dynstat_eta_mean             =   0.0000000000000E+00
(PID.TID 0000.0001) %MON dynstat_eta_sd               =   0.0000000000000E+00
(PID.TID 0000.0001) %MON dynstat_eta_del2             =   0.0000000000000E+00
(PID.TID 0000.0001) %MON dynstat_uvel_max             =   0.0000000000000E+00
(PID.TID 0000.0001) %MON dynstat_uvel_min             =   0.0000000000000E+00
(PID.TID 0000.0001) %MON dynstat_uvel_mean            =   0.0000000000000E+00
(PID.TID 0000.0001) %MON dynstat_uvel_sd              =   0.0000000000000E+00
(PID.TID 0000.0001) %MON dynstat_uvel_del2            =   0.0000000000000E+00
(PID.TID 0000.0001) %MON dynstat_vvel_max             =   0.0000000000000E+00
(PID.TID 0000.0001) %MON dynstat_vvel_min             =  -3.0000000000000E-02
(PID.TID 0000.0001) %MON dynstat_vvel_mean            =  -1.7982166071876E-03
(PID.TID 0000.0001) %MON dynstat_vvel_sd              =   6.1698331017266E-03
(PID.TID 0000.0001) %MON dynstat_vvel_del2            =   1.7278087199503E-04
(PID.TID 0000.0001) %MON dynstat_wvel_max             =   3.6000000000000E-02
(PID.TID 0000.0001) %MON dynstat_wvel_min             =  -3.6000000000000E-02
(PID.TID 0000.0001) %MON dynstat_wvel_mean            =  -1.4735659589452E-20
(PID.TID 0000.0001) %MON dynstat_wvel_sd              =   4.6026824567826E-03
(PID.TID 0000.0001) %MON dynstat_wvel_del2            =   2.4393646446680E-04
(PID.TID 0000.0001) %MON dynstat_theta_max            =   2.6931451612903E+00
(PID.TID 0000.0001) %MON dynstat_theta_min            =   1.0044118637487E+00
(PID.TID 0000.0001) %MON dynstat_theta_mean           =   2.2692203293244E+00
(PID.TID 0000.0001) %MON dynstat_theta_sd             =   3.9835880568013E-01
(PID.TID 0000.0001) %MON dynstat_theta_del2           =   0.0000000000000E+00
(PID.TID 0000.0001) %MON dynstat_salt_max             =   3.4700000000000E+01
(PID.TID 0000.0001) %MON dynstat_salt_min             =   3.3244568119983E+01
(PID.TID 0000.0001) %MON dynstat_salt_mean            =   3.4371223581241E+01
(PID.TID 0000.0001) %MON dynstat_salt_sd              =   3.0710380607690E-01
(PID.TID 0000.0001) %MON dynstat_salt_del2            =   0.0000000000000E+00
(PID.TID 0000.0001) %MON advcfl_uvel_max              =   0.0000000000000E+00
(PID.TID 0000.0001) %MON advcfl_vvel_max              =   1.5000000000000E-03
(PID.TID 0000.0001) %MON advcfl_wvel_max              =   1.4400000000000E-01
(PID.TID 0000.0001) %MON advcfl_W_hf_max              =   7.0500000000000E-02
(PID.TID 0000.0001) %MON pe_b_mean                    =   0.0000000000000E+00
(PID.TID 0000.0001) %MON ke_max                       =   2.2500000000000E-04
(PID.TID 0000.0001) %MON ke_mean                      =   1.0379902847626E-05
(PID.TID 0000.0001) %MON ke_vol                       =   3.2921708585402E+10
(PID.TID 0000.0001) // =======================================================
(PID.TID 0000.0001) // End MONITOR dynamic field statistics
(PID.TID 0000.0001) // =======================================================
(PID.TID 0000.0001) // =======================================================
(PID.TID 0000.0001) // Begin OBCS MONITOR field statistics
(PID.TID 0000.0001) // =======================================================
(PID.TID 0000.0001) %MON obc_E_uVel_max               =   0.0000000000000E+00
(PID.TID 0000.0001) %MON obc_E_uVel_min               =   0.0000000000000E+00
(PID.TID 0000.0001) %MON obc_E_uVel_mean              =   0.0000000000000E+00
(PID.TID 0000.0001) %MON obc_E_uVel_sd                =   0.0000000000000E+00
(PID.TID 0000.0001) %MON obc_E_uVel_Int               =   0.0000000000000E+00
(PID.TID 0000.0001) %MON obc_N_vVel_max               =  -3.6115799844846E-05
(PID.TID 0000.0001) %MON obc_N_vVel_min               =  -3.0000000000000E-02
(PID.TID 0000.0001) %MON obc_N_vVel_mean              =  -1.3225455303334E-02
(PID.TID 0000.0001) %MON obc_N_vVel_sd                =   1.1350864292742E-02
(PID.TID 0000.0001) %MON obc_N_vVel_Int               =  -5.9514548865004E+04
(PID.TID 0000.0001) %MON obc_S_vVel_max               =  -3.6115799844846E-05
(PID.TID 0000.0001) %MON obc_S_vVel_min               =  -3.0000000000000E-02
(PID.TID 0000.0001) %MON obc_S_vVel_mean              =  -1.3225455303334E-02
(PID.TID 0000.0001) %MON obc_S_vVel_sd                =   1.1350864292742E-02
(PID.TID 0000.0001) %MON obc_S_vVel_Int               =  -5.9514548865004E+04
(PID.TID 0000.0001) // =======================================================
(PID.TID 0000.0001) // End OBCS MONITOR field statistics
(PID.TID 0000.0001) // =======================================================
(PID.TID 0000.0001) SOLVE_FOR_PRESSURE: putPmEinXvector =    F
 cg2d: Sum(rhs),rhsMax =   3.33175327604796E-15  5.98353315108950E-01
 cg2d: Sum(rhs),rhsMax =   6.91807722219551E-15  1.56068125976075E-01
 cg2d: Sum(rhs),rhsMax =   2.90545365544403E-13  1.18939606424420E-02
 cg2d: Sum(rhs),rhsMax =   1.05158937113714E-13  3.26873227530401E-02
 cg2d: Sum(rhs),rhsMax =   1.83020265609457E-13  1.63683247526757E-02
 cg2d: Sum(rhs),rhsMax =   7.24753590475302E-13  4.47064548194057E-03
 cg2d: Sum(rhs),rhsMax =   7.55229212501263E-13  4.59825665097074E-03
 cg2d: Sum(rhs),rhsMax =   9.72839864221697E-13  3.82008961279531E-03
 cg2d: Sum(rhs),rhsMax =   1.76139658414343E-12  2.18550042686075E-03
 cg2d: Sum(rhs),rhsMax =   1.49780188252180E-12  2.70279194929038E-03
 cg2d: Sum(rhs),rhsMax =   1.49202872279375E-12  2.71920553858850E-03
 cg2d: Sum(rhs),rhsMax =   1.66766600528945E-12  2.52074282465407E-03
 cg2d: Sum(rhs),rhsMax =   1.84000037428689E-12  2.38985212556583E-03
 cg2d: Sum(rhs),rhsMax =   1.90733540073040E-12  2.36004591432518E-03
 cg2d: Sum(rhs),rhsMax =   1.95726768126292E-12  2.37260718507471E-03
 cg2d: Sum(rhs),rhsMax =   1.95224392207649E-12  2.38446426769208E-03
 cg2d: Sum(rhs),rhsMax =   1.98924210437212E-12  2.38712772891536E-03
 cg2d: Sum(rhs),rhsMax =   2.01488825624097E-12  2.38736877852030E-03
 cg2d: Sum(rhs),rhsMax =   2.02915462210740E-12  2.39055645201922E-03
 cg2d: Sum(rhs),rhsMax =   2.09349204638443E-12  2.39659896932879E-03
 cg2d: Sum(rhs),rhsMax =   2.09365857983812E-12  2.40268031204655E-03
 cg2d: Sum(rhs),rhsMax =   2.16815454479047E-12  2.40635226855322E-03
 cg2d: Sum(rhs),rhsMax =   2.23571161583891E-12  2.40667487228160E-03
 cg2d: Sum(rhs),rhsMax =   2.29133378937263E-12  2.40392904279548E-03
 cg2d: Sum(rhs),rhsMax =   2.37898589716679E-12  2.39895691265623E-03
 cg2d: Sum(rhs),rhsMax =   2.42733610988921E-12  2.39269624119560E-03
 cg2d: Sum(rhs),rhsMax =   2.49017473308299E-12  2.38598777238660E-03
 cg2d: Sum(rhs),rhsMax =   2.55345744548663E-12  2.37952395330735E-03
 cg2d: Sum(rhs),rhsMax =   2.62107002768630E-12  2.37383669286893E-03
 cg2d: Sum(rhs),rhsMax =   2.62923016691730E-12  2.36928132353671E-03
 cg2d: Sum(rhs),rhsMax =   2.66275890226098E-12  2.36601963352153E-03
 cg2d: Sum(rhs),rhsMax =   2.77089462485947E-12  2.36401644191632E-03
 cg2d: Sum(rhs),rhsMax =   2.84566814556797E-12  2.36306573487498E-03
 cg2d: Sum(rhs),rhsMax =   2.88347123955646E-12  2.36283687903425E-03
 cg2d: Sum(rhs),rhsMax =   2.90883983566914E-12  2.36293852990058E-03
 cg2d: Sum(rhs),rhsMax =   2.97012414662845E-12  2.36298774343640E-03
 cg2d: Sum(rhs),rhsMax =   2.99998914599087E-12  2.36267014181052E-03
 cg2d: Sum(rhs),rhsMax =   3.06482617062898E-12  2.36178077073162E-03
 cg2d: Sum(rhs),rhsMax =   3.16491277629893E-12  2.36024450279039E-03
 cg2d: Sum(rhs),rhsMax =   3.16019432844428E-12  2.39994442876820E-03
 cg2d: Sum(rhs),rhsMax =   3.09818837251896E-12  2.46199805262693E-03
 cg2d: Sum(rhs),rhsMax =   3.11078940384846E-12  2.52215774626168E-03
 cg2d: Sum(rhs),rhsMax =   3.12366799093411E-12  2.58119662950303E-03
 cg2d: Sum(rhs),rhsMax =   3.09596792646971E-12  2.63975425122394E-03
 cg2d: Sum(rhs),rhsMax =   3.05536151934405E-12  2.69822925562485E-03
 cg2d: Sum(rhs),rhsMax =   3.02038949406835E-12  2.75673419390802E-03
 cg2d: Sum(rhs),rhsMax =   2.99690827709753E-12  2.81509189785471E-03
 cg2d: Sum(rhs),rhsMax =   2.96873636784767E-12  2.87287936349030E-03
 cg2d: Sum(rhs),rhsMax =   2.95766189317703E-12  2.92950314281335E-03
 cg2d: Sum(rhs),rhsMax =   3.00801050734378E-12  2.98429784046136E-03
 cg2d: Sum(rhs),rhsMax =   2.99990587926402E-12  3.03661049048290E-03
 cg2d: Sum(rhs),rhsMax =   3.02083358327820E-12  3.08587405505461E-03
 cg2d: Sum(rhs),rhsMax =   3.04573033460542E-12  3.13165968465169E-03
 cg2d: Sum(rhs),rhsMax =   3.07165404223042E-12  3.17369886877826E-03
 cg2d: Sum(rhs),rhsMax =   3.09438585865962E-12  3.21187928692635E-03
 cg2d: Sum(rhs),rhsMax =   3.10088066335368E-12  3.24621715192468E-03
 cg2d: Sum(rhs),rhsMax =   3.10507175527164E-12  3.27681814575479E-03
 cg2d: Sum(rhs),rhsMax =   3.09038905577097E-12  3.30383108716416E-03
 cg2d: Sum(rhs),rhsMax =   3.12513903644174E-12  3.32739715458481E-03
 cg2d: Sum(rhs),rhsMax =   3.15023007679827E-12  3.34762505589685E-03
 cg2d: Sum(rhs),rhsMax =   3.16791037846542E-12  3.36456265074383E-03
 cg2d: Sum(rhs),rhsMax =   3.20146686938472E-12  3.37819135445159E-03
 cg2d: Sum(rhs),rhsMax =   3.23716053962642E-12  3.38843540069972E-03
 cg2d: Sum(rhs),rhsMax =   3.29020144462788E-12  3.39517188094633E-03
 cg2d: Sum(rhs),rhsMax =   3.32164851180039E-12  3.39825238927626E-03
 cg2d: Sum(rhs),rhsMax =   3.39198114041039E-12  3.39753312500753E-03
 cg2d: Sum(rhs),rhsMax =   3.45928841127829E-12  3.39288991223141E-03
 cg2d: Sum(rhs),rhsMax =   3.53106432982031E-12  3.38424494802957E-03
 cg2d: Sum(rhs),rhsMax =   3.58624241414418E-12  3.37157042819273E-03
 cg2d: Sum(rhs),rhsMax =   3.64175356537544E-12  3.35489311396454E-03
 cg2d: Sum(rhs),rhsMax =   3.72307740192923E-12  3.33429638839835E-03
 cg2d: Sum(rhs),rhsMax =   3.79143938467053E-12  3.30989942939914E-03
 cg2d: Sum(rhs),rhsMax =   3.79388187532470E-12  3.32996568776086E-03
 cg2d: Sum(rhs),rhsMax =   3.78747033735749E-12  3.37667174270823E-03
 cg2d: Sum(rhs),rhsMax =   3.76940145763172E-12  3.42011173101949E-03
 cg2d: Sum(rhs),rhsMax =   3.77045616950511E-12  3.46030956235573E-03
 cg2d: Sum(rhs),rhsMax =   3.77659015171616E-12  3.49729041794608E-03
 cg2d: Sum(rhs),rhsMax =   3.75541264752144E-12  3.53105452683409E-03
 cg2d: Sum(rhs),rhsMax =   3.73756581240059E-12  3.56158489624978E-03
 cg2d: Sum(rhs),rhsMax =   3.74691944138306E-12  3.58886507722412E-03
 cg2d: Sum(rhs),rhsMax =   3.80268039279485E-12  3.61287784987070E-03
 cg2d: Sum(rhs),rhsMax =   3.81594755793913E-12  3.63361315174545E-03
 cg2d: Sum(rhs),rhsMax =   3.85283471793230E-12  3.65107983388302E-03
 cg2d: Sum(rhs),rhsMax =   3.83734710673878E-12  3.69502886112934E-03
 cg2d: Sum(rhs),rhsMax =   3.79332676381239E-12  3.78689763541875E-03
 cg2d: Sum(rhs),rhsMax =   3.75233177862810E-12  3.87607059632446E-03
 cg2d: Sum(rhs),rhsMax =   3.75080522196924E-12  3.96249943893422E-03
 cg2d: Sum(rhs),rhsMax =   3.68854946586339E-12  4.04611359924047E-03
 cg2d: Sum(rhs),rhsMax =   3.65843466632043E-12  4.12684145185642E-03
 cg2d: Sum(rhs),rhsMax =   3.62049279445387E-12  4.20462035145060E-03
 cg2d: Sum(rhs),rhsMax =   3.60231289242563E-12  4.27939741002316E-03
 cg2d: Sum(rhs),rhsMax =   3.60242391472809E-12  4.35113137323605E-03
 cg2d: Sum(rhs),rhsMax =   3.57117113658489E-12  4.41979287202531E-03
 cg2d: Sum(rhs),rhsMax =   3.54982709893648E-12  4.48536319284360E-03
 cg2d: Sum(rhs),rhsMax =   3.54655194101383E-12  4.54783397084505E-03
 cg2d: Sum(rhs),rhsMax =   3.51341178372877E-12  4.60720558403352E-03
 cg2d: Sum(rhs),rhsMax =   3.50824924666426E-12  4.66348513176168E-03
 cg2d: Sum(rhs),rhsMax =   3.48826523222101E-12  4.71668150675906E-03
 cg2d: Sum(rhs),rhsMax =   3.48571171926437E-12  4.76680142977487E-03
 cg2d: Sum(rhs),rhsMax =   3.47924467014593E-12  4.81386286839878E-03
 cg2d: Sum(rhs),rhsMax =   3.47913364784347E-12  4.85787337458240E-03
 cg2d: Sum(rhs),rhsMax =   3.51252360530907E-12  4.89885318750799E-03
 cg2d: Sum(rhs),rhsMax =   3.51080275962090E-12  4.93681982577153E-03
 cg2d: Sum(rhs),rhsMax =   3.52617934851196E-12  4.97179335586944E-03
 cg2d: Sum(rhs),rhsMax =   3.52357032440409E-12  5.00379772375150E-03
 cg2d: Sum(rhs),rhsMax =   3.54277718273011E-12  5.03286068132937E-03
 cg2d: Sum(rhs),rhsMax =   3.57336382705853E-12  5.05901303820642E-03
 cg2d: Sum(rhs),rhsMax =   3.59298701901878E-12  5.08229281522911E-03
 cg2d: Sum(rhs),rhsMax =   3.61835561513146E-12  5.10273466982891E-03
 cg2d: Sum(rhs),rhsMax =   3.64519525675178E-12  5.12038244275936E-03
 cg2d: Sum(rhs),rhsMax =   3.66925934081053E-12  5.13528284853876E-03
 cg2d: Sum(rhs),rhsMax =   3.72141206739229E-12  5.14748508625180E-03
 cg2d: Sum(rhs),rhsMax =   3.75371955740889E-12  5.15703787651639E-03
 cg2d: Sum(rhs),rhsMax =   3.80481757211726E-12  5.16399540584285E-03
 cg2d: Sum(rhs),rhsMax =   3.83951204163679E-12  5.16830707265357E-03
 cg2d: Sum(rhs),rhsMax =   3.88256093941663E-12  5.17012467255364E-03
 cg2d: Sum(rhs),rhsMax =   3.91600640803347E-12  5.16950907085486E-03
 cg2d: Sum(rhs),rhsMax =   3.95961041732562E-12  5.16651349993333E-03
 cg2d: Sum(rhs),rhsMax =   4.00238175934930E-12  5.16119330982494E-03
 cg2d: Sum(rhs),rhsMax =   4.06530364926994E-12  5.15360541208651E-03
 cg2d: Sum(rhs),rhsMax =   4.10421696628305E-12  5.14380670217330E-03
 cg2d: Sum(rhs),rhsMax =   4.14335232790108E-12  5.13183932177613E-03
 cg2d: Sum(rhs),rhsMax =   4.17710310784969E-12  5.11778015861069E-03
 cg2d: Sum(rhs),rhsMax =   4.21040979858844E-12  5.10168789886667E-03
 cg2d: Sum(rhs),rhsMax =   4.24757451433777E-12  5.08362720546554E-03
 cg2d: Sum(rhs),rhsMax =   4.27635704625118E-12  5.06366301797154E-03
 cg2d: Sum(rhs),rhsMax =   4.32462399224676E-12  5.04184450398439E-03
 cg2d: Sum(rhs),rhsMax =   4.37122560370540E-12  5.01824123448283E-03
 cg2d: Sum(rhs),rhsMax =   4.42068603945245E-12  4.99291832131728E-03
 cg2d: Sum(rhs),rhsMax =   4.49115744594053E-12  4.96593992669035E-03
 cg2d: Sum(rhs),rhsMax =   4.55518955888579E-12  4.93737034286962E-03
 cg2d: Sum(rhs),rhsMax =   4.61375382343476E-12  4.90727397623442E-03
 cg2d: Sum(rhs),rhsMax =   4.69546623804717E-12  4.87571428425723E-03
 cg2d: Sum(rhs),rhsMax =   4.78045381058223E-12  4.84275546566646E-03
 cg2d: Sum(rhs),rhsMax =   4.83318940425193E-12  4.80846112424870E-03
 cg2d: Sum(rhs),rhsMax =   4.90141260911514E-12  4.77289629984116E-03
 cg2d: Sum(rhs),rhsMax =   4.97407670607686E-12  4.73612471254037E-03
 cg2d: Sum(rhs),rhsMax =   5.03980190913467E-12  4.69821025120205E-03
 cg2d: Sum(rhs),rhsMax =   5.11307662875993E-12  4.65922139031034E-03
 cg2d: Sum(rhs),rhsMax =   5.19342902016717E-12  4.61921593676220E-03
 cg2d: Sum(rhs),rhsMax =   5.27144994322271E-12  4.57826082707448E-03
 cg2d: Sum(rhs),rhsMax =   5.35954614022671E-12  4.53641753232809E-03
 cg2d: Sum(rhs),rhsMax =   5.43223799276404E-12  4.49374389969156E-03
 cg2d: Sum(rhs),rhsMax =   5.51117484981489E-12  4.45030411216833E-03
 Computing Diagnostic #    26 "THETA   " (list#  1) Parms "SMR     MR      ", Count=     144
 Computing Diagnostic #    27 "SALT    " (list#  1) Parms "SMR     MR      ", Count=     144
 Computing Diagnostic #    30 "UVEL    " (list#  1) Parms "UUR     MR      ", Count=     144
             Vector  Mate for "UVEL    " :  Diagnostic #     31 "VVEL    " exists
 Computing Diagnostic #    32 "WVEL    " (list#  1) Parms "WM      LR      ", Count=     144
 Computing Diagnostic #    31 "VVEL    " (list#  1) Parms "VVR     MR      ", Count=     144
             Vector  Mate for "VVEL    " :  Diagnostic #     30 "UVEL    " exists
 Computing Diagnostic #   197 "BRGfwFlx" (list#  2) Parms "SM      MR      ", Count=     144
 Computing Diagnostic #   198 "BRGhtFlx" (list#  2) Parms "SM      MR      ", Count=     144
 Computing Diagnostic #   199 "BRGmltRt" (list#  2) Parms "SM      MR      ", Count=     144
 Computing Diagnostic #   201 "BRG_TauX" (list#  2) Parms "UU      MR      ", Count=    1728
 Computing Diagnostic #   202 "BRG_TauY" (list#  2) Parms "VV      MR      ", Count=    1728
 Computing Diagnostic #   203 "BRGhFacC" (list#  2) Parms "SM      MR      ", Count=    1728
 cg2d: Sum(rhs),rhsMax =   5.61944935029146E-12  4.40616210268579E-03
 cg2d: Sum(rhs),rhsMax =   5.70904434837871E-12  4.36137980474971E-03
 cg2d: Sum(rhs),rhsMax =   5.81043546610260E-12  4.31601829636269E-03
 cg2d: Sum(rhs),rhsMax =   5.93708415763672E-12  4.27013830901705E-03
 cg2d: Sum(rhs),rhsMax =   6.02737304511436E-12  4.22379985957684E-03
 cg2d: Sum(rhs),rhsMax =   6.13628592383009E-12  4.17706214528631E-03
 cg2d: Sum(rhs),rhsMax =   6.24192364462317E-12  4.12998519120728E-03
 cg2d: Sum(rhs),rhsMax =   6.33529340099415E-12  4.08262575131960E-03
 cg2d: Sum(rhs),rhsMax =   6.46688258498784E-12  4.03504221356373E-03
 cg2d: Sum(rhs),rhsMax =   6.58825771715499E-12  3.98729010796385E-03
 cg2d: Sum(rhs),rhsMax =   6.74543754186629E-12  3.93942523562829E-03
 cg2d: Sum(rhs),rhsMax =   6.90345003384607E-12  3.89150237986868E-03
 cg2d: Sum(rhs),rhsMax =   7.06071312528422E-12  3.84357507094766E-03
 cg2d: Sum(rhs),rhsMax =   7.22014115162040E-12  3.79569608061412E-03
 cg2d: Sum(rhs),rhsMax =   7.33041405354129E-12  3.74791670857719E-03
 cg2d: Sum(rhs),rhsMax =   7.48723305576959E-12  3.70027941922019E-03
 cg2d: Sum(rhs),rhsMax =   7.67139129997929E-12  3.65283299131225E-03
 cg2d: Sum(rhs),rhsMax =   7.81941178473744E-12  3.60562455096882E-03
 cg2d: Sum(rhs),rhsMax =   7.97703569865860E-12  3.55869826462026E-03
 cg2d: Sum(rhs),rhsMax =   8.12860889709555E-12  3.51209943766114E-03
 cg2d: Sum(rhs),rhsMax =   8.26450019530967E-12  3.46587197658500E-03
 cg2d: Sum(rhs),rhsMax =   8.41482439284391E-12  3.42005880423255E-03
 cg2d: Sum(rhs),rhsMax =   8.62857008065987E-12  3.37470091755598E-03
 cg2d: Sum(rhs),rhsMax =   8.77392603015892E-12  3.32983818539984E-03
 cg2d: Sum(rhs),rhsMax =   8.95819529667108E-12  3.28550822754771E-03
 cg2d: Sum(rhs),rhsMax =   9.12997455415621E-12  3.24174702352624E-03
 cg2d: Sum(rhs),rhsMax =   9.31144050753119E-12  3.19858876134537E-03
 cg2d: Sum(rhs),rhsMax =   9.53681578153009E-12  3.15606737920713E-03
 cg2d: Sum(rhs),rhsMax =   9.70437619152165E-12  3.11421192448647E-03
 cg2d: Sum(rhs),rhsMax =   9.90757476060367E-12  3.07305094606450E-03
 cg2d: Sum(rhs),rhsMax =   1.00786601286984E-11  3.03262154734788E-03
 cg2d: Sum(rhs),rhsMax =   1.02646224853231E-11  2.99293455154062E-03
 cg2d: Sum(rhs),rhsMax =   1.04932174060934E-11  2.95401328205938E-03
 cg2d: Sum(rhs),rhsMax =   1.07183706354874E-11  2.91588435880728E-03
 cg2d: Sum(rhs),rhsMax =   1.09556808070010E-11  2.87856688729877E-03
 cg2d: Sum(rhs),rhsMax =   1.11188280804697E-11  2.84208329409354E-03
 cg2d: Sum(rhs),rhsMax =   1.13092868403442E-11  2.80644061927117E-03
 cg2d: Sum(rhs),rhsMax =   1.15161769009831E-11  2.77164980219666E-03
 cg2d: Sum(rhs),rhsMax =   1.17257314968811E-11  2.73771991970576E-03
 cg2d: Sum(rhs),rhsMax =   1.19217413718786E-11  2.70465756637826E-03
 cg2d: Sum(rhs),rhsMax =   1.20550791571361E-11  2.68601844507947E-03
 cg2d: Sum(rhs),rhsMax =   1.20325416297362E-11  2.70824512134628E-03
 cg2d: Sum(rhs),rhsMax =   1.19855236846433E-11  2.72824865691031E-03
 cg2d: Sum(rhs),rhsMax =   1.19921295116399E-11  2.74594091551834E-03
 cg2d: Sum(rhs),rhsMax =   1.19972365375531E-11  2.76124097234486E-03
 cg2d: Sum(rhs),rhsMax =   1.20003451620221E-11  2.77407396807872E-03
 cg2d: Sum(rhs),rhsMax =   1.20618515175863E-11  2.78436134031713E-03
 cg2d: Sum(rhs),rhsMax =   1.21109788864260E-11  2.79204949570987E-03
 cg2d: Sum(rhs),rhsMax =   1.21800347585577E-11  2.79708444746256E-03
 cg2d: Sum(rhs),rhsMax =   1.22222787446447E-11  2.79941860894581E-03
 cg2d: Sum(rhs),rhsMax =   1.22980514660753E-11  2.79901592412537E-03
 cg2d: Sum(rhs),rhsMax =   1.24162347070467E-11  2.79584615184075E-03
 cg2d: Sum(rhs),rhsMax =   1.25337518142032E-11  2.78989136272940E-03
 cg2d: Sum(rhs),rhsMax =   1.26772481401360E-11  2.78113669943225E-03
 cg2d: Sum(rhs),rhsMax =   1.28315136294077E-11  2.76957895731927E-03
 cg2d: Sum(rhs),rhsMax =   1.29478650023884E-11  2.75558558950486E-03
 cg2d: Sum(rhs),rhsMax =   1.30999100456108E-11  2.73882729449980E-03
 cg2d: Sum(rhs),rhsMax =   1.32645561201628E-11  2.71930864163065E-03
 cg2d: Sum(rhs),rhsMax =   1.33917321676336E-11  2.69706731624472E-03
 cg2d: Sum(rhs),rhsMax =   1.35806921264248E-11  2.67214480557665E-03
 cg2d: Sum(rhs),rhsMax =   1.37853062298632E-11  2.64456690236101E-03
 cg2d: Sum(rhs),rhsMax =   1.38928313297981E-11  2.64480104331073E-03
 cg2d: Sum(rhs),rhsMax =   1.39362410500610E-11  2.65763676517178E-03
 cg2d: Sum(rhs),rhsMax =   1.39475653249121E-11  2.67133508577422E-03
 cg2d: Sum(rhs),rhsMax =   1.39497302598102E-11  2.68583674416345E-03
 cg2d: Sum(rhs),rhsMax =   1.39863676196228E-11  2.70108010865607E-03
 cg2d: Sum(rhs),rhsMax =   1.39787070807529E-11  2.71700129155346E-03
 cg2d: Sum(rhs),rhsMax =   1.39560030198993E-11  2.73353436483745E-03
 cg2d: Sum(rhs),rhsMax =   1.39562250645042E-11  2.75064017046163E-03
 cg2d: Sum(rhs),rhsMax =   1.39698252965559E-11  2.76821160217784E-03
 cg2d: Sum(rhs),rhsMax =   1.39477873695171E-11  2.78618628762596E-03
 cg2d: Sum(rhs),rhsMax =   1.39354083827925E-11  2.80449197130120E-03
 cg2d: Sum(rhs),rhsMax =   1.38744571387406E-11  2.82305327159423E-03
 cg2d: Sum(rhs),rhsMax =   1.38303257735117E-11  2.84179755955962E-03
 cg2d: Sum(rhs),rhsMax =   1.38300482177556E-11  2.86065063714901E-03
 cg2d: Sum(rhs),rhsMax =   1.38002387295444E-11  2.87953786591272E-03
 cg2d: Sum(rhs),rhsMax =   1.38106193148246E-11  2.89838928123712E-03
 cg2d: Sum(rhs),rhsMax =   1.37871936090050E-11  2.91712561554233E-03
 cg2d: Sum(rhs),rhsMax =   1.38091760248926E-11  2.93567238336017E-03
 cg2d: Sum(rhs),rhsMax =   1.38149491846207E-11  2.95395582511610E-03
 cg2d: Sum(rhs),rhsMax =   1.37923006349183E-11  2.97190275963133E-03
 cg2d: Sum(rhs),rhsMax =   1.37942435252114E-11  2.98944117898503E-03
 cg2d: Sum(rhs),rhsMax =   1.37687083956450E-11  3.00649572053919E-03
 cg2d: Sum(rhs),rhsMax =   1.37655442600249E-11  3.02301033642776E-03
 cg2d: Sum(rhs),rhsMax =   1.37636568808830E-11  3.03892227161607E-03
 cg2d: Sum(rhs),rhsMax =   1.37689304402500E-11  3.05416740140711E-03
 cg2d: Sum(rhs),rhsMax =   1.37737599104071E-11  3.06868232597934E-03
 cg2d: Sum(rhs),rhsMax =   1.38273836824965E-11  3.08240593672755E-03
 cg2d: Sum(rhs),rhsMax =   1.39149247679882E-11  3.09527954876964E-03
 cg2d: Sum(rhs),rhsMax =   1.39631084472569E-11  3.10724699310413E-03
 cg2d: Sum(rhs),rhsMax =   1.40223943567719E-11  3.11828516973081E-03
 cg2d: Sum(rhs),rhsMax =   1.40496503320264E-11  3.12830365154799E-03
 cg2d: Sum(rhs),rhsMax =   1.40433775719373E-11  3.13726365341842E-03
 cg2d: Sum(rhs),rhsMax =   1.40853995134194E-11  3.14512049162662E-03
 cg2d: Sum(rhs),rhsMax =   1.41066602843409E-11  3.15183220294974E-03
 cg2d: Sum(rhs),rhsMax =   1.41600065006742E-11  3.15741593497379E-03
 cg2d: Sum(rhs),rhsMax =   1.42028055982735E-11  3.16177842965616E-03
 cg2d: Sum(rhs),rhsMax =   1.42949541093174E-11  3.16487421842974E-03
 cg2d: Sum(rhs),rhsMax =   1.43580702882673E-11  3.16668579803855E-03
 cg2d: Sum(rhs),rhsMax =   1.44224632236956E-11  3.16718872236886E-03
 cg2d: Sum(rhs),rhsMax =   1.44953493652622E-11  3.16636190332174E-03
 cg2d: Sum(rhs),rhsMax =   1.45759515568500E-11  3.16419306336972E-03
 cg2d: Sum(rhs),rhsMax =   1.46792022981401E-11  3.16066701941269E-03
 cg2d: Sum(rhs),rhsMax =   1.48002721189755E-11  3.15577023047482E-03
 cg2d: Sum(rhs),rhsMax =   1.48989709458647E-11  3.14949622202738E-03
 cg2d: Sum(rhs),rhsMax =   1.49863454979027E-11  3.14184224953814E-03
 cg2d: Sum(rhs),rhsMax =   1.50959800215844E-11  3.13280922410745E-03
 cg2d: Sum(rhs),rhsMax =   1.52408086151468E-11  3.12240438690720E-03
 cg2d: Sum(rhs),rhsMax =   1.53336787711567E-11  3.11063315642671E-03
 cg2d: Sum(rhs),rhsMax =   1.54783408312653E-11  3.09749434995668E-03
 cg2d: Sum(rhs),rhsMax =   1.56397672590458E-11  3.08301516837302E-03
 cg2d: Sum(rhs),rhsMax =   1.57735491335131E-11  3.06721404550563E-03
 cg2d: Sum(rhs),rhsMax =   1.59174895486558E-11  3.05011060756931E-03
 cg2d: Sum(rhs),rhsMax =   1.61035074164317E-11  3.03172716306553E-03
 cg2d: Sum(rhs),rhsMax =   1.63295488242454E-11  3.01209104223218E-03
 cg2d: Sum(rhs),rhsMax =   1.65555902320591E-11  2.99123130674929E-03
 cg2d: Sum(rhs),rhsMax =   1.65673030849689E-11  3.00235821598679E-03
 cg2d: Sum(rhs),rhsMax =   1.66115454725002E-11  3.01305936809869E-03
 cg2d: Sum(rhs),rhsMax =   1.66437974513656E-11  3.02178518669476E-03
 cg2d: Sum(rhs),rhsMax =   1.67131308792534E-11  3.02856761023717E-03
 cg2d: Sum(rhs),rhsMax =   1.67855729316102E-11  3.03344610779286E-03
 cg2d: Sum(rhs),rhsMax =   1.68230429586913E-11  3.03646249702559E-03
 cg2d: Sum(rhs),rhsMax =   1.68984826132146E-11  3.03766332582529E-03
 cg2d: Sum(rhs),rhsMax =   1.69829150742373E-11  3.03709939862045E-03
 cg2d: Sum(rhs),rhsMax =   1.70321534653795E-11  3.03482699448581E-03
 cg2d: Sum(rhs),rhsMax =   1.71425096340272E-11  3.03090680847610E-03
 cg2d: Sum(rhs),rhsMax =   1.72448721968976E-11  3.02539589700529E-03
 cg2d: Sum(rhs),rhsMax =   1.73716596663098E-11  3.01837032527891E-03
 cg2d: Sum(rhs),rhsMax =   1.75039982508451E-11  3.00990189750993E-03
 cg2d: Sum(rhs),rhsMax =   1.76249570493781E-11  3.00006552639934E-03
 cg2d: Sum(rhs),rhsMax =   1.77787229382886E-11  2.98894369178757E-03
 cg2d: Sum(rhs),rhsMax =   1.79355974516682E-11  2.97661131908005E-03
 cg2d: Sum(rhs),rhsMax =   1.81320514158756E-11  2.96315041696300E-03
 cg2d: Sum(rhs),rhsMax =   1.83152937260900E-11  2.94864458985664E-03
 cg2d: Sum(rhs),rhsMax =   1.85135240471368E-11  2.93316009237738E-03
 cg2d: Sum(rhs),rhsMax =   1.87126980577546E-11  2.91677580048551E-03
 cg2d: Sum(rhs),rhsMax =   1.89168680719831E-11  2.89957730917970E-03
 cg2d: Sum(rhs),rhsMax =   1.91335280952387E-11  2.88165111855985E-03
 cg2d: Sum(rhs),rhsMax =   1.93504656742505E-11  2.86308371799642E-03
 cg2d: Sum(rhs),rhsMax =   1.95554128445963E-11  2.84396130620537E-03
 cg2d: Sum(rhs),rhsMax =   1.97964977743936E-11  2.82436882003845E-03
 cg2d: Sum(rhs),rhsMax =   2.00219285595438E-11  2.80438978613544E-03
 cg2d: Sum(rhs),rhsMax =   2.02226013712448E-11  2.78410623020451E-03
 cg2d: Sum(rhs),rhsMax =   2.04434802419939E-11  2.76359823244890E-03
 Computing Diagnostic #    26 "THETA   " (list#  1) Parms "SMR     MR      ", Count=     144
 Computing Diagnostic #    27 "SALT    " (list#  1) Parms "SMR     MR      ", Count=     144
 Computing Diagnostic #    30 "UVEL    " (list#  1) Parms "UUR     MR      ", Count=     144
             Vector  Mate for "UVEL    " :  Diagnostic #     31 "VVEL    " exists
 Computing Diagnostic #    32 "WVEL    " (list#  1) Parms "WM      LR      ", Count=     144
 Computing Diagnostic #    31 "VVEL    " (list#  1) Parms "VVR     MR      ", Count=     144
             Vector  Mate for "VVEL    " :  Diagnostic #     30 "UVEL    " exists
 Computing Diagnostic #   197 "BRGfwFlx" (list#  2) Parms "SM      MR      ", Count=     144
 Computing Diagnostic #   198 "BRGhtFlx" (list#  2) Parms "SM      MR      ", Count=     144
 Computing Diagnostic #   199 "BRGmltRt" (list#  2) Parms "SM      MR      ", Count=     144
 Computing Diagnostic #   201 "BRG_TauX" (list#  2) Parms "UU      MR      ", Count=    1728
 Computing Diagnostic #   202 "BRG_TauY" (list#  2) Parms "VV      MR      ", Count=    1728
 Computing Diagnostic #   203 "BRGhFacC" (list#  2) Parms "SM      MR      ", Count=    1728
 cg2d: Sum(rhs),rhsMax =   2.06672456926071E-11  2.74294371976723E-03
 cg2d: Sum(rhs),rhsMax =   2.09459671829393E-11  2.72221831374334E-03
 cg2d: Sum(rhs),rhsMax =   2.11859418897120E-11  2.70291095430134E-03
 cg2d: Sum(rhs),rhsMax =   2.12161954671330E-11  2.71300764602054E-03
 cg2d: Sum(rhs),rhsMax =   2.12396766841039E-11  2.72284604742823E-03
 cg2d: Sum(rhs),rhsMax =   2.12468376226127E-11  2.73244571578716E-03
 cg2d: Sum(rhs),rhsMax =   2.12121431530932E-11  2.74182782857350E-03
 cg2d: Sum(rhs),rhsMax =   2.12563300294732E-11  2.75101498460777E-03
 cg2d: Sum(rhs),rhsMax =   2.12621031892013E-11  2.76003231712671E-03
 cg2d: Sum(rhs),rhsMax =   2.12957429468474E-11  2.76890343352590E-03
 cg2d: Sum(rhs),rhsMax =   2.13043471752883E-11  2.77765535197922E-03
 cg2d: Sum(rhs),rhsMax =   2.13373207991197E-11  2.78631271228801E-03
 cg2d: Sum(rhs),rhsMax =   2.13372097768172E-11  2.79490213959590E-03
 cg2d: Sum(rhs),rhsMax =   2.13774553614599E-11  2.80345264320008E-03
 cg2d: Sum(rhs),rhsMax =   2.14200879256055E-11  2.81198714841748E-03
 cg2d: Sum(rhs),rhsMax =   2.14107065410474E-11  2.82053275775718E-03
 cg2d: Sum(rhs),rhsMax =   2.14314677116079E-11  2.82911595931257E-03
 cg2d: Sum(rhs),rhsMax =   2.14631645789609E-11  2.83776487542947E-03
 cg2d: Sum(rhs),rhsMax =   2.15048534535356E-11  2.84650043445011E-03
 cg2d: Sum(rhs),rhsMax =   2.15526485547457E-11  2.85534610390521E-03
 cg2d: Sum(rhs),rhsMax =   2.15982232099066E-11  2.86432465171202E-03
 cg2d: Sum(rhs),rhsMax =   2.16063278379863E-11  2.87347906238358E-03
 cg2d: Sum(rhs),rhsMax =   2.16492379578881E-11  2.88280512663822E-03
 cg2d: Sum(rhs),rhsMax =   2.16613393888565E-11  2.89231950426307E-03
 cg2d: Sum(rhs),rhsMax =   2.16678897047018E-11  2.90202197572008E-03
 cg2d: Sum(rhs),rhsMax =   2.16778817119234E-11  2.91194044516725E-03
 cg2d: Sum(rhs),rhsMax =   2.17129092483503E-11  2.92208443590478E-03
 cg2d: Sum(rhs),rhsMax =   2.17242890343528E-11  2.93246237559145E-03
 cg2d: Sum(rhs),rhsMax =   2.17443285599472E-11  2.94307991791082E-03
 cg2d: Sum(rhs),rhsMax =   2.17578177696964E-11  2.95374823794213E-03
 cg2d: Sum(rhs),rhsMax =   2.17571516358817E-11  2.96465220990091E-03
 cg2d: Sum(rhs),rhsMax =   2.17774132060811E-11  2.97579727445339E-03
 cg2d: Sum(rhs),rhsMax =   2.17676432434644E-11  2.98717523488077E-03
 cg2d: Sum(rhs),rhsMax =   2.17917905942500E-11  2.99881579126964E-03
 cg2d: Sum(rhs),rhsMax =   2.17772466726274E-11  3.01067840256650E-03
 cg2d: Sum(rhs),rhsMax =   2.17411089131758E-11  3.02274081542489E-03
 cg2d: Sum(rhs),rhsMax =   2.17284523706951E-11  3.03498580550659E-03
 cg2d: Sum(rhs),rhsMax =   2.17439399818886E-11  3.04744194765678E-03
 cg2d: Sum(rhs),rhsMax =   2.17217355213961E-11  3.06003882063092E-03
 cg2d: Sum(rhs),rhsMax =   2.16974216371568E-11  3.07274840168398E-03
 cg2d: Sum(rhs),rhsMax =   2.17154627613070E-11  3.08554240829444E-03
 cg2d: Sum(rhs),rhsMax =   2.16942019903854E-11  3.09839507883054E-03
 cg2d: Sum(rhs),rhsMax =   2.17071915997735E-11  3.11126734080753E-03
 cg2d: Sum(rhs),rhsMax =   2.17266760138557E-11  3.12412272276162E-03
 cg2d: Sum(rhs),rhsMax =   2.17155737836094E-11  3.13692265416733E-03
 cg2d: Sum(rhs),rhsMax =   2.16785478457382E-11  3.14961929907330E-03
 cg2d: Sum(rhs),rhsMax =   2.16683893050629E-11  3.16217690803001E-03
 cg2d: Sum(rhs),rhsMax =   2.16832107824416E-11  3.17455144394510E-03
 cg2d: Sum(rhs),rhsMax =   2.16563988963969E-11  3.18669548779196E-03
 cg2d: Sum(rhs),rhsMax =   2.16724971302540E-11  3.19856996351701E-03
 cg2d: Sum(rhs),rhsMax =   2.16749396209082E-11  3.21011935692979E-03
 cg2d: Sum(rhs),rhsMax =   2.16747730874545E-11  3.22129449428198E-03
 cg2d: Sum(rhs),rhsMax =   2.16711648626244E-11  3.23204561046744E-03
 cg2d: Sum(rhs),rhsMax =   2.16614504111590E-11  3.24231816380653E-03
 cg2d: Sum(rhs),rhsMax =   2.16557882737334E-11  3.25206748735107E-03
 cg2d: Sum(rhs),rhsMax =   2.16656692586525E-11  3.26124355515273E-03
 cg2d: Sum(rhs),rhsMax =   2.16779372230747E-11  3.26981830840314E-03
 cg2d: Sum(rhs),rhsMax =   2.17142970271311E-11  3.27772197092059E-03
 cg2d: Sum(rhs),rhsMax =   2.17640905297856E-11  3.28490556425751E-03
 cg2d: Sum(rhs),rhsMax =   2.17814100089697E-11  3.29132156034342E-03
 cg2d: Sum(rhs),rhsMax =   2.18288720432724E-11  3.29692445814624E-03
 cg2d: Sum(rhs),rhsMax =   2.18708384736033E-11  3.30166878153185E-03
 cg2d: Sum(rhs),rhsMax =   2.19318452288064E-11  3.30551109153321E-03
 cg2d: Sum(rhs),rhsMax =   2.20027884800800E-11  3.30841174066264E-03
 cg2d: Sum(rhs),rhsMax =   2.20617413226876E-11  3.31033244566840E-03
 cg2d: Sum(rhs),rhsMax =   2.21421769808217E-11  3.31123770052364E-03
 cg2d: Sum(rhs),rhsMax =   2.22341589584119E-11  3.31109478840647E-03
 cg2d: Sum(rhs),rhsMax =   2.23506768648463E-11  3.30995807614800E-03
 cg2d: Sum(rhs),rhsMax =   2.24513185820285E-11  3.30772013996413E-03
 cg2d: Sum(rhs),rhsMax =   2.25162111178179E-11  3.30435249844956E-03
 cg2d: Sum(rhs),rhsMax =   2.26451080109769E-11  3.29983575952605E-03
 cg2d: Sum(rhs),rhsMax =   2.27206586878026E-11  3.30224817489125E-03
 cg2d: Sum(rhs),rhsMax =   2.27417529252705E-11  3.31081719789804E-03
 cg2d: Sum(rhs),rhsMax =   2.27518004436433E-11  3.31915649007566E-03
 cg2d: Sum(rhs),rhsMax =   2.27459717727641E-11  3.32728142706785E-03
 cg2d: Sum(rhs),rhsMax =   2.27918239836811E-11  3.33520673273452E-03
 cg2d: Sum(rhs),rhsMax =   2.27839969113575E-11  3.34294660373807E-03
 cg2d: Sum(rhs),rhsMax =   2.28100316412849E-11  3.35051453063106E-03
 cg2d: Sum(rhs),rhsMax =   2.28451146888631E-11  3.35797716945180E-03
 cg2d: Sum(rhs),rhsMax =   2.28883578756722E-11  3.36529506002304E-03
 cg2d: Sum(rhs),rhsMax =   2.29242180793676E-11  3.37247617234344E-03
 cg2d: Sum(rhs),rhsMax =   2.29562480136281E-11  3.37953115803004E-03
 cg2d: Sum(rhs),rhsMax =   2.29805063867161E-11  3.38646936058845E-03
 cg2d: Sum(rhs),rhsMax =   2.30001573342520E-11  3.39330118047467E-03
 cg2d: Sum(rhs),rhsMax =   2.30575003534739E-11  3.40003584617466E-03
 cg2d: Sum(rhs),rhsMax =   2.30891972208269E-11  3.40667810593952E-03
 cg2d: Sum(rhs),rhsMax =   2.31526464666842E-11  3.41323050298385E-03
 cg2d: Sum(rhs),rhsMax =   2.31597518940418E-11  3.41969443649466E-03
 cg2d: Sum(rhs),rhsMax =   2.31859531574230E-11  3.42606994379494E-03
 cg2d: Sum(rhs),rhsMax =   2.32273644762415E-11  3.43235437171831E-03
 cg2d: Sum(rhs),rhsMax =   2.32702190849920E-11  3.43854400561723E-03
 cg2d: Sum(rhs),rhsMax =   2.32915908782161E-11  3.44463404827273E-03
 cg2d: Sum(rhs),rhsMax =   2.33227326340568E-11  3.45061613629820E-03
 cg2d: Sum(rhs),rhsMax =   2.33622565737335E-11  3.45648090818921E-03
 cg2d: Sum(rhs),rhsMax =   2.33874031252412E-11  3.46221711847854E-03
 cg2d: Sum(rhs),rhsMax =   2.33928987292131E-11  3.46781159869108E-03
 cg2d: Sum(rhs),rhsMax =   2.34247621300199E-11  3.47325028813925E-03
 cg2d: Sum(rhs),rhsMax =   2.34879338201210E-11  3.47851522684258E-03
 cg2d: Sum(rhs),rhsMax =   2.35181318863908E-11  3.48358791569011E-03
 cg2d: Sum(rhs),rhsMax =   2.36127228880889E-11  3.48844775116805E-03
 cg2d: Sum(rhs),rhsMax =   2.37053154883426E-11  3.49307230236479E-03
 cg2d: Sum(rhs),rhsMax =   2.37264652369618E-11  3.49743838429847E-03
 cg2d: Sum(rhs),rhsMax =   2.37598829500030E-11  3.50152190084588E-03
 cg2d: Sum(rhs),rhsMax =   2.37280750603475E-11  3.51431389555228E-03
 cg2d: Sum(rhs),rhsMax =   2.36884400983683E-11  3.52848557824905E-03
 cg2d: Sum(rhs),rhsMax =   2.36830555166989E-11  3.54255555861242E-03
 cg2d: Sum(rhs),rhsMax =   2.36481945137257E-11  3.55651468852395E-03
 cg2d: Sum(rhs),rhsMax =   2.36403674414021E-11  3.57035352598181E-03
 cg2d: Sum(rhs),rhsMax =   2.36601294112404E-11  3.58406231854540E-03
 cg2d: Sum(rhs),rhsMax =   2.36594077662744E-11  3.59763118823682E-03
 cg2d: Sum(rhs),rhsMax =   2.36532460284877E-11  3.61105012306583E-03
 cg2d: Sum(rhs),rhsMax =   2.36369257500257E-11  3.62430787532965E-03
 cg2d: Sum(rhs),rhsMax =   2.36354269489425E-11  3.63739702296307E-03
 cg2d: Sum(rhs),rhsMax =   2.36238806294864E-11  3.65030553009423E-03
 cg2d: Sum(rhs),rhsMax =   2.36278219212238E-11  3.66302283186294E-03
 cg2d: Sum(rhs),rhsMax =   2.35984842777981E-11  3.67553638269663E-03
 cg2d: Sum(rhs),rhsMax =   2.35560182471062E-11  3.68783780850908E-03
 cg2d: Sum(rhs),rhsMax =   2.35473862630897E-11  3.69991704836246E-03
 cg2d: Sum(rhs),rhsMax =   2.35540198456619E-11  3.71176370028361E-03
 cg2d: Sum(rhs),rhsMax =   2.35641506307616E-11  3.72336799873759E-03
 cg2d: Sum(rhs),rhsMax =   2.35686192784357E-11  3.73471975496725E-03
 cg2d: Sum(rhs),rhsMax =   2.35760300171250E-11  3.74580973010093E-03
 cg2d: Sum(rhs),rhsMax =   2.35890473820888E-11  3.75662877553801E-03
 cg2d: Sum(rhs),rhsMax =   2.36062835945461E-11  3.76716804701297E-03
 cg2d: Sum(rhs),rhsMax =   2.36208830273199E-11  3.77741911866503E-03
 cg2d: Sum(rhs),rhsMax =   2.36506647599555E-11  3.78737405114654E-03
 cg2d: Sum(rhs),rhsMax =   2.36701491740376E-11  3.79702543568467E-03
 cg2d: Sum(rhs),rhsMax =   2.36791419805371E-11  3.80636429524093E-03
 cg2d: Sum(rhs),rhsMax =   2.36973218825653E-11  3.81538570696781E-03
 cg2d: Sum(rhs),rhsMax =   2.37452835172292E-11  3.82408479085400E-03
 cg2d: Sum(rhs),rhsMax =   2.37913855283267E-11  3.83249840758256E-03
 cg2d: Sum(rhs),rhsMax =   2.37834196781250E-11  3.84057921183483E-03
 cg2d: Sum(rhs),rhsMax =   2.38022657139680E-11  3.84832297651524E-03
 cg2d: Sum(rhs),rhsMax =   2.38315478462425E-11  3.85572647421501E-03
 cg2d: Sum(rhs),rhsMax =   2.38728758983342E-11  3.86278711696287E-03
 cg2d: Sum(rhs),rhsMax =   2.39113173705618E-11  3.86950318887125E-03
 cg2d: Sum(rhs),rhsMax =   2.39145647729089E-11  3.87587365237497E-03
 cg2d: Sum(rhs),rhsMax =   2.39248343358867E-11  3.88189829796916E-03
 cg2d: Sum(rhs),rhsMax =   2.39779307520394E-11  3.88757767876378E-03
 cg2d: Sum(rhs),rhsMax =   2.40183983812869E-11  3.89291317737590E-03
 cg2d: Sum(rhs),rhsMax =   2.40566733200609E-11  3.89790714668752E-03
 cg2d: Sum(rhs),rhsMax =   2.40922282124245E-11  3.90256272190402E-03
 cg2d: Sum(rhs),rhsMax =   2.41455744287578E-11  3.90688336164089E-03
 cg2d: Sum(rhs),rhsMax =   2.41790198973746E-11  3.91087462906266E-03
 Computing Diagnostic #    26 "THETA   " (list#  1) Parms "SMR     MR      ", Count=     144
 Computing Diagnostic #    27 "SALT    " (list#  1) Parms "SMR     MR      ", Count=     144
 Computing Diagnostic #    30 "UVEL    " (list#  1) Parms "UUR     MR      ", Count=     144
             Vector  Mate for "UVEL    " :  Diagnostic #     31 "VVEL    " exists
 Computing Diagnostic #    32 "WVEL    " (list#  1) Parms "WM      LR      ", Count=     144
 Computing Diagnostic #    31 "VVEL    " (list#  1) Parms "VVR     MR      ", Count=     144
             Vector  Mate for "VVEL    " :  Diagnostic #     30 "UVEL    " exists
 Computing Diagnostic #   197 "BRGfwFlx" (list#  2) Parms "SM      MR      ", Count=     144
 Computing Diagnostic #   198 "BRGhtFlx" (list#  2) Parms "SM      MR      ", Count=     144
 Computing Diagnostic #   199 "BRGmltRt" (list#  2) Parms "SM      MR      ", Count=     144
 Computing Diagnostic #   201 "BRG_TauX" (list#  2) Parms "UU      MR      ", Count=    1728
 Computing Diagnostic #   202 "BRG_TauY" (list#  2) Parms "VV      MR      ", Count=    1728
 Computing Diagnostic #   203 "BRGhFacC" (list#  2) Parms "SM      MR      ", Count=    1728
 cg2d: Sum(rhs),rhsMax =   2.42505460157361E-11  3.91454303878404E-03
 cg2d: Sum(rhs),rhsMax =   2.42861286636753E-11  3.91789503216655E-03
 cg2d: Sum(rhs),rhsMax =   2.43487452422642E-11  3.92093823703377E-03
 cg2d: Sum(rhs),rhsMax =   2.43791375975633E-11  3.92368106212253E-03
 cg2d: Sum(rhs),rhsMax =   2.44826381390340E-11  3.92613276035992E-03
 cg2d: Sum(rhs),rhsMax =   2.45205800109005E-11  3.92830343570649E-03
 cg2d: Sum(rhs),rhsMax =   2.45714004698527E-11  3.93020406451550E-03
 cg2d: Sum(rhs),rhsMax =   2.46416220761603E-11  3.93184628614733E-03
 cg2d: Sum(rhs),rhsMax =   2.46756504118650E-11  3.93321704403831E-03
 cg2d: Sum(rhs),rhsMax =   2.47262488262123E-11  3.93435410083859E-03
 cg2d: Sum(rhs),rhsMax =   2.47825371335608E-11  3.93527168661637E-03
 cg2d: Sum(rhs),rhsMax =   2.48700782190525E-11  3.93598347371405E-03
 cg2d: Sum(rhs),rhsMax =   2.49387177575500E-11  3.93650471112758E-03
 cg2d: Sum(rhs),rhsMax =   2.50177933924789E-11  3.93688762517672E-03
 cg2d: Sum(rhs),rhsMax =   2.51034470988287E-11  3.93711339740648E-03
 cg2d: Sum(rhs),rhsMax =   2.51509091331314E-11  3.93719693660942E-03
 cg2d: Sum(rhs),rhsMax =   2.52320109250803E-11  3.93715600850180E-03
 cg2d: Sum(rhs),rhsMax =   2.53070620015450E-11  3.93700828506892E-03
 cg2d: Sum(rhs),rhsMax =   2.53983223341692E-11  3.93677475668949E-03
 cg2d: Sum(rhs),rhsMax =   2.54782861475178E-11  3.93647079999249E-03
 cg2d: Sum(rhs),rhsMax =   2.55483689759473E-11  3.93611502406738E-03
 cg2d: Sum(rhs),rhsMax =   2.56326071479407E-11  3.93572610697389E-03
 cg2d: Sum(rhs),rhsMax =   2.57237564582624E-11  3.93532258144820E-03
 cg2d: Sum(rhs),rhsMax =   2.57826537897188E-11  3.93492376425096E-03
 cg2d: Sum(rhs),rhsMax =   2.58432719668633E-11  3.93454863007165E-03
 cg2d: Sum(rhs),rhsMax =   2.59028354321345E-11  3.93421619371868E-03
 cg2d: Sum(rhs),rhsMax =   2.59779697753260E-11  3.93394525514296E-03
 cg2d: Sum(rhs),rhsMax =   2.60806098939526E-11  3.93375452905003E-03
 cg2d: Sum(rhs),rhsMax =   2.61795585210223E-11  3.93366249852597E-03
 cg2d: Sum(rhs),rhsMax =   2.62677657403287E-11  3.93368735856736E-03
 cg2d: Sum(rhs),rhsMax =   2.63288557622587E-11  3.93384701796097E-03
 cg2d: Sum(rhs),rhsMax =   2.64018806817035E-11  3.93415890079990E-03
 cg2d: Sum(rhs),rhsMax =   2.64882560330193E-11  3.93464005951760E-03
 cg2d: Sum(rhs),rhsMax =   2.65407140709328E-11  3.93530706764654E-03
 cg2d: Sum(rhs),rhsMax =   2.66170696594514E-11  3.93617607922833E-03
 cg2d: Sum(rhs),rhsMax =   2.66867916653979E-11  3.93726247063101E-03
 cg2d: Sum(rhs),rhsMax =   2.67587341173936E-11  3.93858115315329E-03
 cg2d: Sum(rhs),rhsMax =   2.68082223087163E-11  3.94014609179806E-03
 cg2d: Sum(rhs),rhsMax =   2.68577382556145E-11  3.94197011892877E-03
 cg2d: Sum(rhs),rhsMax =   2.69109179384941E-11  3.94406658460176E-03
 cg2d: Sum(rhs),rhsMax =   2.69976818678686E-11  3.94644948835583E-03
 cg2d: Sum(rhs),rhsMax =   2.70713451655524E-11  3.94912507138254E-03
 cg2d: Sum(rhs),rhsMax =   2.71029032550274E-11  3.95210293720881E-03
 cg2d: Sum(rhs),rhsMax =   2.71447864186314E-11  3.95539227961379E-03
 cg2d: Sum(rhs),rhsMax =   2.71855038480595E-11  3.95900088411326E-03
 cg2d: Sum(rhs),rhsMax =   2.72232236753212E-11  3.96293643899624E-03
 cg2d: Sum(rhs),rhsMax =   2.72659117506180E-11  3.96720524338300E-03
 cg2d: Sum(rhs),rhsMax =   2.73187306110145E-11  3.97181259393967E-03
 cg2d: Sum(rhs),rhsMax =   2.73217004576054E-11  3.97676266141782E-03
 cg2d: Sum(rhs),rhsMax =   2.73702727149328E-11  3.98205877598956E-03
 cg2d: Sum(rhs),rhsMax =   2.73980838016996E-11  3.98770315107295E-03
 cg2d: Sum(rhs),rhsMax =   2.74253675325298E-11  3.99369683229500E-03
 cg2d: Sum(rhs),rhsMax =   2.74445188797046E-11  4.00004001015197E-03
 cg2d: Sum(rhs),rhsMax =   2.74819889067857E-11  4.00673078053688E-03
 cg2d: Sum(rhs),rhsMax =   2.74930911370319E-11  4.01376807932603E-03
 cg2d: Sum(rhs),rhsMax =   2.75274247840684E-11  4.02109463465339E-03
 cg2d: Sum(rhs),rhsMax =   2.75188760667788E-11  4.02876129444618E-03
 cg2d: Sum(rhs),rhsMax =   2.75523770465469E-11  4.03676380703777E-03
 cg2d: Sum(rhs),rhsMax =   2.75593714516020E-11  4.04510220713362E-03
 cg2d: Sum(rhs),rhsMax =   2.75591771625727E-11  4.05376482776518E-03
 cg2d: Sum(rhs),rhsMax =   2.75811040673091E-11  4.06274456593294E-03
 cg2d: Sum(rhs),rhsMax =   2.75839073804462E-11  4.07203358042086E-03
 cg2d: Sum(rhs),rhsMax =   2.76052236625191E-11  4.08162318297879E-03
 cg2d: Sum(rhs),rhsMax =   2.76266787224699E-11  4.09150349805529E-03
 cg2d: Sum(rhs),rhsMax =   2.76414446886974E-11  4.10166482764157E-03
 cg2d: Sum(rhs),rhsMax =   2.76265121890162E-11  4.11209636800333E-03
 cg2d: Sum(rhs),rhsMax =   2.76184630720877E-11  4.12278667104777E-03
 cg2d: Sum(rhs),rhsMax =   2.76100808882518E-11  4.13372374061551E-03
 cg2d: Sum(rhs),rhsMax =   2.76143830024722E-11  4.14489493803848E-03
 cg2d: Sum(rhs),rhsMax =   2.75950651218437E-11  4.15628745347170E-03
 cg2d: Sum(rhs),rhsMax =   2.75818534678507E-11  4.16788794588110E-03
 cg2d: Sum(rhs),rhsMax =   2.75619249645587E-11  4.17968265205844E-03
 cg2d: Sum(rhs),rhsMax =   2.75721390163852E-11  4.19165758589931E-03
 cg2d: Sum(rhs),rhsMax =   2.75919842529504E-11  4.20379843182390E-03
 cg2d: Sum(rhs),rhsMax =   2.75647560332715E-11  4.21609072371588E-03
 cg2d: Sum(rhs),rhsMax =   2.75315326092596E-11  4.22852866424604E-03
 cg2d: Sum(rhs),rhsMax =   2.75061640131469E-11  4.24108761724873E-03
 cg2d: Sum(rhs),rhsMax =   2.75238165592384E-11  4.25375400989586E-03
 cg2d: Sum(rhs),rhsMax =   2.75401645932760E-11  4.26651339050645E-03
 cg2d: Sum(rhs),rhsMax =   2.75232614477261E-11  4.27935114490581E-03
 cg2d: Sum(rhs),rhsMax =   2.74813505285465E-11  4.29225281165877E-03
 cg2d: Sum(rhs),rhsMax =   2.74733014116180E-11  4.30520414321898E-03
 cg2d: Sum(rhs),rhsMax =   2.74458233917585E-11  4.31819115399477E-03
 cg2d: Sum(rhs),rhsMax =   2.74531508637210E-11  4.33120017394220E-03
 cg2d: Sum(rhs),rhsMax =   2.74718581216860E-11  4.34421788377937E-03
 cg2d: Sum(rhs),rhsMax =   2.74478773043541E-11  4.35723135801598E-03
 cg2d: Sum(rhs),rhsMax =   2.74319456039507E-11  4.37022862711435E-03
 cg2d: Sum(rhs),rhsMax =   2.74128220123515E-11  4.38319312508576E-03
 cg2d: Sum(rhs),rhsMax =   2.73804035000325E-11  4.39611717047298E-03
 cg2d: Sum(rhs),rhsMax =   2.73554512375540E-11  4.40898998442614E-03
 cg2d: Sum(rhs),rhsMax =   2.73358280455938E-11  4.42180116330572E-03
 cg2d: Sum(rhs),rhsMax =   2.73059630462313E-11  4.43454098571746E-03
 cg2d: Sum(rhs),rhsMax =   2.73166766984190E-11  4.44720087006207E-03
 cg2d: Sum(rhs),rhsMax =   2.72826761182898E-11  4.45976566958530E-03
 cg2d: Sum(rhs),rhsMax =   2.72994127303861E-11  4.47223389068353E-03
 cg2d: Sum(rhs),rhsMax =   2.73081279811294E-11  4.48459857515569E-03
 cg2d: Sum(rhs),rhsMax =   2.72948330604095E-11  4.49685330092324E-03
 cg2d: Sum(rhs),rhsMax =   2.72911415688526E-11  4.50899097768210E-03
 cg2d: Sum(rhs),rhsMax =   2.72902256348573E-11  4.52100688414521E-03
 cg2d: Sum(rhs),rhsMax =   2.72864786321492E-11  4.53289669514059E-03
 cg2d: Sum(rhs),rhsMax =   2.72733224893074E-11  4.54465710117086E-03
 cg2d: Sum(rhs),rhsMax =   2.72936118150824E-11  4.55628544887885E-03
 cg2d: Sum(rhs),rhsMax =   2.73068512246510E-11  4.56777932421822E-03
 cg2d: Sum(rhs),rhsMax =   2.73256972604941E-11  4.57914122771990E-03
 cg2d: Sum(rhs),rhsMax =   2.73413791607169E-11  4.59036770380987E-03
 cg2d: Sum(rhs),rhsMax =   2.73386591143066E-11  4.60145880062164E-03
 cg2d: Sum(rhs),rhsMax =   2.73530920136267E-11  4.61241204295813E-03
 cg2d: Sum(rhs),rhsMax =   2.73382705362479E-11  4.62323238890599E-03
 cg2d: Sum(rhs),rhsMax =   2.73233380365667E-11  4.63392207365237E-03
 cg2d: Sum(rhs),rhsMax =   2.73232270142643E-11  4.64448388641626E-03
 cg2d: Sum(rhs),rhsMax =   2.73258082827965E-11  4.65492121138076E-03
 cg2d: Sum(rhs),rhsMax =   2.73315536869490E-11  4.66523796853212E-03
 cg2d: Sum(rhs),rhsMax =   2.73273348394554E-11  4.67543859494522E-03
 cg2d: Sum(rhs),rhsMax =   2.73591427291109E-11  4.68552797110621E-03
 cg2d: Sum(rhs),rhsMax =   2.73716882492892E-11  4.69551141618892E-03
 cg2d: Sum(rhs),rhsMax =   2.73689959584544E-11  4.70539462733709E-03
 cg2d: Sum(rhs),rhsMax =   2.73808475892423E-11  4.71518365572614E-03
 cg2d: Sum(rhs),rhsMax =   2.74086864315848E-11  4.72488484288809E-03
 cg2d: Sum(rhs),rhsMax =   2.74417988332942E-11  4.73450478522756E-03
 cg2d: Sum(rhs),rhsMax =   2.74389122534302E-11  4.74404987034987E-03
 cg2d: Sum(rhs),rhsMax =   2.74641975828160E-11  4.75352793470488E-03
 cg2d: Sum(rhs),rhsMax =   2.74757161466965E-11  4.76294571223898E-03
 cg2d: Sum(rhs),rhsMax =   2.75039990782489E-11  4.77231027035622E-03
 cg2d: Sum(rhs),rhsMax =   2.75233447144529E-11  4.78162885212314E-03
 cg2d: Sum(rhs),rhsMax =   2.75643674552128E-11  4.79090861109441E-03
 cg2d: Sum(rhs),rhsMax =   2.75662270787791E-11  4.80015220282521E-03
 cg2d: Sum(rhs),rhsMax =   2.75840739138999E-11  4.80937080571435E-03
 cg2d: Sum(rhs),rhsMax =   2.76232647866692E-11  4.81857110320969E-03
 cg2d: Sum(rhs),rhsMax =   2.76531297860316E-11  4.82775955272511E-03
 cg2d: Sum(rhs),rhsMax =   2.76643985497316E-11  4.83694254959695E-03
 cg2d: Sum(rhs),rhsMax =   2.76942080379428E-11  4.84617304226317E-03
 cg2d: Sum(rhs),rhsMax =   2.77192435671481E-11  4.85541443079103E-03
 cg2d: Sum(rhs),rhsMax =   2.77390055369864E-11  4.86466647441445E-03
 cg2d: Sum(rhs),rhsMax =   2.77630141098939E-11  4.87393477782059E-03
 cg2d: Sum(rhs),rhsMax =   2.77894651734556E-11  4.88322242436798E-03
 cg2d: Sum(rhs),rhsMax =   2.77893819067287E-11  4.89253261817562E-03
 cg2d: Sum(rhs),rhsMax =   2.78238265760677E-11  4.90186900623034E-03
 cg2d: Sum(rhs),rhsMax =   2.78333467385039E-11  4.91125700217048E-03
 cg2d: Sum(rhs),rhsMax =   2.78697898092872E-11  4.92067778123925E-03
 cg2d: Sum(rhs),rhsMax =   2.78780887263963E-11  4.93013226996292E-03
 cg2d: Sum(rhs),rhsMax =   2.78816414400751E-11  4.93962223859373E-03
 cg2d: Sum(rhs),rhsMax =   2.78945755383120E-11  4.94914864425718E-03
 cg2d: Sum(rhs),rhsMax =   2.79234413369522E-11  4.95892289162808E-03
 cg2d: Sum(rhs),rhsMax =   2.79372636136088E-11  4.96874163118911E-03
 Computing Diagnostic #    26 "THETA   " (list#  1) Parms "SMR     MR      ", Count=     144
 Computing Diagnostic #    27 "SALT    " (list#  1) Parms "SMR     MR      ", Count=     144
 Computing Diagnostic #    30 "UVEL    " (list#  1) Parms "UUR     MR      ", Count=     144
             Vector  Mate for "UVEL    " :  Diagnostic #     31 "VVEL    " exists
 Computing Diagnostic #    32 "WVEL    " (list#  1) Parms "WM      LR      ", Count=     144
 Computing Diagnostic #    31 "VVEL    " (list#  1) Parms "VVR     MR      ", Count=     144
             Vector  Mate for "VVEL    " :  Diagnostic #     30 "UVEL    " exists
 Computing Diagnostic #   197 "BRGfwFlx" (list#  2) Parms "SM      MR      ", Count=     144
 Computing Diagnostic #   198 "BRGhtFlx" (list#  2) Parms "SM      MR      ", Count=     144
 Computing Diagnostic #   199 "BRGmltRt" (list#  2) Parms "SM      MR      ", Count=     144
 Computing Diagnostic #   201 "BRG_TauX" (list#  2) Parms "UU      MR      ", Count=    1728
 Computing Diagnostic #   202 "BRG_TauY" (list#  2) Parms "VV      MR      ", Count=    1728
 Computing Diagnostic #   203 "BRGhFacC" (list#  2) Parms "SM      MR      ", Count=    1728
 cg2d: Sum(rhs),rhsMax =   2.79532785807390E-11  4.97859311978306E-03
 cg2d: Sum(rhs),rhsMax =   2.80039047506619E-11  4.98848072518276E-03
 cg2d: Sum(rhs),rhsMax =   2.80188650059188E-11  4.99840539526357E-03
 cg2d: Sum(rhs),rhsMax =   2.80144796249715E-11  5.00836419143012E-03
 cg2d: Sum(rhs),rhsMax =   2.80071521530090E-11  5.01835351542924E-03
 cg2d: Sum(rhs),rhsMax =   2.80084844206385E-11  5.02836934843973E-03
 cg2d: Sum(rhs),rhsMax =   2.80049594625353E-11  5.03840724659057E-03
 cg2d: Sum(rhs),rhsMax =   2.80150624920594E-11  5.04846237973479E-03
 cg2d: Sum(rhs),rhsMax =   2.80207523850606E-11  5.05852934159605E-03
 cg2d: Sum(rhs),rhsMax =   2.80153678033912E-11  5.06860231968176E-03
 cg2d: Sum(rhs),rhsMax =   2.80158118926011E-11  5.07867508364508E-03
 cg2d: Sum(rhs),rhsMax =   2.80187262280407E-11  5.08873939880334E-03
 cg2d: Sum(rhs),rhsMax =   2.80243606098907E-11  5.09878997856875E-03
 cg2d: Sum(rhs),rhsMax =   2.80228062976562E-11  5.10881964510131E-03
 cg2d: Sum(rhs),rhsMax =   2.80336587277219E-11  5.11882093011344E-03
 cg2d: Sum(rhs),rhsMax =   2.80607759250984E-11  5.12878615376661E-03
 cg2d: Sum(rhs),rhsMax =   2.80661049956166E-11  5.13870744533968E-03
 cg2d: Sum(rhs),rhsMax =   2.80789835827022E-11  5.14857636316111E-03
 cg2d: Sum(rhs),rhsMax =   2.80641343497479E-11  5.15838515917009E-03
 cg2d: Sum(rhs),rhsMax =   2.80853951206694E-11  5.16812583082611E-03
 cg2d: Sum(rhs),rhsMax =   2.80871714775088E-11  5.17778995892520E-03
 cg2d: Sum(rhs),rhsMax =   2.81046852457223E-11  5.18736958849512E-03
 cg2d: Sum(rhs),rhsMax =   2.81199230567353E-11  5.19685489684397E-03
 cg2d: Sum(rhs),rhsMax =   2.81324408213379E-11  5.20623922611880E-03
 cg2d: Sum(rhs),rhsMax =   2.81563106163674E-11  5.21551462765337E-03
 cg2d: Sum(rhs),rhsMax =   2.81762391196594E-11  5.22467331057801E-03
 cg2d: Sum(rhs),rhsMax =   2.81848155925246E-11  5.23370771376126E-03
 cg2d: Sum(rhs),rhsMax =   2.81823175907192E-11  5.24261054707282E-03
 cg2d: Sum(rhs),rhsMax =   2.81956680225903E-11  5.25137413000448E-03
 cg2d: Sum(rhs),rhsMax =   2.82227574643912E-11  5.25999375899315E-03
 cg2d: Sum(rhs),rhsMax =   2.82459056144546E-11  5.26846133168147E-03
 cg2d: Sum(rhs),rhsMax =   2.82756595915146E-11  5.27677096427293E-03
 cg2d: Sum(rhs),rhsMax =   2.82776857485345E-11  5.28491738968784E-03
 cg2d: Sum(rhs),rhsMax =   2.82981971189145E-11  5.29289516888518E-03
 cg2d: Sum(rhs),rhsMax =   2.83283119184574E-11  5.30069954545403E-03
 cg2d: Sum(rhs),rhsMax =   2.83695567038222E-11  5.30832625622694E-03
 cg2d: Sum(rhs),rhsMax =   2.83744139295550E-11  5.31577157905881E-03
 cg2d: Sum(rhs),rhsMax =   2.84051948629127E-11  5.32303360272030E-03
 cg2d: Sum(rhs),rhsMax =   2.83917056531635E-11  5.33010845619716E-03
 cg2d: Sum(rhs),rhsMax =   2.84150203366806E-11  5.33699387310636E-03
 cg2d: Sum(rhs),rhsMax =   2.84180179388471E-11  5.34368864823243E-03
 cg2d: Sum(rhs),rhsMax =   2.84200718514427E-11  5.35019195602181E-03
 cg2d: Sum(rhs),rhsMax =   2.84597900801487E-11  5.35650379169743E-03
 cg2d: Sum(rhs),rhsMax =   2.84514634074640E-11  5.36262415175447E-03
 cg2d: Sum(rhs),rhsMax =   2.84982593079519E-11  5.36855400540604E-03
 cg2d: Sum(rhs),rhsMax =   2.85448054082593E-11  5.37429450223026E-03
 cg2d: Sum(rhs),rhsMax =   2.85734769178703E-11  5.37984796561517E-03
 cg2d: Sum(rhs),rhsMax =   2.85799717225643E-11  5.38521726502095E-03
 cg2d: Sum(rhs),rhsMax =   2.86135837246349E-11  5.39040585150781E-03
 cg2d: Sum(rhs),rhsMax =   2.86415058337042E-11  5.39541710381855E-03
 cg2d: Sum(rhs),rhsMax =   2.86738133237208E-11  5.40025622523158E-03
 cg2d: Sum(rhs),rhsMax =   2.87003754095849E-11  5.40492817908233E-03
 cg2d: Sum(rhs),rhsMax =   2.87397883269591E-11  5.40943881286365E-03
 cg2d: Sum(rhs),rhsMax =   2.87693757705654E-11  5.41379449283820E-03
 cg2d: Sum(rhs),rhsMax =   2.87947721222537E-11  5.41800314852503E-03
 cg2d: Sum(rhs),rhsMax =   2.88464252484744E-11  5.42207063912779E-03
 cg2d: Sum(rhs),rhsMax =   2.89065993364090E-11  5.42600450285685E-03
 cg2d: Sum(rhs),rhsMax =   2.89398782715722E-11  5.42981112714265E-03
 cg2d: Sum(rhs),rhsMax =   2.89747392745454E-11  5.43350024142705E-03
 cg2d: Sum(rhs),rhsMax =   2.90361346078072E-11  5.43707997333862E-03
 cg2d: Sum(rhs),rhsMax =   2.90908686029212E-11  5.44055963707239E-03
 cg2d: Sum(rhs),rhsMax =   2.91549007158665E-11  5.44394873205378E-03
 cg2d: Sum(rhs),rhsMax =   2.91984214584318E-11  5.44725660905272E-03
 cg2d: Sum(rhs),rhsMax =   2.92313673266875E-11  5.45048965072200E-03
 cg2d: Sum(rhs),rhsMax =   2.92578183902492E-11  5.45366111555105E-03
 cg2d: Sum(rhs),rhsMax =   2.93136903639635E-11  5.45678047088404E-03
 cg2d: Sum(rhs),rhsMax =   2.93675084250822E-11  5.45983986022142E-03
 cg2d: Sum(rhs),rhsMax =   2.94135271694529E-11  5.46286637723390E-03
 cg2d: Sum(rhs),rhsMax =   2.94628488273219E-11  5.46587103946608E-03
 cg2d: Sum(rhs),rhsMax =   2.95085900159364E-11  5.46886364092311E-03
 cg2d: Sum(rhs),rhsMax =   2.95501123570574E-11  5.47185417445602E-03
 cg2d: Sum(rhs),rhsMax =   2.95933832994422E-11  5.47485248437240E-03
 cg2d: Sum(rhs),rhsMax =   2.96576097014167E-11  5.47786830706781E-03
 cg2d: Sum(rhs),rhsMax =   2.96855040549104E-11  5.48091127179966E-03
 cg2d: Sum(rhs),rhsMax =   2.97314950437055E-11  5.48398913140858E-03
 cg2d: Sum(rhs),rhsMax =   2.97880609068102E-11  5.48711295745839E-03
 cg2d: Sum(rhs),rhsMax =   2.98333024950637E-11  5.49029126080369E-03
 cg2d: Sum(rhs),rhsMax =   2.98572278012443E-11  5.49353254522220E-03
 cg2d: Sum(rhs),rhsMax =   2.99229807598778E-11  5.49684501954670E-03
 cg2d: Sum(rhs),rhsMax =   2.99687774596435E-11  5.50023646208692E-03
 cg2d: Sum(rhs),rhsMax =   3.00280356135829E-11  5.50371447558601E-03
 cg2d: Sum(rhs),rhsMax =   3.00841018763265E-11  5.50728576569607E-03
 cg2d: Sum(rhs),rhsMax =   3.00816038745211E-11  5.51095681107938E-03
 cg2d: Sum(rhs),rhsMax =   3.01226266152810E-11  5.51473383442162E-03
 cg2d: Sum(rhs),rhsMax =   3.01910996203247E-11  5.51862258610992E-03
 cg2d: Sum(rhs),rhsMax =   3.02099456561677E-11  5.52262830542827E-03
 cg2d: Sum(rhs),rhsMax =   3.02594893586416E-11  5.52674460348258E-03
 cg2d: Sum(rhs),rhsMax =   3.02673441865409E-11  5.53098704451698E-03
 cg2d: Sum(rhs),rhsMax =   3.03002345436454E-11  5.53535959935266E-03
 cg2d: Sum(rhs),rhsMax =   3.03322644779058E-11  5.53986477106010E-03
 cg2d: Sum(rhs),rhsMax =   3.03856662053903E-11  5.54450394418568E-03
 cg2d: Sum(rhs),rhsMax =   3.04252734117938E-11  5.54927962461214E-03
 cg2d: Sum(rhs),rhsMax =   3.04429537134610E-11  5.55419388673373E-03
 cg2d: Sum(rhs),rhsMax =   3.04837544096159E-11  5.55924483687864E-03
 cg2d: Sum(rhs),rhsMax =   3.05230285491120E-11  5.56443705762050E-03
 cg2d: Sum(rhs),rhsMax =   3.05467595662634E-11  5.56977122854548E-03
 cg2d: Sum(rhs),rhsMax =   3.05745984086059E-11  5.57524771173080E-03
 cg2d: Sum(rhs),rhsMax =   3.06200620414643E-11  5.58086655395145E-03
 cg2d: Sum(rhs),rhsMax =   3.06636938063320E-11  5.58662625186795E-03
 cg2d: Sum(rhs),rhsMax =   3.07038561242479E-11  5.59252738390896E-03
 cg2d: Sum(rhs),rhsMax =   3.07202596694367E-11  5.59856783996969E-03
 cg2d: Sum(rhs),rhsMax =   3.07611436323185E-11  5.60474790224015E-03
 cg2d: Sum(rhs),rhsMax =   3.07791014897418E-11  5.61106389642652E-03
 cg2d: Sum(rhs),rhsMax =   3.08036929297373E-11  5.61751338511484E-03
 cg2d: Sum(rhs),rhsMax =   3.08476022503612E-11  5.62409403015153E-03
 cg2d: Sum(rhs),rhsMax =   3.08645886626380E-11  5.63080283378548E-03
 cg2d: Sum(rhs),rhsMax =   3.08577607910365E-11  5.64080922900086E-03
 cg2d: Sum(rhs),rhsMax =   3.08214564981313E-11  5.65569799785051E-03
 cg2d: Sum(rhs),rhsMax =   3.08150172045885E-11  5.67036826255099E-03
 cg2d: Sum(rhs),rhsMax =   3.08084946443188E-11  5.68481242979620E-03
 cg2d: Sum(rhs),rhsMax =   3.07937286780913E-11  5.69902332411413E-03
 cg2d: Sum(rhs),rhsMax =   3.08169600948816E-11  5.71299415277253E-03
 cg2d: Sum(rhs),rhsMax =   3.08083003552895E-11  5.72673663640783E-03
 cg2d: Sum(rhs),rhsMax =   3.07914804764664E-11  5.74022687174820E-03
 cg2d: Sum(rhs),rhsMax =   3.08115755132121E-11  5.75345932181797E-03
 cg2d: Sum(rhs),rhsMax =   3.07999459270292E-11  5.76642906452446E-03
 cg2d: Sum(rhs),rhsMax =   3.07886771633292E-11  5.77913152211236E-03
 cg2d: Sum(rhs),rhsMax =   3.07833480928110E-11  5.79156259194290E-03
 cg2d: Sum(rhs),rhsMax =   3.07593950310547E-11  5.80371861324665E-03
 cg2d: Sum(rhs),rhsMax =   3.07483760675353E-11  5.81559639707773E-03
 cg2d: Sum(rhs),rhsMax =   3.07415481959339E-11  5.82719329017858E-03
 cg2d: Sum(rhs),rhsMax =   3.07391612164309E-11  5.83850702649048E-03
 cg2d: Sum(rhs),rhsMax =   3.07446568204028E-11  5.84953569617127E-03
 cg2d: Sum(rhs),rhsMax =   3.07444625313735E-11  5.86027790114713E-03
 cg2d: Sum(rhs),rhsMax =   3.07583958303326E-11  5.87073258088269E-03
 cg2d: Sum(rhs),rhsMax =   3.07794345566492E-11  5.88089902775989E-03
 cg2d: Sum(rhs),rhsMax =   3.07743275307359E-11  5.89077690147785E-03
 cg2d: Sum(rhs),rhsMax =   3.07732450632869E-11  5.90036619014613E-03
 cg2d: Sum(rhs),rhsMax =   3.07910918984078E-11  5.90966725418574E-03
 cg2d: Sum(rhs),rhsMax =   3.08003900162390E-11  5.91868075886715E-03
 cg2d: Sum(rhs),rhsMax =   3.08227610101852E-11  5.92746037413388E-03
 cg2d: Sum(rhs),rhsMax =   3.08480740951467E-11  5.93595498138973E-03
 cg2d: Sum(rhs),rhsMax =   3.08382763769544E-11  5.94416520084545E-03
 cg2d: Sum(rhs),rhsMax =   3.08481018507223E-11  5.95209268241864E-03
 cg2d: Sum(rhs),rhsMax =   3.08673642201995E-11  5.95973892271814E-03
 cg2d: Sum(rhs),rhsMax =   3.08943703952735E-11  5.96710454095811E-03
 cg2d: Sum(rhs),rhsMax =   3.09202663473229E-11  5.97419331589904E-03
 cg2d: Sum(rhs),rhsMax =   3.09393899389221E-11  5.98100768339673E-03
 cg2d: Sum(rhs),rhsMax =   3.09609837767510E-11  5.98755274062241E-03
 cg2d: Sum(rhs),rhsMax =   3.09958170241487E-11  5.99382879748082E-03
 cg2d: Sum(rhs),rhsMax =   3.10449999041396E-11  5.99983853955591E-03
 cg2d: Sum(rhs),rhsMax =   3.10483028176378E-11  6.00558493862789E-03
 cg2d: Sum(rhs),rhsMax =   3.10758363486485E-11  6.01107102750623E-03
 cg2d: Sum(rhs),rhsMax =   3.11151937548715E-11  6.01629991108882E-03
 Computing Diagnostic #    26 "THETA   " (list#  1) Parms "SMR     MR      ", Count=     144
 Computing Diagnostic #    27 "SALT    " (list#  1) Parms "SMR     MR      ", Count=     144
 Computing Diagnostic #    30 "UVEL    " (list#  1) Parms "UUR     MR      ", Count=     144
             Vector  Mate for "UVEL    " :  Diagnostic #     31 "VVEL    " exists
 Computing Diagnostic #    32 "WVEL    " (list#  1) Parms "WM      LR      ", Count=     144
 Computing Diagnostic #    31 "VVEL    " (list#  1) Parms "VVR     MR      ", Count=     144
             Vector  Mate for "VVEL    " :  Diagnostic #     30 "UVEL    " exists
 Computing Diagnostic #   197 "BRGfwFlx" (list#  2) Parms "SM      MR      ", Count=     144
 Computing Diagnostic #   198 "BRGhtFlx" (list#  2) Parms "SM      MR      ", Count=     144
 Computing Diagnostic #   199 "BRGmltRt" (list#  2) Parms "SM      MR      ", Count=     144
 Computing Diagnostic #   201 "BRG_TauX" (list#  2) Parms "UU      MR      ", Count=    1728
 Computing Diagnostic #   202 "BRG_TauY" (list#  2) Parms "VV      MR      ", Count=    1728
 Computing Diagnostic #   203 "BRGhFacC" (list#  2) Parms "SM      MR      ", Count=    1728
 cg2d: Sum(rhs),rhsMax =   3.11354830806465E-11  6.02127471480297E-03
 cg2d: Sum(rhs),rhsMax =   3.11734527080887E-11  6.02599866286460E-03
 cg2d: Sum(rhs),rhsMax =   3.11929093665952E-11  6.03047508144266E-03
 cg2d: Sum(rhs),rhsMax =   3.12299908156177E-11  6.03470728214767E-03
 cg2d: Sum(rhs),rhsMax =   3.12788128731256E-11  6.03869855681085E-03
 cg2d: Sum(rhs),rhsMax =   3.13151171660309E-11  6.04245220526040E-03
 cg2d: Sum(rhs),rhsMax =   3.13550019281905E-11  6.04597152152191E-03
 cg2d: Sum(rhs),rhsMax =   3.13999659606878E-11  6.04925978895421E-03
 cg2d: Sum(rhs),rhsMax =   3.14347436969342E-11  6.05232027935948E-03
 cg2d: Sum(rhs),rhsMax =   3.14933079614832E-11  6.05515630932841E-03
 cg2d: Sum(rhs),rhsMax =   3.15446002652209E-11  6.05777112587038E-03
 cg2d: Sum(rhs),rhsMax =   3.15892034752352E-11  6.06016789088399E-03
 cg2d: Sum(rhs),rhsMax =   3.15978909704029E-11  6.06234997914257E-03
 cg2d: Sum(rhs),rhsMax =   3.16304482606000E-11  6.06432066292300E-03
 cg2d: Sum(rhs),rhsMax =   3.16432158253832E-11  6.07129096318047E-03
 cg2d: Sum(rhs),rhsMax =   3.16667247979296E-11  6.07971653619798E-03
 cg2d: Sum(rhs),rhsMax =   3.16797699184690E-11  6.08809960390735E-03
 cg2d: Sum(rhs),rhsMax =   3.17018356010834E-11  6.09643643674047E-03
 cg2d: Sum(rhs),rhsMax =   3.17025572460494E-11  6.10472339152212E-03
 cg2d: Sum(rhs),rhsMax =   3.17164350338572E-11  6.11295623254902E-03
 cg2d: Sum(rhs),rhsMax =   3.17439685648679E-11  6.12113092120074E-03
 cg2d: Sum(rhs),rhsMax =   3.17743054090158E-11  6.12924305625276E-03
 cg2d: Sum(rhs),rhsMax =   3.18123860587605E-11  6.13728825443560E-03
 cg2d: Sum(rhs),rhsMax =   3.18375326102682E-11  6.14526186150034E-03
 cg2d: Sum(rhs),rhsMax =   3.18507442642613E-11  6.15315901751617E-03
 cg2d: Sum(rhs),rhsMax =   3.18678416988405E-11  6.16097479558350E-03
 cg2d: Sum(rhs),rhsMax =   3.18808035526530E-11  6.16870408824567E-03
 cg2d: Sum(rhs),rhsMax =   3.19226867162570E-11  6.17634161807692E-03
 cg2d: Sum(rhs),rhsMax =   3.19310689000929E-11  6.18388198034478E-03
 cg2d: Sum(rhs),rhsMax =   3.19152759775676E-11  6.19131523218826E-03
 cg2d: Sum(rhs),rhsMax =   3.19256565628478E-11  6.19864115505431E-03
 cg2d: Sum(rhs),rhsMax =   3.19472504006768E-11  6.20585360050804E-03
 cg2d: Sum(rhs),rhsMax =   3.19733683973311E-11  6.21294640043806E-03
 cg2d: Sum(rhs),rhsMax =   3.19996251718635E-11  6.21991429463073E-03
 cg2d: Sum(rhs),rhsMax =   3.20073967330359E-11  6.22675155199963E-03
 cg2d: Sum(rhs),rhsMax =   3.20512782980842E-11  6.23345115229387E-03
 cg2d: Sum(rhs),rhsMax =   3.20883319915310E-11  6.24000755282473E-03
 cg2d: Sum(rhs),rhsMax =   3.21151993887270E-11  6.24641579870834E-03
 cg2d: Sum(rhs),rhsMax =   3.21297433103496E-11  6.25267113393423E-03
 cg2d: Sum(rhs),rhsMax =   3.21390136726052E-11  6.25876864811246E-03
 cg2d: Sum(rhs),rhsMax =   3.21648818690790E-11  6.26470374981699E-03
 cg2d: Sum(rhs),rhsMax =   3.21971060923687E-11  6.27047221732008E-03
 cg2d: Sum(rhs),rhsMax =   3.22257776019796E-11  6.27606865862597E-03
 cg2d: Sum(rhs),rhsMax =   3.22709636790819E-11  6.28148861474257E-03
 cg2d: Sum(rhs),rhsMax =   3.23049920147866E-11  6.28672901322062E-03
 cg2d: Sum(rhs),rhsMax =   3.23290005876942E-11  6.29178462088406E-03
 cg2d: Sum(rhs),rhsMax =   3.23566728965829E-11  6.29665176759815E-03
 cg2d: Sum(rhs),rhsMax =   3.23888693642971E-11  6.30132722866372E-03
 cg2d: Sum(rhs),rhsMax =   3.24318905065013E-11  6.30580811857896E-03
 cg2d: Sum(rhs),rhsMax =   3.24634208404007E-11  6.31008505973326E-03
 cg2d: Sum(rhs),rhsMax =   3.24932025730362E-11  6.31416253684661E-03
 cg2d: Sum(rhs),rhsMax =   3.25329763128934E-11  6.31800664445372E-03
 cg2d: Sum(rhs),rhsMax =   3.25787175015080E-11  6.32164748746800E-03
 cg2d: Sum(rhs),rhsMax =   3.26154658836231E-11  6.32508477793558E-03
 cg2d: Sum(rhs),rhsMax =   3.26622062729598E-11  6.32831863129286E-03
 cg2d: Sum(rhs),rhsMax =   3.27124993759753E-11  6.33134935333960E-03
 cg2d: Sum(rhs),rhsMax =   3.27653182363719E-11  6.33417797720827E-03
 cg2d: Sum(rhs),rhsMax =   3.28128635374014E-11  6.33680621956137E-03
 cg2d: Sum(rhs),rhsMax =   3.28530813664685E-11  6.33923631627678E-03
 cg2d: Sum(rhs),rhsMax =   3.28890525924663E-11  6.34147098725768E-03
 cg2d: Sum(rhs),rhsMax =   3.29233862395029E-11  6.34351327284045E-03
 cg2d: Sum(rhs),rhsMax =   3.29584137759298E-11  6.34536710094865E-03
 cg2d: Sum(rhs),rhsMax =   3.29923588449077E-11  6.34705723246755E-03
 cg2d: Sum(rhs),rhsMax =   3.30278859816957E-11  6.34856941557703E-03
 cg2d: Sum(rhs),rhsMax =   3.30784843960430E-11  6.34990802046495E-03
 cg2d: Sum(rhs),rhsMax =   3.31352445481770E-11  6.35107927950744E-03
 cg2d: Sum(rhs),rhsMax =   3.31927541008525E-11  6.35208902346139E-03
 cg2d: Sum(rhs),rhsMax =   3.32552596571389E-11  6.35294390703308E-03
 cg2d: Sum(rhs),rhsMax =   3.33085503623209E-11  6.35365157709607E-03
 cg2d: Sum(rhs),rhsMax =   3.33546801289941E-11  6.35422054714883E-03
 cg2d: Sum(rhs),rhsMax =   3.34029470749897E-11  6.35465891146702E-03
 cg2d: Sum(rhs),rhsMax =   3.34507144206242E-11  6.35497570475790E-03
 cg2d: Sum(rhs),rhsMax =   3.34983984995318E-11  6.35518045688749E-03
 cg2d: Sum(rhs),rhsMax =   3.35606820112133E-11  6.35528313985343E-03
 cg2d: Sum(rhs),rhsMax =   3.36123073818584E-11  6.35529412802559E-03
 cg2d: Sum(rhs),rhsMax =   3.36738137374226E-11  6.35522225811340E-03
 cg2d: Sum(rhs),rhsMax =   3.37287697771416E-11  6.35508032651380E-03
 cg2d: Sum(rhs),rhsMax =   3.37810335260258E-11  6.35488016753184E-03
 cg2d: Sum(rhs),rhsMax =   3.38676031663709E-11  6.35463312455095E-03
 cg2d: Sum(rhs),rhsMax =   3.39199501819820E-11  6.35418978697428E-03
 cg2d: Sum(rhs),rhsMax =   3.39701600182707E-11  6.35371760161955E-03
 cg2d: Sum(rhs),rhsMax =   3.40443506718913E-11  6.35323416853927E-03
 cg2d: Sum(rhs),rhsMax =   3.40903694162620E-11  6.35275334610599E-03
 cg2d: Sum(rhs),rhsMax =   3.41581762874910E-11  6.35228770834744E-03
 cg2d: Sum(rhs),rhsMax =   3.42119943486097E-11  6.35184132463001E-03
 cg2d: Sum(rhs),rhsMax =   3.42466055514024E-11  6.35143641276584E-03
 cg2d: Sum(rhs),rhsMax =   3.42948447418223E-11  6.35108544870699E-03
 cg2d: Sum(rhs),rhsMax =   3.43763351118298E-11  6.35080132375286E-03
 cg2d: Sum(rhs),rhsMax =   3.44541895014316E-11  6.35059665860770E-03
 cg2d: Sum(rhs),rhsMax =   3.45000139567730E-11  6.35048393821510E-03
 cg2d: Sum(rhs),rhsMax =   3.45577177984779E-11  6.35047533996980E-03
 cg2d: Sum(rhs),rhsMax =   3.46257189587362E-11  6.35058276533408E-03
 cg2d: Sum(rhs),rhsMax =   3.46609962953437E-11  6.35082193889636E-03
 cg2d: Sum(rhs),rhsMax =   3.47351036822374E-11  6.35119897535324E-03
 cg2d: Sum(rhs),rhsMax =   3.47897544106246E-11  6.35172563333668E-03
 cg2d: Sum(rhs),rhsMax =   3.48377160452884E-11  6.35241235399906E-03
 cg2d: Sum(rhs),rhsMax =   3.48868434141281E-11  6.35326904008550E-03
 cg2d: Sum(rhs),rhsMax =   3.49151541012560E-11  6.35430506889186E-03
 cg2d: Sum(rhs),rhsMax =   3.49580919767334E-11  6.35552922553379E-03
 cg2d: Sum(rhs),rhsMax =   3.49918705122576E-11  6.35694925046437E-03
 cg2d: Sum(rhs),rhsMax =   3.50491580203283E-11  6.35857310331584E-03
 cg2d: Sum(rhs),rhsMax =   3.50859896691702E-11  6.36040776707271E-03
 cg2d: Sum(rhs),rhsMax =   3.51364770612150E-11  6.36249327763397E-03
 cg2d: Sum(rhs),rhsMax =   3.51874362980453E-11  6.36479658623255E-03
 cg2d: Sum(rhs),rhsMax =   3.52267659486927E-11  6.36732650799587E-03
 cg2d: Sum(rhs),rhsMax =   3.52836926342803E-11  6.37008788158647E-03
 cg2d: Sum(rhs),rhsMax =   3.53347073822619E-11  6.37308395043991E-03
 cg2d: Sum(rhs),rhsMax =   3.53645168704730E-11  6.37631723109776E-03
 cg2d: Sum(rhs),rhsMax =   3.54177798200794E-11  6.37980419163488E-03
 cg2d: Sum(rhs),rhsMax =   3.54705154137491E-11  6.38369339059645E-03
 cg2d: Sum(rhs),rhsMax =   3.54914153621877E-11  6.38782803806769E-03
 cg2d: Sum(rhs),rhsMax =   3.55113438654797E-11  6.39219879585099E-03
 cg2d: Sum(rhs),rhsMax =   3.55633300586078E-11  6.39680617104786E-03
 cg2d: Sum(rhs),rhsMax =   3.56123464051450E-11  6.40164778225339E-03
 cg2d: Sum(rhs),rhsMax =   3.56486506980502E-11  6.40672014774665E-03
 cg2d: Sum(rhs),rhsMax =   3.56918938848594E-11  6.41201896937697E-03
 cg2d: Sum(rhs),rhsMax =   3.57125995442686E-11  6.41753925427201E-03
 cg2d: Sum(rhs),rhsMax =   3.57215645951925E-11  6.42327521507233E-03
 cg2d: Sum(rhs),rhsMax =   3.57591178890004E-11  6.42922045301084E-03
 cg2d: Sum(rhs),rhsMax =   3.57727181210521E-11  6.43536452030073E-03
 cg2d: Sum(rhs),rhsMax =   3.58062746119714E-11  6.44170301452692E-03
 cg2d: Sum(rhs),rhsMax =   3.58221508012235E-11  6.44824979257182E-03
 cg2d: Sum(rhs),rhsMax =   3.58273410938637E-11  6.45497359085879E-03
 cg2d: Sum(rhs),rhsMax =   3.58356955221240E-11  6.46186596084531E-03
 cg2d: Sum(rhs),rhsMax =   3.58651996990034E-11  6.46891165724166E-03
 cg2d: Sum(rhs),rhsMax =   3.58704177472191E-11  6.47610362839547E-03
 cg2d: Sum(rhs),rhsMax =   3.59030027929919E-11  6.48343062947578E-03
 cg2d: Sum(rhs),rhsMax =   3.59179352926731E-11  6.49088112543250E-03
 cg2d: Sum(rhs),rhsMax =   3.59064722399438E-11  6.49844316357837E-03
 cg2d: Sum(rhs),rhsMax =   3.59346719047693E-11  6.50610422137088E-03
 cg2d: Sum(rhs),rhsMax =   3.59356711054915E-11  6.51385186239075E-03
 cg2d: Sum(rhs),rhsMax =   3.59436092001175E-11  6.52167314424763E-03
 cg2d: Sum(rhs),rhsMax =   3.59555718532079E-11  6.52955495472303E-03
 cg2d: Sum(rhs),rhsMax =   3.59617613465701E-11  6.53748408184718E-03
 cg2d: Sum(rhs),rhsMax =   3.59824670059794E-11  6.54544694961221E-03
 cg2d: Sum(rhs),rhsMax =   3.59936802585281E-11  6.55343022577869E-03
 cg2d: Sum(rhs),rhsMax =   3.60038943103547E-11  6.56142046957382E-03
 cg2d: Sum(rhs),rhsMax =   3.60124985387955E-11  6.56940431135064E-03
 cg2d: Sum(rhs),rhsMax =   3.60262653043009E-11  6.57736833223899E-03
 cg2d: Sum(rhs),rhsMax =   3.60450280734170E-11  6.58529938365929E-03
 cg2d: Sum(rhs),rhsMax =   3.60504959218133E-11  6.59318448281115E-03
 cg2d: Sum(rhs),rhsMax =   3.60528551457406E-11  6.60100872032818E-03
 cg2d: Sum(rhs),rhsMax =   3.60818042111077E-11  6.60876167074315E-03
 cg2d: Sum(rhs),rhsMax =   3.61045915386882E-11  6.61643112864599E-03
(PID.TID 0000.0001)      cg2d_init_res =   1.11257969953567E-02
(PID.TID 0000.0001)      cg2d_iters(min,last) =      -1      45
(PID.TID 0000.0001)      cg2d_last_res =   6.89550834036501E-14
(PID.TID 0000.0001) // =======================================================
(PID.TID 0000.0001) // Begin MONITOR dynamic field statistics
(PID.TID 0000.0001) // =======================================================
(PID.TID 0000.0001) %MON time_tsnumber                =                   864
(PID.TID 0000.0001) %MON time_secondsf                =   2.1600000000000E+04
(PID.TID 0000.0001) %MON dynstat_eta_max              =   2.5984637255704E-03
(PID.TID 0000.0001) %MON dynstat_eta_min              =  -1.7063628392628E-03
(PID.TID 0000.0001) %MON dynstat_eta_mean             =  -1.6020209305116E-15
(PID.TID 0000.0001) %MON dynstat_eta_sd               =   1.4478096291578E-03
(PID.TID 0000.0001) %MON dynstat_eta_del2             =   9.5189679286767E-06
(PID.TID 0000.0001) %MON dynstat_uvel_max             =   2.6567866624049E-02
(PID.TID 0000.0001) %MON dynstat_uvel_min             =  -1.0032314514382E-02
(PID.TID 0000.0001) %MON dynstat_uvel_mean            =  -1.3482251062048E-07
(PID.TID 0000.0001) %MON dynstat_uvel_sd              =   3.1757782982487E-03
(PID.TID 0000.0001) %MON dynstat_uvel_del2            =   8.4093149517109E-05
(PID.TID 0000.0001) %MON dynstat_vvel_max             =   1.4655722996746E-02
(PID.TID 0000.0001) %MON dynstat_vvel_min             =  -3.0000000000000E-02
(PID.TID 0000.0001) %MON dynstat_vvel_mean            =  -8.0919857699196E-03
(PID.TID 0000.0001) %MON dynstat_vvel_sd              =   1.0061076238001E-02
(PID.TID 0000.0001) %MON dynstat_vvel_del2            =   7.9066606510155E-05
(PID.TID 0000.0001) %MON dynstat_wvel_max             =   1.9915587700554E-03
(PID.TID 0000.0001) %MON dynstat_wvel_min             =  -1.4358683467113E-03
(PID.TID 0000.0001) %MON dynstat_wvel_mean            =   3.0580454554099E-21
(PID.TID 0000.0001) %MON dynstat_wvel_sd              =   1.6817884796940E-04
(PID.TID 0000.0001) %MON dynstat_wvel_del2            =   9.5056572822810E-06
(PID.TID 0000.0001) %MON dynstat_theta_max            =   2.6931228160844E+00
(PID.TID 0000.0001) %MON dynstat_theta_min            =   8.1607182914448E-01
(PID.TID 0000.0001) %MON dynstat_theta_mean           =   2.2636537956600E+00
(PID.TID 0000.0001) %MON dynstat_theta_sd             =   4.0865422006463E-01
(PID.TID 0000.0001) %MON dynstat_theta_del2           =   6.1606593183020E-04
(PID.TID 0000.0001) %MON dynstat_salt_max             =   3.4699971672084E+01
(PID.TID 0000.0001) %MON dynstat_salt_min             =   3.3186452838768E+01
(PID.TID 0000.0001) %MON dynstat_salt_mean            =   3.4369079473465E+01
(PID.TID 0000.0001) %MON dynstat_salt_sd              =   3.1093812946428E-01
(PID.TID 0000.0001) %MON dynstat_salt_del2            =   1.2705404997228E-04
(PID.TID 0000.0001) %MON advcfl_uvel_max              =   1.3283933312024E-03
(PID.TID 0000.0001) %MON advcfl_vvel_max              =   1.5000000000000E-03
(PID.TID 0000.0001) %MON advcfl_wvel_max              =   8.7628585910479E-04
(PID.TID 0000.0001) %MON advcfl_W_hf_max              =   2.0511928615591E-03
(PID.TID 0000.0001) %MON pe_b_mean                    =   1.7489105350131E-08
(PID.TID 0000.0001) %MON ke_max                       =   5.3939511930058E-04
(PID.TID 0000.0001) %MON ke_mean                      =   7.8432072627979E-05
(PID.TID 0000.0001) %MON ke_vol                       =   3.2921708585402E+10
(PID.TID 0000.0001) // =======================================================
(PID.TID 0000.0001) // End MONITOR dynamic field statistics
(PID.TID 0000.0001) // =======================================================
(PID.TID 0000.0001) // =======================================================
(PID.TID 0000.0001) // Begin OBCS MONITOR field statistics
(PID.TID 0000.0001) // =======================================================
(PID.TID 0000.0001) %MON obc_E_uVel_max               =   0.0000000000000E+00
(PID.TID 0000.0001) %MON obc_E_uVel_min               =   0.0000000000000E+00
(PID.TID 0000.0001) %MON obc_E_uVel_mean              =   0.0000000000000E+00
(PID.TID 0000.0001) %MON obc_E_uVel_sd                =   0.0000000000000E+00
(PID.TID 0000.0001) %MON obc_E_uVel_Int               =   0.0000000000000E+00
(PID.TID 0000.0001) %MON obc_N_vVel_max               =  -3.6115799844846E-05
(PID.TID 0000.0001) %MON obc_N_vVel_min               =  -3.0000000000000E-02
(PID.TID 0000.0001) %MON obc_N_vVel_mean              =  -1.3225455303334E-02
(PID.TID 0000.0001) %MON obc_N_vVel_sd                =   1.1350864292742E-02
(PID.TID 0000.0001) %MON obc_N_vVel_Int               =  -5.9514548865004E+04
(PID.TID 0000.0001) %MON obc_S_vVel_max               =  -3.6115799844846E-05
(PID.TID 0000.0001) %MON obc_S_vVel_min               =  -3.0000000000000E-02
(PID.TID 0000.0001) %MON obc_S_vVel_mean              =  -1.3225455303334E-02
(PID.TID 0000.0001) %MON obc_S_vVel_sd                =   1.1350864292742E-02
(PID.TID 0000.0001) %MON obc_S_vVel_Int               =  -5.9514548865004E+04
(PID.TID 0000.0001) // =======================================================
(PID.TID 0000.0001) // End OBCS MONITOR field statistics
(PID.TID 0000.0001) // =======================================================
 Computing Diagnostic #    26 "THETA   " (list#  1) Parms "SMR     MR      ", Count=     144
 Computing Diagnostic #    27 "SALT    " (list#  1) Parms "SMR     MR      ", Count=     144
 Computing Diagnostic #    30 "UVEL    " (list#  1) Parms "UUR     MR      ", Count=     144
             Vector  Mate for "UVEL    " :  Diagnostic #     31 "VVEL    " exists
 Computing Diagnostic #    32 "WVEL    " (list#  1) Parms "WM      LR      ", Count=     144
 Computing Diagnostic #    31 "VVEL    " (list#  1) Parms "VVR     MR      ", Count=     144
             Vector  Mate for "VVEL    " :  Diagnostic #     30 "UVEL    " exists
 Computing Diagnostic #   197 "BRGfwFlx" (list#  2) Parms "SM      MR      ", Count=     144
 Computing Diagnostic #   198 "BRGhtFlx" (list#  2) Parms "SM      MR      ", Count=     144
 Computing Diagnostic #   199 "BRGmltRt" (list#  2) Parms "SM      MR      ", Count=     144
 Computing Diagnostic #   201 "BRG_TauX" (list#  2) Parms "UU      MR      ", Count=    1728
 Computing Diagnostic #   202 "BRG_TauY" (list#  2) Parms "VV      MR      ", Count=    1728
 Computing Diagnostic #   203 "BRGhFacC" (list#  2) Parms "SM      MR      ", Count=    1728
 cg2d: Sum(rhs),rhsMax =   3.61286001115957E-11  6.62400518579804E-03
 cg2d: Sum(rhs),rhsMax =   3.61449481456333E-11  6.63147234822595E-03
 cg2d: Sum(rhs),rhsMax =   3.61650709379546E-11  6.63882155550426E-03
 cg2d: Sum(rhs),rhsMax =   3.61870533538422E-11  6.64604214553328E-03
 cg2d: Sum(rhs),rhsMax =   3.62105068152374E-11  6.65312398049989E-03
 cg2d: Sum(rhs),rhsMax =   3.62221919125716E-11  6.66005744773974E-03
 cg2d: Sum(rhs),rhsMax =   3.62481433757722E-11  6.66683349375571E-03
 cg2d: Sum(rhs),rhsMax =   3.62604946069212E-11  6.67344364392089E-03
 cg2d: Sum(rhs),rhsMax =   3.62793128871886E-11  6.67988001869682E-03
 cg2d: Sum(rhs),rhsMax =   3.63086505306143E-11  6.68613537338326E-03
 cg2d: Sum(rhs),rhsMax =   3.63427898886215E-11  6.69220310636988E-03
 cg2d: Sum(rhs),rhsMax =   3.63679086845536E-11  6.69807735641866E-03
 cg2d: Sum(rhs),rhsMax =   3.64092922477965E-11  6.70375280359940E-03
 cg2d: Sum(rhs),rhsMax =   3.64436814059843E-11  6.70922489014981E-03
 cg2d: Sum(rhs),rhsMax =   3.64882291048474E-11  6.71448979102607E-03
 cg2d: Sum(rhs),rhsMax =   3.65132646340527E-11  6.71954434020825E-03
 cg2d: Sum(rhs),rhsMax =   3.65554253534128E-11  6.72438602725153E-03
 cg2d: Sum(rhs),rhsMax =   3.65946717373333E-11  6.72901298063960E-03
 cg2d: Sum(rhs),rhsMax =   3.66350560998541E-11  6.73342419358258E-03
 cg2d: Sum(rhs),rhsMax =   3.66807417773174E-11  6.73761941021500E-03
 cg2d: Sum(rhs),rhsMax =   3.67134378453926E-11  6.74159904409044E-03
 cg2d: Sum(rhs),rhsMax =   3.67695318637118E-11  6.74536360061381E-03
 cg2d: Sum(rhs),rhsMax =   3.67915697907506E-11  6.74891546121593E-03
 cg2d: Sum(rhs),rhsMax =   3.68364783120967E-11  6.75225711739336E-03
 cg2d: Sum(rhs),rhsMax =   3.68675923123618E-11  6.75539173243420E-03
 cg2d: Sum(rhs),rhsMax =   3.69120845000737E-11  6.75832301575133E-03
 cg2d: Sum(rhs),rhsMax =   3.69500818830915E-11  6.76105540482902E-03
 cg2d: Sum(rhs),rhsMax =   3.70004860084094E-11  6.76359382810377E-03
 cg2d: Sum(rhs),rhsMax =   3.70371788793733E-11  6.76594385045921E-03
 cg2d: Sum(rhs),rhsMax =   3.70863895149398E-11  6.76811152496421E-03
 cg2d: Sum(rhs),rhsMax =   3.71345731942085E-11  6.77010506388691E-03
 cg2d: Sum(rhs),rhsMax =   3.71775388252615E-11  6.77193160884662E-03
 cg2d: Sum(rhs),rhsMax =   3.72086805811023E-11  6.77359859686349E-03
 cg2d: Sum(rhs),rhsMax =   3.72688824246126E-11  6.77511387261984E-03
 cg2d: Sum(rhs),rhsMax =   3.73079345195038E-11  6.77648563349485E-03
 cg2d: Sum(rhs),rhsMax =   3.73598652014806E-11  6.77772242098501E-03
 cg2d: Sum(rhs),rhsMax =   3.74204556230495E-11  6.77883327331333E-03
 cg2d: Sum(rhs),rhsMax =   3.74557329596570E-11  6.77982725405892E-03
 cg2d: Sum(rhs),rhsMax =   3.75031117272329E-11  6.78071368833315E-03
 cg2d: Sum(rhs),rhsMax =   3.75648401274020E-11  6.78150218828540E-03
 cg2d: Sum(rhs),rhsMax =   3.76155773196274E-11  6.78220241330315E-03
 cg2d: Sum(rhs),rhsMax =   3.76580711058949E-11  6.78282412336183E-03
 cg2d: Sum(rhs),rhsMax =   3.77149422803313E-11  6.78337719306984E-03
 cg2d: Sum(rhs),rhsMax =   3.77937126039285E-11  6.78387177629618E-03
 cg2d: Sum(rhs),rhsMax =   3.78591602512302E-11  6.78432969874894E-03
 cg2d: Sum(rhs),rhsMax =   3.78996556360534E-11  6.78474937957688E-03
 cg2d: Sum(rhs),rhsMax =   3.79667408623163E-11  6.78514004938287E-03
 cg2d: Sum(rhs),rhsMax =   3.80161457869121E-11  6.78551140952338E-03
 cg2d: Sum(rhs),rhsMax =   3.80821485457261E-11  6.78587305040856E-03
 cg2d: Sum(rhs),rhsMax =   3.81351339395763E-11  6.78623434138788E-03
 cg2d: Sum(rhs),rhsMax =   3.81767950585754E-11  6.78660452304695E-03
 cg2d: Sum(rhs),rhsMax =   3.82196774229016E-11  6.78699264064983E-03
 cg2d: Sum(rhs),rhsMax =   3.82735509951715E-11  6.78740730944948E-03
 cg2d: Sum(rhs),rhsMax =   3.83472975595822E-11  6.78785716146861E-03
 cg2d: Sum(rhs),rhsMax =   3.84134946074255E-11  6.78834983021196E-03
 cg2d: Sum(rhs),rhsMax =   3.84698939370764E-11  6.78889291958231E-03
 cg2d: Sum(rhs),rhsMax =   3.85458054363852E-11  6.78949365786965E-03
 cg2d: Sum(rhs),rhsMax =   3.86016496545238E-11  6.79015886160141E-03
 cg2d: Sum(rhs),rhsMax =   3.86482790215581E-11  6.79089491822826E-03
 cg2d: Sum(rhs),rhsMax =   3.86841114696779E-11  6.79170777999457E-03
 cg2d: Sum(rhs),rhsMax =   3.87324339268247E-11  6.79242063406011E-03
 cg2d: Sum(rhs),rhsMax =   3.87773424481708E-11  6.79317808515291E-03
 cg2d: Sum(rhs),rhsMax =   3.88316045984993E-11  6.79402961611709E-03
 cg2d: Sum(rhs),rhsMax =   3.88671039797117E-11  6.79497298174643E-03
 cg2d: Sum(rhs),rhsMax =   3.89119014787553E-11  6.79597587900899E-03
 cg2d: Sum(rhs),rhsMax =   3.89779597487205E-11  6.79708264811497E-03
 cg2d: Sum(rhs),rhsMax =   3.90203980238368E-11  6.79829875874764E-03
 cg2d: Sum(rhs),rhsMax =   3.90597276744842E-11  6.79962637052721E-03
 cg2d: Sum(rhs),rhsMax =   3.91139343136615E-11  6.80107002315130E-03
 cg2d: Sum(rhs),rhsMax =   3.91652821285504E-11  6.80262908456006E-03
 cg2d: Sum(rhs),rhsMax =   3.92131604964874E-11  6.80430471255510E-03
 cg2d: Sum(rhs),rhsMax =   3.92647303559812E-11  6.80609734202545E-03
 cg2d: Sum(rhs),rhsMax =   3.93133581244598E-11  6.80800726657737E-03
 cg2d: Sum(rhs),rhsMax =   3.93453325475690E-11  6.81353697280470E-03
 cg2d: Sum(rhs),rhsMax =   3.93535481979512E-11  6.82168598268061E-03
 cg2d: Sum(rhs),rhsMax =   3.93893251349198E-11  6.82963035385843E-03
 cg2d: Sum(rhs),rhsMax =   3.94060339914404E-11  6.83735383854052E-03
 cg2d: Sum(rhs),rhsMax =   3.94049237684158E-11  6.84484073958632E-03
 cg2d: Sum(rhs),rhsMax =   3.94290711192014E-11  6.85207631141823E-03
 cg2d: Sum(rhs),rhsMax =   3.94538568482261E-11  6.85904606325343E-03
 cg2d: Sum(rhs),rhsMax =   3.94787813551289E-11  6.86573669622434E-03
 cg2d: Sum(rhs),rhsMax =   3.94919652535464E-11  6.87213557710987E-03
 cg2d: Sum(rhs),rhsMax =   3.94893007182873E-11  6.87823086748960E-03
 cg2d: Sum(rhs),rhsMax =   3.95151411591854E-11  6.88401164720161E-03
 cg2d: Sum(rhs),rhsMax =   3.95309895928619E-11  6.88946804765645E-03
 cg2d: Sum(rhs),rhsMax =   3.95725396895585E-11  6.89459103024600E-03
 cg2d: Sum(rhs),rhsMax =   3.96118138290547E-11  6.89937257149288E-03
 cg2d: Sum(rhs),rhsMax =   3.96319921325272E-11  6.90380575147623E-03
 cg2d: Sum(rhs),rhsMax =   3.96671306912566E-11  6.90788459060682E-03
 cg2d: Sum(rhs),rhsMax =   3.96968014015897E-11  6.91160417185397E-03
 cg2d: Sum(rhs),rhsMax =   3.97304966703871E-11  6.91495992506661E-03
 cg2d: Sum(rhs),rhsMax =   3.97856469991353E-11  6.91794973601687E-03
 cg2d: Sum(rhs),rhsMax =   3.98300004089691E-11  6.92057182817308E-03
 cg2d: Sum(rhs),rhsMax =   3.98667765466598E-11  6.92282548035821E-03
 cg2d: Sum(rhs),rhsMax =   3.99313637711174E-11  6.92471096537967E-03
 cg2d: Sum(rhs),rhsMax =   3.99749122692583E-11  6.92622957406829E-03
 cg2d: Sum(rhs),rhsMax =   3.99967003961166E-11  6.92738354385859E-03
 cg2d: Sum(rhs),rhsMax =   4.00590671745249E-11  6.92817619281176E-03
 cg2d: Sum(rhs),rhsMax =   4.01015887163680E-11  6.92861169198134E-03
 cg2d: Sum(rhs),rhsMax =   4.01850774878199E-11  6.92869549974958E-03
 cg2d: Sum(rhs),rhsMax =   4.02425037737686E-11  6.92843323793741E-03
 cg2d: Sum(rhs),rhsMax =   4.03075905985872E-11  6.92783175344158E-03
 cg2d: Sum(rhs),rhsMax =   4.03801991843977E-11  6.92689861919422E-03
 cg2d: Sum(rhs),rhsMax =   4.04310473989256E-11  6.92564218844767E-03
 cg2d: Sum(rhs),rhsMax =   4.04846434154393E-11  6.92407151620743E-03
 cg2d: Sum(rhs),rhsMax =   4.05392386326753E-11  6.92219631520774E-03
 cg2d: Sum(rhs),rhsMax =   4.06321365442608E-11  6.92002690101600E-03
 cg2d: Sum(rhs),rhsMax =   4.06894240523314E-11  6.91880894964776E-03
 cg2d: Sum(rhs),rhsMax =   4.07178735173375E-11  6.92194091907732E-03
 cg2d: Sum(rhs),rhsMax =   4.07653077960646E-11  6.92501761605142E-03
 cg2d: Sum(rhs),rhsMax =   4.07943956393098E-11  6.92803621015142E-03
 cg2d: Sum(rhs),rhsMax =   4.08078848490590E-11  6.93099359287382E-03
 cg2d: Sum(rhs),rhsMax =   4.08517386585316E-11  6.93388771946379E-03
 cg2d: Sum(rhs),rhsMax =   4.08989231370782E-11  6.93671660485306E-03
 cg2d: Sum(rhs),rhsMax =   4.09223488428978E-11  6.93947875042822E-03
 cg2d: Sum(rhs),rhsMax =   4.09560163561196E-11  6.94217281930275E-03
 cg2d: Sum(rhs),rhsMax =   4.09980660531772E-11  6.94479777149914E-03
 cg2d: Sum(rhs),rhsMax =   4.10269596073931E-11  6.94735292637093E-03
 cg2d: Sum(rhs),rhsMax =   4.10778633330722E-11  6.94983791759974E-03
 cg2d: Sum(rhs),rhsMax =   4.11212730533350E-11  6.95224886711518E-03
 cg2d: Sum(rhs),rhsMax =   4.11698175550868E-11  6.95458990779652E-03
 cg2d: Sum(rhs),rhsMax =   4.12009593109275E-11  6.95686169558553E-03
 cg2d: Sum(rhs),rhsMax =   4.12451739428832E-11  6.95906513677210E-03
 cg2d: Sum(rhs),rhsMax =   4.12833933705059E-11  6.96120151336500E-03
 cg2d: Sum(rhs),rhsMax =   4.13294676260278E-11  6.96327238985045E-03
 cg2d: Sum(rhs),rhsMax =   4.13839240653857E-11  6.96532029699595E-03
 cg2d: Sum(rhs),rhsMax =   4.14291378980636E-11  6.96731080754841E-03
 cg2d: Sum(rhs),rhsMax =   4.14908107870815E-11  6.96923787838591E-03
 cg2d: Sum(rhs),rhsMax =   4.15615042381745E-11  6.97102643846260E-03
 cg2d: Sum(rhs),rhsMax =   4.15847634105404E-11  6.97275136658286E-03
 cg2d: Sum(rhs),rhsMax =   4.16488232790613E-11  6.97441850207054E-03
 cg2d: Sum(rhs),rhsMax =   4.16982837148083E-11  6.97602908096794E-03
 cg2d: Sum(rhs),rhsMax =   4.17496037741216E-11  6.97758610967139E-03
 cg2d: Sum(rhs),rhsMax =   4.18075019048558E-11  6.97910345491115E-03
 cg2d: Sum(rhs),rhsMax =   4.18514112254798E-11  6.98058523892381E-03
 cg2d: Sum(rhs),rhsMax =   4.18808598912079E-11  6.98203570628984E-03
 cg2d: Sum(rhs),rhsMax =   4.19277390584227E-11  6.98345937756457E-03
 cg2d: Sum(rhs),rhsMax =   4.19713153121393E-11  6.98486089436034E-03
 cg2d: Sum(rhs),rhsMax =   4.20251056176824E-11  6.98624491568843E-03
 cg2d: Sum(rhs),rhsMax =   4.20976031811904E-11  6.98761623021420E-03
 cg2d: Sum(rhs),rhsMax =   4.21430945696244E-11  6.98897961480422E-03
 cg2d: Sum(rhs),rhsMax =   4.21827295316035E-11  6.99034008546513E-03
 cg2d: Sum(rhs),rhsMax =   4.22323565008043E-11  6.99170262103519E-03
 cg2d: Sum(rhs),rhsMax =   4.22951951239980E-11  6.99307225995803E-03
 Computing Diagnostic #    26 "THETA   " (list#  1) Parms "SMR     MR      ", Count=     144
 Computing Diagnostic #    27 "SALT    " (list#  1) Parms "SMR     MR      ", Count=     144
 Computing Diagnostic #    30 "UVEL    " (list#  1) Parms "UUR     MR      ", Count=     144
             Vector  Mate for "UVEL    " :  Diagnostic #     31 "VVEL    " exists
 Computing Diagnostic #    32 "WVEL    " (list#  1) Parms "WM      LR      ", Count=     144
 Computing Diagnostic #    31 "VVEL    " (list#  1) Parms "VVR     MR      ", Count=     144
             Vector  Mate for "VVEL    " :  Diagnostic #     30 "UVEL    " exists
 Computing Diagnostic #   197 "BRGfwFlx" (list#  2) Parms "SM      MR      ", Count=     144
 Computing Diagnostic #   198 "BRGhtFlx" (list#  2) Parms "SM      MR      ", Count=     144
 Computing Diagnostic #   199 "BRGmltRt" (list#  2) Parms "SM      MR      ", Count=     144
 Computing Diagnostic #   201 "BRG_TauX" (list#  2) Parms "UU      MR      ", Count=    1728
 Computing Diagnostic #   202 "BRG_TauY" (list#  2) Parms "VV      MR      ", Count=    1728
 Computing Diagnostic #   203 "BRGhFacC" (list#  2) Parms "SM      MR      ", Count=    1728
 cg2d: Sum(rhs),rhsMax =   4.23390211778951E-11  6.99445400904341E-03
 cg2d: Sum(rhs),rhsMax =   4.23736601362634E-11  6.99585283766978E-03
 cg2d: Sum(rhs),rhsMax =   4.24340562688030E-11  6.99727368244884E-03
 cg2d: Sum(rhs),rhsMax =   4.24938695342547E-11  6.99872150688836E-03
 cg2d: Sum(rhs),rhsMax =   4.25392499003863E-11  7.00021414185970E-03
 cg2d: Sum(rhs),rhsMax =   4.25802726411462E-11  7.00174377956094E-03
 cg2d: Sum(rhs),rhsMax =   4.26059465485906E-11  7.00331440732205E-03
 cg2d: Sum(rhs),rhsMax =   4.26414736853786E-11  7.00493023460050E-03
 cg2d: Sum(rhs),rhsMax =   4.26883250970178E-11  7.00659433477066E-03
 cg2d: Sum(rhs),rhsMax =   4.27654578416536E-11  7.00831273283472E-03
 cg2d: Sum(rhs),rhsMax =   4.28395652285474E-11  7.01031176148811E-03
 cg2d: Sum(rhs),rhsMax =   4.28989899159404E-11  7.01238130441595E-03
 cg2d: Sum(rhs),rhsMax =   4.29375146548949E-11  7.01451307065153E-03
 cg2d: Sum(rhs),rhsMax =   4.29887514474814E-11  7.01671337669719E-03
 cg2d: Sum(rhs),rhsMax =   4.30170343790337E-11  7.01898544824094E-03
 cg2d: Sum(rhs),rhsMax =   4.30628588343751E-11  7.02133201867077E-03
 cg2d: Sum(rhs),rhsMax =   4.31103763798291E-11  7.02375567351929E-03
 cg2d: Sum(rhs),rhsMax =   4.31618074614448E-11  7.02625875442926E-03
 cg2d: Sum(rhs),rhsMax =   4.32008318007604E-11  7.02884338333938E-03
 cg2d: Sum(rhs),rhsMax =   4.32523739046786E-11  7.03150979310596E-03
 cg2d: Sum(rhs),rhsMax =   4.32843760833634E-11  7.03426118156441E-03
 cg2d: Sum(rhs),rhsMax =   4.33125757481889E-11  7.03709965263996E-03
 cg2d: Sum(rhs),rhsMax =   4.33648672526488E-11  7.04002632765418E-03
 cg2d: Sum(rhs),rhsMax =   4.33733327032115E-11  7.04303266872316E-03
 cg2d: Sum(rhs),rhsMax =   4.34077496169749E-11  7.04612911924818E-03
 cg2d: Sum(rhs),rhsMax =   4.34397517956597E-11  7.04931647328205E-03
 cg2d: Sum(rhs),rhsMax =   4.34702829288369E-11  7.05259522040597E-03
 cg2d: Sum(rhs),rhsMax =   4.35124436481971E-11  7.05596571990747E-03
 cg2d: Sum(rhs),rhsMax =   4.35552149902207E-11  7.05942808318251E-03
 cg2d: Sum(rhs),rhsMax =   4.35720903801950E-11  7.06298220407277E-03
 cg2d: Sum(rhs),rhsMax =   4.36184421914732E-11  7.06662335831095E-03
 cg2d: Sum(rhs),rhsMax =   4.36425340311075E-11  7.07034333114975E-03
 cg2d: Sum(rhs),rhsMax =   4.36739810982800E-11  7.07415424425971E-03
 cg2d: Sum(rhs),rhsMax =   4.37075931003506E-11  7.07805476336155E-03
 cg2d: Sum(rhs),rhsMax =   4.37367086991713E-11  7.08204323766246E-03
 cg2d: Sum(rhs),rhsMax =   4.37392067009768E-11  7.08611842522391E-03
 cg2d: Sum(rhs),rhsMax =   4.37627989402500E-11  7.09027897023893E-03
 cg2d: Sum(rhs),rhsMax =   4.38215297382527E-11  7.09451842323080E-03
 cg2d: Sum(rhs),rhsMax =   4.38607206110220E-11  7.09883983585039E-03
 cg2d: Sum(rhs),rhsMax =   4.39155101172872E-11  7.10324135370726E-03
 cg2d: Sum(rhs),rhsMax =   4.39280556374655E-11  7.10772089791616E-03
 cg2d: Sum(rhs),rhsMax =   4.39466241175523E-11  7.11227626395407E-03
 cg2d: Sum(rhs),rhsMax =   4.39808744978620E-11  7.11690512564332E-03
 cg2d: Sum(rhs),rhsMax =   4.40109060306781E-11  7.12160498037373E-03
 cg2d: Sum(rhs),rhsMax =   4.40330827355950E-11  7.12637341933027E-03
 cg2d: Sum(rhs),rhsMax =   4.40650571587042E-11  7.13120828363668E-03
 cg2d: Sum(rhs),rhsMax =   4.40839031945472E-11  7.13610673089563E-03
 cg2d: Sum(rhs),rhsMax =   4.41168768183786E-11  7.14106588598839E-03
 cg2d: Sum(rhs),rhsMax =   4.41529868222545E-11  7.14608262501621E-03
 cg2d: Sum(rhs),rhsMax =   4.41831848885244E-11  7.15115381391218E-03
 cg2d: Sum(rhs),rhsMax =   4.42191006033710E-11  7.15627621856695E-03
 cg2d: Sum(rhs),rhsMax =   4.42379466392140E-11  7.16144652693069E-03
 cg2d: Sum(rhs),rhsMax =   4.42859360294534E-11  7.16666134881495E-03
 cg2d: Sum(rhs),rhsMax =   4.42929859456598E-11  7.17191725832940E-03
 cg2d: Sum(rhs),rhsMax =   4.43140246719764E-11  7.17721086768597E-03
 cg2d: Sum(rhs),rhsMax =   4.43454439835733E-11  7.18253845320791E-03
 cg2d: Sum(rhs),rhsMax =   4.43717007581057E-11  7.18789659118418E-03
 cg2d: Sum(rhs),rhsMax =   4.43975689545795E-11  7.19328170595711E-03
 cg2d: Sum(rhs),rhsMax =   4.44128345211681E-11  7.19870970580304E-03
 cg2d: Sum(rhs),rhsMax =   4.44480285910487E-11  7.20415812221383E-03
 cg2d: Sum(rhs),rhsMax =   4.44853875958273E-11  7.20962232365116E-03
 cg2d: Sum(rhs),rhsMax =   4.44997649839962E-11  7.21509906019326E-03
 cg2d: Sum(rhs),rhsMax =   4.45207481991616E-11  7.22058470164640E-03
 cg2d: Sum(rhs),rhsMax =   4.45488923528359E-11  7.22607917365348E-03
 cg2d: Sum(rhs),rhsMax =   4.45689873895816E-11  7.23170548025456E-03
 cg2d: Sum(rhs),rhsMax =   4.45896652934152E-11  7.23733419378399E-03
 cg2d: Sum(rhs),rhsMax =   4.46151726674060E-11  7.24295477398416E-03
 cg2d: Sum(rhs),rhsMax =   4.46432057987778E-11  7.24856514598260E-03
 cg2d: Sum(rhs),rhsMax =   4.46638004358846E-11  7.25416160201079E-03
 cg2d: Sum(rhs),rhsMax =   4.47003822845460E-11  7.25976139492236E-03
 cg2d: Sum(rhs),rhsMax =   4.47023251748391E-11  7.26534065991291E-03
 cg2d: Sum(rhs),rhsMax =   4.47303860617865E-11  7.27089454373809E-03
 cg2d: Sum(rhs),rhsMax =   4.47536729897280E-11  7.27641966293148E-03
 cg2d: Sum(rhs),rhsMax =   4.47887837928818E-11  7.28191244686889E-03
 cg2d: Sum(rhs),rhsMax =   4.48164283461949E-11  7.28736945348651E-03
 cg2d: Sum(rhs),rhsMax =   4.48157899679558E-11  7.29278705629670E-03
 cg2d: Sum(rhs),rhsMax =   4.48191761481809E-11  7.29816228290335E-03
 cg2d: Sum(rhs),rhsMax =   4.48515946604999E-11  7.30349160345025E-03
 cg2d: Sum(rhs),rhsMax =   4.48825976384626E-11  7.30877248842796E-03
 cg2d: Sum(rhs),rhsMax =   4.48978354494756E-11  7.31400211881321E-03
 cg2d: Sum(rhs),rhsMax =   4.49262016477547E-11  7.31917780877122E-03
 cg2d: Sum(rhs),rhsMax =   4.49573434035955E-11  7.32429704032688E-03
 cg2d: Sum(rhs),rhsMax =   4.49953962977645E-11  7.32935742259507E-03
 cg2d: Sum(rhs),rhsMax =   4.50195158929745E-11  7.33435673762871E-03
 cg2d: Sum(rhs),rhsMax =   4.50452175559946E-11  7.33929292121447E-03
 cg2d: Sum(rhs),rhsMax =   4.50688097952678E-11  7.34416531474262E-03
 cg2d: Sum(rhs),rhsMax =   4.51041703986022E-11  7.34897096269174E-03
 cg2d: Sum(rhs),rhsMax =   4.51322312855496E-11  7.35370795507632E-03
 cg2d: Sum(rhs),rhsMax =   4.51562398584571E-11  7.35835506742799E-03
 cg2d: Sum(rhs),rhsMax =   4.51859383243658E-11  7.36293056415152E-03
 cg2d: Sum(rhs),rhsMax =   4.52167192577235E-11  7.36743451825069E-03
 cg2d: Sum(rhs),rhsMax =   4.52382853399769E-11  7.37186582895219E-03
 cg2d: Sum(rhs),rhsMax =   4.52651249815972E-11  7.37622389161578E-03
 cg2d: Sum(rhs),rhsMax =   4.52988480059702E-11  7.38050541668496E-03
 cg2d: Sum(rhs),rhsMax =   4.53314330517429E-11  7.38471303453157E-03
 cg2d: Sum(rhs),rhsMax =   4.53711790360245E-11  7.38884670796978E-03
 cg2d: Sum(rhs),rhsMax =   4.54243032077528E-11  7.39290655996121E-03
 cg2d: Sum(rhs),rhsMax =   4.54736526211974E-11  7.39689289096712E-03
 cg2d: Sum(rhs),rhsMax =   4.55004922628177E-11  7.40080619332848E-03
 cg2d: Sum(rhs),rhsMax =   4.55245563468765E-11  7.40464712631536E-03
 cg2d: Sum(rhs),rhsMax =   4.55603610394206E-11  7.40841656127993E-03
 cg2d: Sum(rhs),rhsMax =   4.55801507648346E-11  7.41211549150473E-03
 cg2d: Sum(rhs),rhsMax =   4.56188697928184E-11  7.41574512634474E-03
 cg2d: Sum(rhs),rhsMax =   4.56570337092899E-11  7.41930688002133E-03
 cg2d: Sum(rhs),rhsMax =   4.56860382858082E-11  7.42280228490935E-03
 cg2d: Sum(rhs),rhsMax =   4.57269500042656E-11  7.42633518865785E-03
 cg2d: Sum(rhs),rhsMax =   4.57421045485518E-11  7.42980858057667E-03
 cg2d: Sum(rhs),rhsMax =   4.57661963881861E-11  7.43321878974190E-03
 cg2d: Sum(rhs),rhsMax =   4.58053039942286E-11  7.43656900834650E-03
 cg2d: Sum(rhs),rhsMax =   4.58332538588735E-11  7.43986129714045E-03
 cg2d: Sum(rhs),rhsMax =   4.58718063534036E-11  7.44309757087249E-03
 cg2d: Sum(rhs),rhsMax =   4.59131621610709E-11  7.44627994363987E-03
 cg2d: Sum(rhs),rhsMax =   4.59561000365483E-11  7.44941069491031E-03
 cg2d: Sum(rhs),rhsMax =   4.59909887950971E-11  7.45249224354227E-03
 cg2d: Sum(rhs),rhsMax =   4.60224913734208E-11  7.45552713308055E-03
 cg2d: Sum(rhs),rhsMax =   4.60693427850600E-11  7.45851801922776E-03
 cg2d: Sum(rhs),rhsMax =   4.60983473615784E-11  7.46146773094455E-03
 cg2d: Sum(rhs),rhsMax =   4.61501670212527E-11  7.46437918074022E-03
 cg2d: Sum(rhs),rhsMax =   4.62009319690537E-11  7.46725540024127E-03
 cg2d: Sum(rhs),rhsMax =   4.62268001655275E-11  7.47009953885683E-03
 cg2d: Sum(rhs),rhsMax =   4.62677118839849E-11  7.47291480080309E-03
 cg2d: Sum(rhs),rhsMax =   4.63014626639335E-11  7.47571642743300E-03
 cg2d: Sum(rhs),rhsMax =   4.63594995725458E-11  7.47849589488863E-03
 cg2d: Sum(rhs),rhsMax =   4.64122351662155E-11  7.48125662663017E-03
 cg2d: Sum(rhs),rhsMax =   4.64459026794373E-11  7.48400204757013E-03
 cg2d: Sum(rhs),rhsMax =   4.64923655130178E-11  7.48673564475372E-03
 cg2d: Sum(rhs),rhsMax =   4.65268101823568E-11  7.48946111583664E-03
 cg2d: Sum(rhs),rhsMax =   4.65958938100641E-11  7.49218223151099E-03
 cg2d: Sum(rhs),rhsMax =   4.66160721135367E-11  7.49490269545507E-03
 cg2d: Sum(rhs),rhsMax =   4.66542637855838E-11  7.49762576155589E-03
 cg2d: Sum(rhs),rhsMax =   4.66947036592558E-11  7.50035543058658E-03
 cg2d: Sum(rhs),rhsMax =   4.67408611815046E-11  7.50309573525550E-03
 cg2d: Sum(rhs),rhsMax =   4.67900440614955E-11  7.50585071116916E-03
 cg2d: Sum(rhs),rhsMax =   4.68285410448743E-11  7.50862391852779E-03
 cg2d: Sum(rhs),rhsMax =   4.68574623546658E-11  7.51142024877258E-03
 cg2d: Sum(rhs),rhsMax =   4.68923511132147E-11  7.51424330755015E-03
 cg2d: Sum(rhs),rhsMax =   4.69281835613344E-11  7.51709713050356E-03
 cg2d: Sum(rhs),rhsMax =   4.69642935652104E-11  7.51998580209250E-03
 cg2d: Sum(rhs),rhsMax =   4.69817518222726E-11  7.52291337307186E-03
 cg2d: Sum(rhs),rhsMax =   4.70284644560337E-11  7.52588383780137E-03
 cg2d: Sum(rhs),rhsMax =   4.70777306027514E-11  7.52890129380647E-03
 cg2d: Sum(rhs),rhsMax =   4.71149785852276E-11  7.53196960900653E-03
 cg2d: Sum(rhs),rhsMax =   4.71499783660789E-11  7.53509269565570E-03
 cg2d: Sum(rhs),rhsMax =   4.71844507909935E-11  7.53827446653924E-03
 Computing Diagnostic #    26 "THETA   " (list#  1) Parms "SMR     MR      ", Count=     144
 Computing Diagnostic #    27 "SALT    " (list#  1) Parms "SMR     MR      ", Count=     144
 Computing Diagnostic #    30 "UVEL    " (list#  1) Parms "UUR     MR      ", Count=     144
             Vector  Mate for "UVEL    " :  Diagnostic #     31 "VVEL    " exists
 Computing Diagnostic #    32 "WVEL    " (list#  1) Parms "WM      LR      ", Count=     144
 Computing Diagnostic #    31 "VVEL    " (list#  1) Parms "VVR     MR      ", Count=     144
             Vector  Mate for "VVEL    " :  Diagnostic #     30 "UVEL    " exists
 Computing Diagnostic #   197 "BRGfwFlx" (list#  2) Parms "SM      MR      ", Count=     144
 Computing Diagnostic #   198 "BRGhtFlx" (list#  2) Parms "SM      MR      ", Count=     144
 Computing Diagnostic #   199 "BRGmltRt" (list#  2) Parms "SM      MR      ", Count=     144
 Computing Diagnostic #   201 "BRG_TauX" (list#  2) Parms "UU      MR      ", Count=    1728
 Computing Diagnostic #   202 "BRG_TauY" (list#  2) Parms "VV      MR      ", Count=    1728
 Computing Diagnostic #   203 "BRGhFacC" (list#  2) Parms "SM      MR      ", Count=    1728
 cg2d: Sum(rhs),rhsMax =   4.72184791266983E-11  7.54151865490103E-03
 cg2d: Sum(rhs),rhsMax =   4.72665795392402E-11  7.54482658303905E-03
 cg2d: Sum(rhs),rhsMax =   4.72815953056482E-11  7.54820390898246E-03
 cg2d: Sum(rhs),rhsMax =   4.73204531115101E-11  7.55165381826858E-03
 cg2d: Sum(rhs),rhsMax =   4.73491246211211E-11  7.55517972245543E-03
 cg2d: Sum(rhs),rhsMax =   4.73898420505492E-11  7.55878490829848E-03
 cg2d: Sum(rhs),rhsMax =   4.74180694709503E-11  7.56247259386381E-03
 cg2d: Sum(rhs),rhsMax =   4.74591754784370E-11  7.56624549816666E-03
 cg2d: Sum(rhs),rhsMax =   4.74789929594266E-11  7.57010698420718E-03
 cg2d: Sum(rhs),rhsMax =   4.74940919925615E-11  7.57405942713906E-03
 cg2d: Sum(rhs),rhsMax =   4.75326999982428E-11  7.57810644738690E-03
 cg2d: Sum(rhs),rhsMax =   4.75339212435699E-11  7.58223396743642E-03
 cg2d: Sum(rhs),rhsMax =   4.75803008104236E-11  7.58645920103584E-03
 cg2d: Sum(rhs),rhsMax =   4.76280681560581E-11  7.59078510580317E-03
 cg2d: Sum(rhs),rhsMax =   4.76723938103163E-11  7.59521343363872E-03
 cg2d: Sum(rhs),rhsMax =   4.77150263744619E-11  7.59974591614221E-03
 cg2d: Sum(rhs),rhsMax =   4.77320682978899E-11  7.60442935628546E-03
 cg2d: Sum(rhs),rhsMax =   4.77479999982933E-11  7.60925470066813E-03
 cg2d: Sum(rhs),rhsMax =   4.77667350118338E-11  7.61418736471862E-03
 cg2d: Sum(rhs),rhsMax =   4.77989314795479E-11  7.61922781559513E-03
 cg2d: Sum(rhs),rhsMax =   4.78163897366102E-11  7.62437523583884E-03
 cg2d: Sum(rhs),rhsMax =   4.78347639276677E-11  7.62964515152189E-03
 cg2d: Sum(rhs),rhsMax =   4.78546091642329E-11  7.63502318499793E-03
 cg2d: Sum(rhs),rhsMax =   4.78762307576375E-11  7.64051539009496E-03
 cg2d: Sum(rhs),rhsMax =   4.79065953573610E-11  7.64611397451246E-03
 cg2d: Sum(rhs),rhsMax =   4.79173645206998E-11  7.65181742997423E-03
 cg2d: Sum(rhs),rhsMax =   4.79217221460715E-11  7.65762446875391E-03
 cg2d: Sum(rhs),rhsMax =   4.79444817180763E-11  7.66353350090984E-03
 cg2d: Sum(rhs),rhsMax =   4.79561668154105E-11  7.66954268988007E-03
 cg2d: Sum(rhs),rhsMax =   4.79758455185220E-11  7.67564998011320E-03
 cg2d: Sum(rhs),rhsMax =   4.80015749371177E-11  7.68185308500662E-03
 cg2d: Sum(rhs),rhsMax =   4.80240569533663E-11  7.68814949751873E-03
 cg2d: Sum(rhs),rhsMax =   4.80411266323699E-11  7.69453650949825E-03
 cg2d: Sum(rhs),rhsMax =   4.80540884861824E-11  7.70101119123840E-03
 cg2d: Sum(rhs),rhsMax =   4.80651907164287E-11  7.70757041078589E-03
 cg2d: Sum(rhs),rhsMax =   4.80871176211650E-11  7.71421083879623E-03
 cg2d: Sum(rhs),rhsMax =   4.81228390469823E-11  7.72092872610561E-03
 cg2d: Sum(rhs),rhsMax =   4.81397699481079E-11  7.72772016522879E-03
 cg2d: Sum(rhs),rhsMax =   4.81512607564127E-11  7.73458128086048E-03
 cg2d: Sum(rhs),rhsMax =   4.81795991991163E-11  7.74150802582344E-03
 cg2d: Sum(rhs),rhsMax =   4.81931716755923E-11  7.74849620899560E-03
 cg2d: Sum(rhs),rhsMax =   4.81957529441246E-11  7.75554144610203E-03
 cg2d: Sum(rhs),rhsMax =   4.82251183431259E-11  7.76263926821354E-03
 cg2d: Sum(rhs),rhsMax =   4.82576478777474E-11  7.76978505744803E-03
 cg2d: Sum(rhs),rhsMax =   4.82562045878154E-11  7.77697406895065E-03
 cg2d: Sum(rhs),rhsMax =   4.82655027056467E-11  7.78420145404400E-03
 cg2d: Sum(rhs),rhsMax =   4.82995310413514E-11  7.79146228974605E-03
 cg2d: Sum(rhs),rhsMax =   4.83094675374218E-11  7.79875155682681E-03
 cg2d: Sum(rhs),rhsMax =   4.83237894144395E-11  7.80606417850407E-03
 cg2d: Sum(rhs),rhsMax =   4.83444118071219E-11  7.81339505614909E-03
 cg2d: Sum(rhs),rhsMax =   4.83620643532134E-11  7.82073906465937E-03
 cg2d: Sum(rhs),rhsMax =   4.83739437395769E-11  7.82809063908667E-03
 cg2d: Sum(rhs),rhsMax =   4.83768025638653E-11  7.83544486482129E-03
 cg2d: Sum(rhs),rhsMax =   4.83814099894175E-11  7.84279640857413E-03
 cg2d: Sum(rhs),rhsMax =   4.84021434044024E-11  7.85014027285023E-03
 cg2d: Sum(rhs),rhsMax =   4.84114137666580E-11  7.85747127518560E-03
 cg2d: Sum(rhs),rhsMax =   4.84254303323439E-11  7.86478431923971E-03
 cg2d: Sum(rhs),rhsMax =   4.84350060059313E-11  7.87207434511988E-03
 cg2d: Sum(rhs),rhsMax =   4.84497442165832E-11  7.87933641644464E-03
 cg2d: Sum(rhs),rhsMax =   4.84508821951835E-11  7.88656572790620E-03
 cg2d: Sum(rhs),rhsMax =   4.84627615815469E-11  7.89375753142632E-03
 cg2d: Sum(rhs),rhsMax =   4.84878526219035E-11  7.90090702345498E-03
 cg2d: Sum(rhs),rhsMax =   4.84958739832564E-11  7.90799939363874E-03
 cg2d: Sum(rhs),rhsMax =   4.85143314410408E-11  7.91502632236335E-03
 cg2d: Sum(rhs),rhsMax =   4.85124995730501E-11  7.92199681148799E-03
 cg2d: Sum(rhs),rhsMax =   4.85325390986446E-11  7.92890863836395E-03
 cg2d: Sum(rhs),rhsMax =   4.85536888472637E-11  7.93575777132034E-03
 cg2d: Sum(rhs),rhsMax =   4.85571582942157E-11  7.94254074082504E-03
 cg2d: Sum(rhs),rhsMax =   4.85620432755240E-11  7.94933367270951E-03
 cg2d: Sum(rhs),rhsMax =   4.85735618394045E-11  7.95605427751990E-03
 cg2d: Sum(rhs),rhsMax =   4.85854134701924E-11  7.96269859801107E-03
 cg2d: Sum(rhs),rhsMax =   4.85931295202136E-11  7.96926371987003E-03
 cg2d: Sum(rhs),rhsMax =   4.86072571082019E-11  7.97574632198729E-03
 cg2d: Sum(rhs),rhsMax =   4.86053419734844E-11  7.98214345885370E-03
 cg2d: Sum(rhs),rhsMax =   4.86211904071610E-11  7.98845095221742E-03
 cg2d: Sum(rhs),rhsMax =   4.86296558577237E-11  7.99466775956469E-03
 cg2d: Sum(rhs),rhsMax =   4.86189144499605E-11  8.00079165789038E-03
 cg2d: Sum(rhs),rhsMax =   4.86680695743757E-11  8.00682062968799E-03
 cg2d: Sum(rhs),rhsMax =   4.86725382220499E-11  8.01275289025610E-03
 cg2d: Sum(rhs),rhsMax =   4.86762297136067E-11  8.01858691497987E-03
 cg2d: Sum(rhs),rhsMax =   4.87162810092201E-11  8.02432139463399E-03
 cg2d: Sum(rhs),rhsMax =   4.87318518871405E-11  8.02995544026096E-03
 cg2d: Sum(rhs),rhsMax =   4.87762885637011E-11  8.03548808052575E-03
 cg2d: Sum(rhs),rhsMax =   4.88159235256802E-11  8.04091871427227E-03
 cg2d: Sum(rhs),rhsMax =   4.88497853279313E-11  8.04624700073212E-03
 cg2d: Sum(rhs),rhsMax =   4.88606377579970E-11  8.05147283321391E-03
 cg2d: Sum(rhs),rhsMax =   4.88806495280159E-11  8.05659632914737E-03
 cg2d: Sum(rhs),rhsMax =   4.89169815764967E-11  8.06161782824973E-03
 cg2d: Sum(rhs),rhsMax =   4.89550899818170E-11  8.06653789020372E-03
 cg2d: Sum(rhs),rhsMax =   4.89731588615427E-11  8.07135728361236E-03
 cg2d: Sum(rhs),rhsMax =   4.89979168349919E-11  8.07607698119637E-03
 cg2d: Sum(rhs),rhsMax =   4.90195661839721E-11  8.08069821061523E-03
 cg2d: Sum(rhs),rhsMax =   4.90201768066356E-11  8.08522234311477E-03
 cg2d: Sum(rhs),rhsMax =   4.90325280377846E-11  8.08965082188504E-03
 cg2d: Sum(rhs),rhsMax =   4.90580354117753E-11  8.09398535062060E-03
 cg2d: Sum(rhs),rhsMax =   4.90916474138459E-11  8.09819386870391E-03
 cg2d: Sum(rhs),rhsMax =   4.91094387378155E-11  8.10230839417920E-03
 cg2d: Sum(rhs),rhsMax =   4.91579554839916E-11  8.10633521345019E-03
 cg2d: Sum(rhs),rhsMax =   4.91802154556353E-11  8.11027695889510E-03
 cg2d: Sum(rhs),rhsMax =   4.92071661195581E-11  8.11413633936308E-03
 cg2d: Sum(rhs),rhsMax =   4.92363927406814E-11  8.11791608277591E-03
 cg2d: Sum(rhs),rhsMax =   4.92513807515138E-11  8.12161897322556E-03
 cg2d: Sum(rhs),rhsMax =   4.92817731068129E-11  8.12524786411196E-03
 cg2d: Sum(rhs),rhsMax =   4.93121377065364E-11  8.12880566851590E-03
 cg2d: Sum(rhs),rhsMax =   4.93427243508648E-11  8.13229533008608E-03
 cg2d: Sum(rhs),rhsMax =   4.93712848381733E-11  8.13571982354211E-03
 cg2d: Sum(rhs),rhsMax =   4.93945162549636E-11  8.13908142760880E-03
 cg2d: Sum(rhs),rhsMax =   4.94208285406472E-11  8.14238769265363E-03
 cg2d: Sum(rhs),rhsMax =   4.94542462536884E-11  8.14563770269643E-03
 cg2d: Sum(rhs),rhsMax =   4.94798646499817E-11  8.14883434335118E-03
 cg2d: Sum(rhs),rhsMax =   4.95111174281249E-11  8.15198051759456E-03
 cg2d: Sum(rhs),rhsMax =   4.95385399368331E-11  8.15507896989249E-03
 cg2d: Sum(rhs),rhsMax =   4.95761487417923E-11  8.15813252863429E-03
 cg2d: Sum(rhs),rhsMax =   4.96316598930235E-11  8.16114389324802E-03
 cg2d: Sum(rhs),rhsMax =   4.96611085587517E-11  8.16411567456205E-03
 cg2d: Sum(rhs),rhsMax =   4.96954144502126E-11  8.16705041264920E-03
 cg2d: Sum(rhs),rhsMax =   4.97379915032070E-11  8.16995065927251E-03
 cg2d: Sum(rhs),rhsMax =   4.97689944811697E-11  8.17281864300663E-03
 cg2d: Sum(rhs),rhsMax =   4.98195373843657E-11  8.17565665328149E-03
 cg2d: Sum(rhs),rhsMax =   4.98767693812852E-11  8.17846674252337E-03
 cg2d: Sum(rhs),rhsMax =   4.99191799008258E-11  8.18125081940130E-03
 cg2d: Sum(rhs),rhsMax =   4.99642827112012E-11  8.18401065377868E-03
 cg2d: Sum(rhs),rhsMax =   5.00173791273539E-11  8.18674787096390E-03
 cg2d: Sum(rhs),rhsMax =   5.00576802231478E-11  8.18946390960298E-03
 cg2d: Sum(rhs),rhsMax =   5.01148011977648E-11  8.19216007890095E-03
 cg2d: Sum(rhs),rhsMax =   5.01461927537861E-11  8.19483748756823E-03
 cg2d: Sum(rhs),rhsMax =   5.01940156105718E-11  8.19749703421838E-03
 cg2d: Sum(rhs),rhsMax =   5.02105024224875E-11  8.20013947496667E-03
 cg2d: Sum(rhs),rhsMax =   5.02610175701079E-11  8.20276540118680E-03
 cg2d: Sum(rhs),rhsMax =   5.03062314027858E-11  8.20537522783629E-03
 cg2d: Sum(rhs),rhsMax =   5.03557473496841E-11  8.20796918701757E-03
 cg2d: Sum(rhs),rhsMax =   5.04101482778907E-11  8.21054737847999E-03
 cg2d: Sum(rhs),rhsMax =   5.04505048848358E-11  8.21310970275171E-03
 cg2d: Sum(rhs),rhsMax =   5.05050445909205E-11  8.21565628227506E-03
 cg2d: Sum(rhs),rhsMax =   5.05483155333053E-11  8.21818822369871E-03
 cg2d: Sum(rhs),rhsMax =   5.05727681954227E-11  8.22070487901393E-03
 cg2d: Sum(rhs),rhsMax =   5.06381880871487E-11  8.22320541860207E-03
 cg2d: Sum(rhs),rhsMax =   5.06817365852896E-11  8.22568884848783E-03
 cg2d: Sum(rhs),rhsMax =   5.07314190656416E-11  8.22815400991756E-03
 cg2d: Sum(rhs),rhsMax =   5.07862918386337E-11  8.23059958848357E-03
 cg2d: Sum(rhs),rhsMax =   5.08395270326645E-11  8.23302412472342E-03
 cg2d: Sum(rhs),rhsMax =   5.08834085977128E-11  8.23542601613975E-03
 cg2d: Sum(rhs),rhsMax =   5.09532971371129E-11  8.23780354116393E-03
 cg2d: Sum(rhs),rhsMax =   5.09814135352116E-11  8.24015486121645E-03
 Computing Diagnostic #    26 "THETA   " (list#  1) Parms "SMR     MR      ", Count=     144
 Computing Diagnostic #    27 "SALT    " (list#  1) Parms "SMR     MR      ", Count=     144
 Computing Diagnostic #    30 "UVEL    " (list#  1) Parms "UUR     MR      ", Count=     144
             Vector  Mate for "UVEL    " :  Diagnostic #     31 "VVEL    " exists
 Computing Diagnostic #    32 "WVEL    " (list#  1) Parms "WM      LR      ", Count=     144
 Computing Diagnostic #    31 "VVEL    " (list#  1) Parms "VVR     MR      ", Count=     144
             Vector  Mate for "VVEL    " :  Diagnostic #     30 "UVEL    " exists
 Computing Diagnostic #   197 "BRGfwFlx" (list#  2) Parms "SM      MR      ", Count=     144
 Computing Diagnostic #   198 "BRGhtFlx" (list#  2) Parms "SM      MR      ", Count=     144
 Computing Diagnostic #   199 "BRGmltRt" (list#  2) Parms "SM      MR      ", Count=     144
 Computing Diagnostic #   201 "BRG_TauX" (list#  2) Parms "UU      MR      ", Count=    1728
 Computing Diagnostic #   202 "BRG_TauY" (list#  2) Parms "VV      MR      ", Count=    1728
 Computing Diagnostic #   203 "BRGhFacC" (list#  2) Parms "SM      MR      ", Count=    1728
 cg2d: Sum(rhs),rhsMax =   5.10164688272141E-11  8.24247802311350E-03
 cg2d: Sum(rhs),rhsMax =   5.10714803780843E-11  8.24477098939676E-03
 cg2d: Sum(rhs),rhsMax =   5.11091169386191E-11  8.24703183462440E-03
 cg2d: Sum(rhs),rhsMax =   5.11484743448420E-11  8.24925475054430E-03
 cg2d: Sum(rhs),rhsMax =   5.11950759563007E-11  8.25144091276325E-03
 cg2d: Sum(rhs),rhsMax =   5.12548337106011E-11  8.25358806698724E-03
 cg2d: Sum(rhs),rhsMax =   5.12927478268921E-11  8.25569389360613E-03
 cg2d: Sum(rhs),rhsMax =   5.13107056843154E-11  8.25775606786132E-03
 cg2d: Sum(rhs),rhsMax =   5.13551701164516E-11  8.25977226727333E-03
 cg2d: Sum(rhs),rhsMax =   5.13971365467825E-11  8.26174017120989E-03
 cg2d: Sum(rhs),rhsMax =   5.14401854445623E-11  8.26365749082276E-03
 cg2d: Sum(rhs),rhsMax =   5.14799869399951E-11  8.26552193491736E-03
 cg2d: Sum(rhs),rhsMax =   5.15270326406636E-11  8.26732979832335E-03
 cg2d: Sum(rhs),rhsMax =   5.15727460737025E-11  8.26908041996818E-03
 cg2d: Sum(rhs),rhsMax =   5.16025000507625E-11  8.27077171846926E-03
 cg2d: Sum(rhs),rhsMax =   5.16469089717475E-11  8.27240168400935E-03
 cg2d: Sum(rhs),rhsMax =   5.17027809454618E-11  8.27396841060596E-03
 cg2d: Sum(rhs),rhsMax =   5.17414167067187E-11  8.27547007535090E-03
 cg2d: Sum(rhs),rhsMax =   5.17999532156921E-11  8.27690551313789E-03
 cg2d: Sum(rhs),rhsMax =   5.18523834980300E-11  8.27827261737977E-03
 cg2d: Sum(rhs),rhsMax =   5.18894649470525E-11  8.27956988764153E-03
 cg2d: Sum(rhs),rhsMax =   5.19315146441102E-11  8.28079599248118E-03
 cg2d: Sum(rhs),rhsMax =   5.19885523520003E-11  8.28194927694503E-03
 cg2d: Sum(rhs),rhsMax =   5.20349041632784E-11  8.28302901913225E-03
 cg2d: Sum(rhs),rhsMax =   5.20735399245353E-11  8.28403456100308E-03
 cg2d: Sum(rhs),rhsMax =   5.21281628973469E-11  8.28496517180518E-03
 cg2d: Sum(rhs),rhsMax =   5.21590270974315E-11  8.28582025718191E-03
 cg2d: Sum(rhs),rhsMax =   5.22130116920039E-11  8.28674495015082E-03
 cg2d: Sum(rhs),rhsMax =   5.22509258082948E-11  8.28773812133518E-03
 cg2d: Sum(rhs),rhsMax =   5.22940302172259E-11  8.28865458248703E-03
 cg2d: Sum(rhs),rhsMax =   5.23217025261147E-11  8.28949440164816E-03
 cg2d: Sum(rhs),rhsMax =   5.23764920323799E-11  8.29025823373535E-03
 cg2d: Sum(rhs),rhsMax =   5.24252030675854E-11  8.29094607499517E-03
 cg2d: Sum(rhs),rhsMax =   5.24754129038740E-11  8.29155839371233E-03
 cg2d: Sum(rhs),rhsMax =   5.25249566063479E-11  8.29209590133350E-03
 cg2d: Sum(rhs),rhsMax =   5.25897658754104E-11  8.29255942746092E-03
 cg2d: Sum(rhs),rhsMax =   5.26284293922430E-11  8.29294998120934E-03
 cg2d: Sum(rhs),rhsMax =   5.26748367146723E-11  8.29326881045647E-03
 cg2d: Sum(rhs),rhsMax =   5.27155818996761E-11  8.29351745968110E-03
 cg2d: Sum(rhs),rhsMax =   5.27630161784032E-11  8.29369732700989E-03
 cg2d: Sum(rhs),rhsMax =   5.28341814742816E-11  8.29380998026238E-03
 cg2d: Sum(rhs),rhsMax =   5.28967425417193E-11  8.29385733797586E-03
 cg2d: Sum(rhs),rhsMax =   5.29546961836047E-11  8.29384148089859E-03
 cg2d: Sum(rhs),rhsMax =   5.30170907175886E-11  8.29376466395134E-03
 cg2d: Sum(rhs),rhsMax =   5.30656074637648E-11  8.29362918660947E-03
 cg2d: Sum(rhs),rhsMax =   5.30979704649326E-11  8.29343786214912E-03
 cg2d: Sum(rhs),rhsMax =   5.31563126848766E-11  8.29319294656691E-03
 cg2d: Sum(rhs),rhsMax =   5.32286992260822E-11  8.29289750020819E-03
 cg2d: Sum(rhs),rhsMax =   5.32843491551915E-11  8.29255442107490E-03
 cg2d: Sum(rhs),rhsMax =   5.33499633359469E-11  8.29216662441530E-03
 cg2d: Sum(rhs),rhsMax =   5.34020327958018E-11  8.29173709336058E-03
 cg2d: Sum(rhs),rhsMax =   5.34588484590870E-11  8.29126893717882E-03
 cg2d: Sum(rhs),rhsMax =   5.34973454424659E-11  8.29076533403214E-03
 cg2d: Sum(rhs),rhsMax =   5.35375077603817E-11  8.29022952907889E-03
 cg2d: Sum(rhs),rhsMax =   5.35958499803257E-11  8.28966480464402E-03
 cg2d: Sum(rhs),rhsMax =   5.36642397186426E-11  8.28907448599513E-03
 cg2d: Sum(rhs),rhsMax =   5.37243027842749E-11  8.28828963649169E-03
 cg2d: Sum(rhs),rhsMax =   5.37599686989410E-11  8.28748019703630E-03
 cg2d: Sum(rhs),rhsMax =   5.38161737395626E-11  8.28665896044612E-03
 cg2d: Sum(rhs),rhsMax =   5.38837030550354E-11  8.28582740167292E-03
 cg2d: Sum(rhs),rhsMax =   5.39427114087943E-11  8.28498919573612E-03
 cg2d: Sum(rhs),rhsMax =   5.40011368954652E-11  8.28411203404532E-03
 cg2d: Sum(rhs),rhsMax =   5.40567313134233E-11  8.28323623280034E-03
 cg2d: Sum(rhs),rhsMax =   5.40979483432125E-11  8.28236590834069E-03
 cg2d: Sum(rhs),rhsMax =   5.41655609254121E-11  8.28150466661013E-03
 cg2d: Sum(rhs),rhsMax =   5.42164646510912E-11  8.28065630124406E-03
 cg2d: Sum(rhs),rhsMax =   5.42773326284163E-11  8.27982444105869E-03
 cg2d: Sum(rhs),rhsMax =   5.43405043185174E-11  8.27901261045824E-03
 cg2d: Sum(rhs),rhsMax =   5.43896871985083E-11  8.27822425157349E-03
 cg2d: Sum(rhs),rhsMax =   5.44488620857209E-11  8.27746270775215E-03
 cg2d: Sum(rhs),rhsMax =   5.45134770657540E-11  8.27666463922297E-03
 cg2d: Sum(rhs),rhsMax =   5.45844758281788E-11  8.27589716682774E-03
 cg2d: Sum(rhs),rhsMax =   5.46270251255976E-11  8.27516693089387E-03
 cg2d: Sum(rhs),rhsMax =   5.46905853937574E-11  8.27447611651642E-03
 cg2d: Sum(rhs),rhsMax =   5.47249467963695E-11  8.27382762153736E-03
 cg2d: Sum(rhs),rhsMax =   5.47621670232701E-11  8.27322428717961E-03
 cg2d: Sum(rhs),rhsMax =   5.48145417944568E-11  8.27266880243823E-03
 cg2d: Sum(rhs),rhsMax =   5.48743550599085E-11  8.27216366233970E-03
 cg2d: Sum(rhs),rhsMax =   5.49481016243192E-11  8.27171121376427E-03
 cg2d: Sum(rhs),rhsMax =   5.50214873662469E-11  8.27131363233110E-03
 cg2d: Sum(rhs),rhsMax =   5.50725021142284E-11  8.27097289064947E-03
 cg2d: Sum(rhs),rhsMax =   5.51023671135908E-11  8.27069079327646E-03
 cg2d: Sum(rhs),rhsMax =   5.51753365218843E-11  8.27046899741503E-03
 cg2d: Sum(rhs),rhsMax =   5.52096146577696E-11  8.27030898467592E-03
 cg2d: Sum(rhs),rhsMax =   5.52796142194723E-11  8.27021205729875E-03
 cg2d: Sum(rhs),rhsMax =   5.53326828800493E-11  8.27017932939133E-03
 cg2d: Sum(rhs),rhsMax =   5.53997125951611E-11  8.27021179468712E-03
 cg2d: Sum(rhs),rhsMax =   5.54680468223268E-11  8.27031123917025E-03
 cg2d: Sum(rhs),rhsMax =   5.55375745392439E-11  8.27047726039121E-03
 cg2d: Sum(rhs),rhsMax =   5.55801238366627E-11  8.27071034720197E-03
 cg2d: Sum(rhs),rhsMax =   5.56300283616196E-11  8.27101081692399E-03
 cg2d: Sum(rhs),rhsMax =   5.56727164369164E-11  8.27137811819548E-03
 cg2d: Sum(rhs),rhsMax =   5.57366375275592E-11  8.27181212508965E-03
 cg2d: Sum(rhs),rhsMax =   5.57940360579323E-11  8.27231277792300E-03
 cg2d: Sum(rhs),rhsMax =   5.58321722188282E-11  8.27288094363098E-03
 cg2d: Sum(rhs),rhsMax =   5.58831037000829E-11  8.27354897474113E-03
 cg2d: Sum(rhs),rhsMax =   5.59317314685615E-11  8.27428799248655E-03
 cg2d: Sum(rhs),rhsMax =   5.59772228569955E-11  8.27509214691288E-03
 cg2d: Sum(rhs),rhsMax =   5.60335666754952E-11  8.27596076422962E-03
 cg2d: Sum(rhs),rhsMax =   5.60809454430711E-11  8.27688432604016E-03
 cg2d: Sum(rhs),rhsMax =   5.61474478022461E-11  8.27787073910210E-03
 cg2d: Sum(rhs),rhsMax =   5.61903301665723E-11  8.27891923983044E-03
 cg2d: Sum(rhs),rhsMax =   5.62626056854754E-11  8.28002888438911E-03
 cg2d: Sum(rhs),rhsMax =   5.62939694859210E-11  8.28119881902404E-03
 cg2d: Sum(rhs),rhsMax =   5.63400437414430E-11  8.28242810494770E-03
 cg2d: Sum(rhs),rhsMax =   5.63639690476236E-11  8.28371578362846E-03
 cg2d: Sum(rhs),rhsMax =   5.63957491817035E-11  8.28506088673015E-03
 cg2d: Sum(rhs),rhsMax =   5.64619184739712E-11  8.28646249564958E-03
 cg2d: Sum(rhs),rhsMax =   5.64892854715282E-11  8.28791960260863E-03
 cg2d: Sum(rhs),rhsMax =   5.65369695504359E-11  8.28943120925034E-03
 cg2d: Sum(rhs),rhsMax =   5.65949787034725E-11  8.29099645354887E-03
 cg2d: Sum(rhs),rhsMax =   5.66147129177352E-11  8.29261424515081E-03
 cg2d: Sum(rhs),rhsMax =   5.66572622151540E-11  8.29428374252139E-03
 cg2d: Sum(rhs),rhsMax =   5.67100810755505E-11  8.29600405537879E-03
 cg2d: Sum(rhs),rhsMax =   5.67342284263361E-11  8.29777305760825E-03
 cg2d: Sum(rhs),rhsMax =   5.67860758415861E-11  8.29959120150873E-03
 cg2d: Sum(rhs),rhsMax =   5.68368685449627E-11  8.30145773258192E-03
 cg2d: Sum(rhs),rhsMax =   5.68866620476172E-11  8.30337193427600E-03
 cg2d: Sum(rhs),rhsMax =   5.69363445279691E-11  8.30533313560384E-03
 cg2d: Sum(rhs),rhsMax =   5.69919389459272E-11  8.30734071432634E-03
 cg2d: Sum(rhs),rhsMax =   5.70238856134608E-11  8.30939413223800E-03
 cg2d: Sum(rhs),rhsMax =   5.70713754033392E-11  8.31149290928647E-03
 cg2d: Sum(rhs),rhsMax =   5.71294123119515E-11  8.31363661264024E-03
 cg2d: Sum(rhs),rhsMax =   5.71760416789857E-11  8.31586746543998E-03
 cg2d: Sum(rhs),rhsMax =   5.72304981183436E-11  8.31820530140560E-03
 cg2d: Sum(rhs),rhsMax =   5.72888403382876E-11  8.32058629137983E-03
 cg2d: Sum(rhs),rhsMax =   5.73332215036970E-11  8.32300738246816E-03
 cg2d: Sum(rhs),rhsMax =   5.73951164373199E-11  8.32546921359928E-03
 cg2d: Sum(rhs),rhsMax =   5.74282565946049E-11  8.32797160027242E-03
 cg2d: Sum(rhs),rhsMax =   5.74530423236297E-11  8.33051431703694E-03
 cg2d: Sum(rhs),rhsMax =   5.74799929875525E-11  8.33309721853653E-03
 cg2d: Sum(rhs),rhsMax =   5.75103853428516E-11  8.33572036143610E-03
 cg2d: Sum(rhs),rhsMax =   5.75432201888049E-11  8.33838361093732E-03
 cg2d: Sum(rhs),rhsMax =   5.75893777110537E-11  8.34108702786832E-03
 cg2d: Sum(rhs),rhsMax =   5.76349801217901E-11  8.34383072558296E-03
 cg2d: Sum(rhs),rhsMax =   5.76589054279708E-11  8.34661487318658E-03
 cg2d: Sum(rhs),rhsMax =   5.76826642006978E-11  8.34943971059205E-03
 cg2d: Sum(rhs),rhsMax =   5.77072001295420E-11  8.35230551303656E-03
 cg2d: Sum(rhs),rhsMax =   5.77505265830780E-11  8.35521259438838E-03
 cg2d: Sum(rhs),rhsMax =   5.77857206529586E-11  8.35816129787837E-03
 cg2d: Sum(rhs),rhsMax =   5.78207204338099E-11  8.36115306051367E-03
 cg2d: Sum(rhs),rhsMax =   5.78695147357422E-11  8.36418662621713E-03
 cg2d: Sum(rhs),rhsMax =   5.79115644327999E-11  8.36726237796869E-03
 cg2d: Sum(rhs),rhsMax =   5.79357672947367E-11  8.37038074931905E-03
 Computing Diagnostic #    26 "THETA   " (list#  1) Parms "SMR     MR      ", Count=     144
 Computing Diagnostic #    27 "SALT    " (list#  1) Parms "SMR     MR      ", Count=     144
 Computing Diagnostic #    30 "UVEL    " (list#  1) Parms "UUR     MR      ", Count=     144
             Vector  Mate for "UVEL    " :  Diagnostic #     31 "VVEL    " exists
 Computing Diagnostic #    32 "WVEL    " (list#  1) Parms "WM      LR      ", Count=     144
 Computing Diagnostic #    31 "VVEL    " (list#  1) Parms "VVR     MR      ", Count=     144
             Vector  Mate for "VVEL    " :  Diagnostic #     30 "UVEL    " exists
 Computing Diagnostic #   197 "BRGfwFlx" (list#  2) Parms "SM      MR      ", Count=     144
 Computing Diagnostic #   198 "BRGhtFlx" (list#  2) Parms "SM      MR      ", Count=     144
 Computing Diagnostic #   199 "BRGmltRt" (list#  2) Parms "SM      MR      ", Count=     144
 Computing Diagnostic #   201 "BRG_TauX" (list#  2) Parms "UU      MR      ", Count=    1728
 Computing Diagnostic #   202 "BRG_TauY" (list#  2) Parms "VV      MR      ", Count=    1728
 Computing Diagnostic #   203 "BRGhFacC" (list#  2) Parms "SM      MR      ", Count=    1728
 cg2d: Sum(rhs),rhsMax =   5.79809256162633E-11  8.37354217734946E-03
 cg2d: Sum(rhs),rhsMax =   5.80178682874077E-11  8.37674646829051E-03
 cg2d: Sum(rhs),rhsMax =   5.80323566978791E-11  8.37999418381737E-03
 cg2d: Sum(rhs),rhsMax =   5.80686609907843E-11  8.38328637135391E-03
 cg2d: Sum(rhs),rhsMax =   5.81083237083391E-11  8.38662347736386E-03
 cg2d: Sum(rhs),rhsMax =   5.81426573553756E-11  8.39000591676002E-03
 cg2d: Sum(rhs),rhsMax =   5.81829029400183E-11  8.39343408347767E-03
 cg2d: Sum(rhs),rhsMax =   5.82097703372142E-11  8.39690830098562E-03
 cg2d: Sum(rhs),rhsMax =   5.82323356201897E-11  8.40042896950414E-03
 cg2d: Sum(rhs),rhsMax =   5.82797976544924E-11  8.40399645065549E-03
 cg2d: Sum(rhs),rhsMax =   5.83272874443708E-11  8.40761087135457E-03
 cg2d: Sum(rhs),rhsMax =   5.83457449021552E-11  8.41127240965228E-03
 cg2d: Sum(rhs),rhsMax =   5.83606218906851E-11  8.41498119492779E-03
 cg2d: Sum(rhs),rhsMax =   5.84051973451238E-11  8.41873729853848E-03
 cg2d: Sum(rhs),rhsMax =   5.84472470421815E-11  8.42254073408088E-03
 cg2d: Sum(rhs),rhsMax =   5.84602921627209E-11  8.42639122831945E-03
 cg2d: Sum(rhs),rhsMax =   5.85005377473635E-11  8.43028889223847E-03
 cg2d: Sum(rhs),rhsMax =   5.85372583739030E-11  8.43423351201187E-03
 cg2d: Sum(rhs),rhsMax =   5.85798631824730E-11  8.43822764412008E-03
 cg2d: Sum(rhs),rhsMax =   5.86091453147475E-11  8.44226811615415E-03
 cg2d: Sum(rhs),rhsMax =   5.86314330419668E-11  8.44635336573632E-03
 cg2d: Sum(rhs),rhsMax =   5.86619919307196E-11  8.45048320838701E-03
 cg2d: Sum(rhs),rhsMax =   5.86860560147784E-11  8.45465665781963E-03
 cg2d: Sum(rhs),rhsMax =   5.87061232959485E-11  8.45887317703713E-03
 cg2d: Sum(rhs),rhsMax =   5.87268844665090E-11  8.46313214928558E-03
 cg2d: Sum(rhs),rhsMax =   5.87337400936860E-11  8.46743290164761E-03
 cg2d: Sum(rhs),rhsMax =   5.87662973838832E-11  8.47177474030293E-03
 cg2d: Sum(rhs),rhsMax =   5.88060156125891E-11  8.47615690637134E-03
 cg2d: Sum(rhs),rhsMax =   5.88281368063548E-11  8.48057852409454E-03
 cg2d: Sum(rhs),rhsMax =   5.88273596502376E-11  8.48503867313532E-03
 cg2d: Sum(rhs),rhsMax =   5.88525894684722E-11  8.48953643145076E-03
 cg2d: Sum(rhs),rhsMax =   5.88768200859846E-11  8.49407085894125E-03
 cg2d: Sum(rhs),rhsMax =   5.89126247785288E-11  8.49864089315580E-03
 cg2d: Sum(rhs),rhsMax =   5.89379378634902E-11  8.50324556337657E-03
 cg2d: Sum(rhs),rhsMax =   5.89499560277318E-11  8.50788376017034E-03
 cg2d: Sum(rhs),rhsMax =   5.89698290198726E-11  8.51255436886444E-03
 cg2d: Sum(rhs),rhsMax =   5.89978066400931E-11  8.51725625868339E-03
 cg2d: Sum(rhs),rhsMax =   5.90366922015306E-11  8.52198826347445E-03
 cg2d: Sum(rhs),rhsMax =   5.90525406352072E-11  8.52674918641279E-03
 cg2d: Sum(rhs),rhsMax =   5.90605064854088E-11  8.53153783133299E-03
 cg2d: Sum(rhs),rhsMax =   5.90783533205297E-11  8.53635297382850E-03
 cg2d: Sum(rhs),rhsMax =   5.90917037524008E-11  8.54119341425586E-03
 cg2d: Sum(rhs),rhsMax =   5.91038884500961E-11  8.54605797013029E-03
 cg2d: Sum(rhs),rhsMax =   5.91282023343354E-11  8.55094540736583E-03
 cg2d: Sum(rhs),rhsMax =   5.91448834352803E-11  8.55585452913026E-03
 cg2d: Sum(rhs),rhsMax =   5.91815763062442E-11  8.56078422574160E-03
 cg2d: Sum(rhs),rhsMax =   5.91874604882747E-11  8.56573325933722E-03
 cg2d: Sum(rhs),rhsMax =   5.92073889915667E-11  8.57070043909960E-03
 cg2d: Sum(rhs),rhsMax =   5.92211835126477E-11  8.57568466674664E-03
 cg2d: Sum(rhs),rhsMax =   5.92508542229808E-11  8.58068487355975E-03
 cg2d: Sum(rhs),rhsMax =   5.92746685068590E-11  8.58570000580488E-03
 cg2d: Sum(rhs),rhsMax =   5.92785265318696E-11  8.59072902931055E-03
 cg2d: Sum(rhs),rhsMax =   5.92960958112343E-11  8.59576892536579E-03
 cg2d: Sum(rhs),rhsMax =   5.93199100951125E-11  8.60082081194867E-03
 cg2d: Sum(rhs),rhsMax =   5.93509130730752E-11  8.60588188579085E-03
 cg2d: Sum(rhs),rhsMax =   5.93627369482874E-11  8.61092366312801E-03
 cg2d: Sum(rhs),rhsMax =   5.93904370127518E-11  8.61597080984195E-03
 cg2d: Sum(rhs),rhsMax =   5.94085058924776E-11  8.62102383404190E-03
 cg2d: Sum(rhs),rhsMax =   5.94466142977979E-11  8.62608195371721E-03
 cg2d: Sum(rhs),rhsMax =   5.94756743854674E-11  8.63114464474931E-03
 cg2d: Sum(rhs),rhsMax =   5.95104521217138E-11  8.63621148314937E-03
 cg2d: Sum(rhs),rhsMax =   5.95407612102861E-11  8.64128212588950E-03
 cg2d: Sum(rhs),rhsMax =   5.95699878314093E-11  8.64635631476860E-03
 cg2d: Sum(rhs),rhsMax =   5.96039606559629E-11  8.65143391248106E-03
 cg2d: Sum(rhs),rhsMax =   5.96270255392994E-11  8.65651488970651E-03
 cg2d: Sum(rhs),rhsMax =   5.96570570721155E-11  8.66159927759427E-03
 cg2d: Sum(rhs),rhsMax =   5.96848126477312E-11  8.66668715603827E-03
 cg2d: Sum(rhs),rhsMax =   5.97006888369833E-11  8.67177872492172E-03
 cg2d: Sum(rhs),rhsMax =   5.97135951796446E-11  8.67687427118410E-03
 cg2d: Sum(rhs),rhsMax =   5.97381033529132E-11  8.68197416150813E-03
 cg2d: Sum(rhs),rhsMax =   5.97578375671759E-11  8.68707881511300E-03
 cg2d: Sum(rhs),rhsMax =   5.97744354013940E-11  8.69218908908531E-03
 cg2d: Sum(rhs),rhsMax =   5.97838445415277E-11  8.69730517050334E-03
 cg2d: Sum(rhs),rhsMax =   5.97829841186837E-11  8.70242767729421E-03
 cg2d: Sum(rhs),rhsMax =   5.97959182169205E-11  8.70755732222052E-03
 cg2d: Sum(rhs),rhsMax =   5.98211757907308E-11  8.71269486087695E-03
 cg2d: Sum(rhs),rhsMax =   5.98318894429184E-11  8.71784114925617E-03
 cg2d: Sum(rhs),rhsMax =   5.98624205760956E-11  8.72299705128154E-03
 cg2d: Sum(rhs),rhsMax =   5.98713578714438E-11  8.72816344780653E-03
 cg2d: Sum(rhs),rhsMax =   5.98988636468789E-11  8.73334132461366E-03
 cg2d: Sum(rhs),rhsMax =   5.99115757005109E-11  8.73853163680208E-03
 cg2d: Sum(rhs),rhsMax =   5.99431615455615E-11  8.74373548272838E-03
 cg2d: Sum(rhs),rhsMax =   5.99583993565744E-11  8.74895375508174E-03
 cg2d: Sum(rhs),rhsMax =   5.99838234638383E-11  8.75418755564933E-03
 cg2d: Sum(rhs),rhsMax =   5.99950089608114E-11  8.75943797837148E-03
 cg2d: Sum(rhs),rhsMax =   6.00290095409406E-11  8.76470607355319E-03
 cg2d: Sum(rhs),rhsMax =   6.00564042940732E-11  8.76999289629010E-03
 cg2d: Sum(rhs),rhsMax =   6.00915428528026E-11  8.77529947387693E-03
 cg2d: Sum(rhs),rhsMax =   6.01070859751474E-11  8.78062684283973E-03
 cg2d: Sum(rhs),rhsMax =   6.01337035721627E-11  8.78597603184482E-03
 cg2d: Sum(rhs),rhsMax =   6.01447225356821E-11  8.79134803753454E-03
 cg2d: Sum(rhs),rhsMax =   6.01430849567208E-11  8.79674382875109E-03
 cg2d: Sum(rhs),rhsMax =   6.01650396170328E-11  8.80216433160507E-03
 cg2d: Sum(rhs),rhsMax =   6.01873273442521E-11  8.80761043056070E-03
 cg2d: Sum(rhs),rhsMax =   6.02036198671385E-11  8.81308295755377E-03
 cg2d: Sum(rhs),rhsMax =   6.01992344861912E-11  8.81858268972395E-03
 cg2d: Sum(rhs),rhsMax =   6.02103367164375E-11  8.82411033662622E-03
 cg2d: Sum(rhs),rhsMax =   6.02423388951223E-11  8.82966653872996E-03
 cg2d: Sum(rhs),rhsMax =   6.02423944062735E-11  8.83525186498607E-03
 cg2d: Sum(rhs),rhsMax =   6.02662919568786E-11  8.84086680725835E-03
 cg2d: Sum(rhs),rhsMax =   6.02866923049561E-11  8.84651176782938E-03
 cg2d: Sum(rhs),rhsMax =   6.03128658127616E-11  8.85218711576454E-03
 cg2d: Sum(rhs),rhsMax =   6.03427308121240E-11  8.85789298777033E-03
 cg2d: Sum(rhs),rhsMax =   6.03643246499530E-11  8.86362950854509E-03
 cg2d: Sum(rhs),rhsMax =   6.03758987249847E-11  8.86939673374217E-03
 cg2d: Sum(rhs),rhsMax =   6.03833094636741E-11  8.87519458282829E-03
 cg2d: Sum(rhs),rhsMax =   6.03818106625909E-11  8.88102281850939E-03
 cg2d: Sum(rhs),rhsMax =   6.03707361879202E-11  8.88688106049593E-03
 cg2d: Sum(rhs),rhsMax =   6.03853356206940E-11  8.89276892201042E-03
 cg2d: Sum(rhs),rhsMax =   6.03923300257492E-11  8.89868589808041E-03
 cg2d: Sum(rhs),rhsMax =   6.04216121580237E-11  8.90463132263970E-03
 cg2d: Sum(rhs),rhsMax =   6.04367111911586E-11  8.91060436424363E-03
 cg2d: Sum(rhs),rhsMax =   6.04590821851048E-11  8.91660419278329E-03
 cg2d: Sum(rhs),rhsMax =   6.04677974358481E-11  8.92262972129491E-03
 cg2d: Sum(rhs),rhsMax =   6.05016592380991E-11  8.92867995793751E-03
 cg2d: Sum(rhs),rhsMax =   6.05047956181437E-11  8.93475361746663E-03
 cg2d: Sum(rhs),rhsMax =   6.05394068209364E-11  8.94084919783716E-03
 cg2d: Sum(rhs),rhsMax =   6.05510641626950E-11  8.94696523826797E-03
 cg2d: Sum(rhs),rhsMax =   6.05554772992178E-11  8.95310014657645E-03
 cg2d: Sum(rhs),rhsMax =   6.05822891852625E-11  8.95925218487956E-03
 cg2d: Sum(rhs),rhsMax =   6.05941685716260E-11  8.96541949992128E-03
 cg2d: Sum(rhs),rhsMax =   6.06288352855699E-11  8.97160013114956E-03
 cg2d: Sum(rhs),rhsMax =   6.06328598440342E-11  8.97779201424894E-03
 cg2d: Sum(rhs),rhsMax =   6.06527605917506E-11  8.98399298026744E-03
 cg2d: Sum(rhs),rhsMax =   6.06714956052912E-11  8.99020076113499E-03
 cg2d: Sum(rhs),rhsMax =   6.06748540299407E-11  8.99641297306351E-03
 cg2d: Sum(rhs),rhsMax =   6.06722727614084E-11  9.00262715265131E-03
 cg2d: Sum(rhs),rhsMax =   6.06871497499384E-11  9.00886165643292E-03
 cg2d: Sum(rhs),rhsMax =   6.07016381604097E-11  9.01509360578298E-03
 cg2d: Sum(rhs),rhsMax =   6.07093819660065E-11  9.02131911603716E-03
 cg2d: Sum(rhs),rhsMax =   6.07116579232070E-11  9.02753560151958E-03
 cg2d: Sum(rhs),rhsMax =   6.07033590060979E-11  9.03374014194364E-03
 cg2d: Sum(rhs),rhsMax =   6.07271732899761E-11  9.03992975075583E-03
 cg2d: Sum(rhs),rhsMax =   6.07471295488438E-11  9.04610134855186E-03
 cg2d: Sum(rhs),rhsMax =   6.07598693580513E-11  9.05225182894319E-03
 cg2d: Sum(rhs),rhsMax =   6.07858485768276E-11  9.05837410665929E-03
 cg2d: Sum(rhs),rhsMax =   6.07874306446377E-11  9.06446787179522E-03
 cg2d: Sum(rhs),rhsMax =   6.07718042555661E-11  9.07052749637695E-03
 cg2d: Sum(rhs),rhsMax =   6.07881800451793E-11  9.07654980176483E-03
 cg2d: Sum(rhs),rhsMax =   6.07957573173223E-11  9.08253262837132E-03
 cg2d: Sum(rhs),rhsMax =   6.08075534369590E-11  9.08847226288530E-03
 cg2d: Sum(rhs),rhsMax =   6.08162409321267E-11  9.09436570313235E-03
 cg2d: Sum(rhs),rhsMax =   6.08435524185325E-11  9.10021000625191E-03
 cg2d: Sum(rhs),rhsMax =   6.08511296906755E-11  9.10600234269976E-03
 Computing Diagnostic #    26 "THETA   " (list#  1) Parms "SMR     MR      ", Count=     144
 Computing Diagnostic #    27 "SALT    " (list#  1) Parms "SMR     MR      ", Count=     144
 Computing Diagnostic #    30 "UVEL    " (list#  1) Parms "UUR     MR      ", Count=     144
             Vector  Mate for "UVEL    " :  Diagnostic #     31 "VVEL    " exists
 Computing Diagnostic #    32 "WVEL    " (list#  1) Parms "WM      LR      ", Count=     144
 Computing Diagnostic #    31 "VVEL    " (list#  1) Parms "VVR     MR      ", Count=     144
             Vector  Mate for "VVEL    " :  Diagnostic #     30 "UVEL    " exists
 Computing Diagnostic #   197 "BRGfwFlx" (list#  2) Parms "SM      MR      ", Count=     144
 Computing Diagnostic #   198 "BRGhtFlx" (list#  2) Parms "SM      MR      ", Count=     144
 Computing Diagnostic #   199 "BRGmltRt" (list#  2) Parms "SM      MR      ", Count=     144
 Computing Diagnostic #   201 "BRG_TauX" (list#  2) Parms "UU      MR      ", Count=    1728
 Computing Diagnostic #   202 "BRG_TauY" (list#  2) Parms "VV      MR      ", Count=    1728
 Computing Diagnostic #   203 "BRGhFacC" (list#  2) Parms "SM      MR      ", Count=    1728
 cg2d: Sum(rhs),rhsMax =   6.08676442581668E-11  9.11173989089225E-03
 cg2d: Sum(rhs),rhsMax =   6.08851857819559E-11  9.11741988016845E-03
 cg2d: Sum(rhs),rhsMax =   6.09006178819982E-11  9.12303962320517E-03
 cg2d: Sum(rhs),rhsMax =   6.09088335323804E-11  9.12859651101196E-03
 cg2d: Sum(rhs),rhsMax =   6.09290673470042E-11  9.13408800620191E-03
 cg2d: Sum(rhs),rhsMax =   6.09418626673630E-11  9.13951166463688E-03
 cg2d: Sum(rhs),rhsMax =   6.09698680431592E-11  9.14486513637026E-03
 cg2d: Sum(rhs),rhsMax =   6.09786665606293E-11  9.15014618077129E-03
 cg2d: Sum(rhs),rhsMax =   6.10141659418417E-11  9.15535266650323E-03
 cg2d: Sum(rhs),rhsMax =   6.10256567501466E-11  9.16048258241359E-03
 cg2d: Sum(rhs),rhsMax =   6.10491379671174E-11  9.16553395951743E-03
 cg2d: Sum(rhs),rhsMax =   6.10659856015161E-11  9.17050502608970E-03
 cg2d: Sum(rhs),rhsMax =   6.10974326686886E-11  9.17539415387564E-03
 cg2d: Sum(rhs),rhsMax =   6.11235784209185E-11  9.18019983142891E-03
 cg2d: Sum(rhs),rhsMax =   6.11298234254321E-11  9.18492069117343E-03
 cg2d: Sum(rhs),rhsMax =   6.11566630670524E-11  9.18955551534021E-03
 cg2d: Sum(rhs),rhsMax =   6.11754813473198E-11  9.19410322865387E-03
 cg2d: Sum(rhs),rhsMax =   6.11957706730948E-11  9.19856290273209E-03
 cg2d: Sum(rhs),rhsMax =   6.11983796972027E-11  9.20293378426388E-03
 cg2d: Sum(rhs),rhsMax =   6.12241368713740E-11  9.20721524653145E-03
 cg2d: Sum(rhs),rhsMax =   6.12355721685276E-11  9.21140682478971E-03
 cg2d: Sum(rhs),rhsMax =   6.12786765774587E-11  9.21550821009045E-03
 cg2d: Sum(rhs),rhsMax =   6.13076533984014E-11  9.21951924497652E-03
 cg2d: Sum(rhs),rhsMax =   6.13345485511729E-11  9.22343993601602E-03
 cg2d: Sum(rhs),rhsMax =   6.13598338805588E-11  9.22727045131359E-03
 cg2d: Sum(rhs),rhsMax =   6.13944728389271E-11  9.23101110109533E-03
 cg2d: Sum(rhs),rhsMax =   6.14134021414969E-11  9.23466240072486E-03
 cg2d: Sum(rhs),rhsMax =   6.14507889018512E-11  9.23822495293064E-03
 cg2d: Sum(rhs),rhsMax =   6.14830963918678E-11  9.24169955527716E-03
 cg2d: Sum(rhs),rhsMax =   6.15179296392654E-11  9.24508716232814E-03
 cg2d: Sum(rhs),rhsMax =   6.15437423245879E-11  9.24838886780549E-03
 cg2d: Sum(rhs),rhsMax =   6.15888173793877E-11  9.25160583767021E-03
 cg2d: Sum(rhs),rhsMax =   6.16256767838053E-11  9.25473944850050E-03
 cg2d: Sum(rhs),rhsMax =   6.16466599989707E-11  9.25779122456959E-03
 cg2d: Sum(rhs),rhsMax =   6.16963147237470E-11  9.26076276910465E-03
 cg2d: Sum(rhs),rhsMax =   6.17483564280263E-11  9.26365586822229E-03
 cg2d: Sum(rhs),rhsMax =   6.17807749403454E-11  9.26647243430879E-03
 cg2d: Sum(rhs),rhsMax =   6.18260165285989E-11  9.26921450611219E-03
 cg2d: Sum(rhs),rhsMax =   6.18615714209625E-11  9.27188423643942E-03
 cg2d: Sum(rhs),rhsMax =   6.19181927952184E-11  9.27448388399657E-03
 cg2d: Sum(rhs),rhsMax =   6.19634343834718E-11  9.27701581501086E-03
 cg2d: Sum(rhs),rhsMax =   6.20085094382716E-11  9.27948253529356E-03
 cg2d: Sum(rhs),rhsMax =   6.20406226392589E-11  9.28188656057332E-03
 cg2d: Sum(rhs),rhsMax =   6.20795637118476E-11  9.28423034385981E-03
 cg2d: Sum(rhs),rhsMax =   6.21077911322487E-11  9.28651679261229E-03
 cg2d: Sum(rhs),rhsMax =   6.21261930788819E-11  9.28875681971001E-03
 cg2d: Sum(rhs),rhsMax =   6.21659668187391E-11  9.29094523563218E-03
 cg2d: Sum(rhs),rhsMax =   6.22135676309199E-11  9.29308466707399E-03
 cg2d: Sum(rhs),rhsMax =   6.22387141824277E-11  9.29517801230293E-03
 cg2d: Sum(rhs),rhsMax =   6.22889795298676E-11  9.29722826120438E-03
 cg2d: Sum(rhs),rhsMax =   6.23159579493660E-11  9.29923801735235E-03
 cg2d: Sum(rhs),rhsMax =   6.23607832039852E-11  9.30121051576814E-03
 cg2d: Sum(rhs),rhsMax =   6.24087725942246E-11  9.30314943981538E-03
 cg2d: Sum(rhs),rhsMax =   6.24646168123633E-11  9.30508487374105E-03
 cg2d: Sum(rhs),rhsMax =   6.25112184238219E-11  9.30699287615809E-03
 cg2d: Sum(rhs),rhsMax =   6.25645646401551E-11  9.30887496777108E-03
 cg2d: Sum(rhs),rhsMax =   6.25885454574870E-11  9.31073435363105E-03
 cg2d: Sum(rhs),rhsMax =   6.26267371295341E-11  9.31257384454849E-03
 cg2d: Sum(rhs),rhsMax =   6.26609319986926E-11  9.31439617605374E-03
 cg2d: Sum(rhs),rhsMax =   6.27093654781419E-11  9.31620404235550E-03
 cg2d: Sum(rhs),rhsMax =   6.27439489253589E-11  9.31800009641432E-03
 cg2d: Sum(rhs),rhsMax =   6.27910223816031E-11  9.31978693128329E-03
 cg2d: Sum(rhs),rhsMax =   6.28316565443043E-11  9.32156708591388E-03
 cg2d: Sum(rhs),rhsMax =   6.28735119523327E-11  9.32334303701934E-03
 cg2d: Sum(rhs),rhsMax =   6.29089003112426E-11  9.32511717765511E-03
 cg2d: Sum(rhs),rhsMax =   6.29493956960658E-11  9.32689181554058E-03
 cg2d: Sum(rhs),rhsMax =   6.29990504208422E-11  9.32866919226160E-03
 cg2d: Sum(rhs),rhsMax =   6.30289154202046E-11  9.33045148263428E-03
 cg2d: Sum(rhs),rhsMax =   6.30779872778930E-11  9.33224075101539E-03
 cg2d: Sum(rhs),rhsMax =   6.31361074532322E-11  9.33403894650245E-03
 cg2d: Sum(rhs),rhsMax =   6.31573404685781E-11  9.33584793168452E-03
 cg2d: Sum(rhs),rhsMax =   6.32111307741212E-11  9.33766946909298E-03
 cg2d: Sum(rhs),rhsMax =   6.32378871490147E-11  9.33950517680021E-03
 cg2d: Sum(rhs),rhsMax =   6.32751351314909E-11  9.34135652360093E-03
 cg2d: Sum(rhs),rhsMax =   6.33158248053434E-11  9.34322493150105E-03
 cg2d: Sum(rhs),rhsMax =   6.33562091678641E-11  9.34511170570779E-03
 cg2d: Sum(rhs),rhsMax =   6.33765262492147E-11  9.34701796030799E-03
 cg2d: Sum(rhs),rhsMax =   6.34161889667695E-11  9.34894469895265E-03
 cg2d: Sum(rhs),rhsMax =   6.34545194166947E-11  9.35089280923336E-03
 cg2d: Sum(rhs),rhsMax =   6.34979568925331E-11  9.35286306755791E-03
 cg2d: Sum(rhs),rhsMax =   6.35253516456658E-11  9.35485609456481E-03
 cg2d: Sum(rhs),rhsMax =   6.35581309804678E-11  9.35687239238957E-03
 cg2d: Sum(rhs),rhsMax =   6.36144192878163E-11  9.35891234144479E-03
 cg2d: Sum(rhs),rhsMax =   6.36558028510592E-11  9.36095690199889E-03
 cg2d: Sum(rhs),rhsMax =   6.36846131385482E-11  9.36302486102394E-03
 cg2d: Sum(rhs),rhsMax =   6.37260799685180E-11  9.36511710480635E-03
 cg2d: Sum(rhs),rhsMax =   6.37543351444947E-11  9.36723318183210E-03
 cg2d: Sum(rhs),rhsMax =   6.37846442330670E-11  9.36937288273865E-03
 cg2d: Sum(rhs),rhsMax =   6.38285257981153E-11  9.37153598705484E-03
 cg2d: Sum(rhs),rhsMax =   6.38650521356254E-11  9.37372197123477E-03
 cg2d: Sum(rhs),rhsMax =   6.39102104571521E-11  9.37593047488525E-03
 cg2d: Sum(rhs),rhsMax =   6.39533981328100E-11  9.37816087535169E-03
 cg2d: Sum(rhs),rhsMax =   6.39892305809298E-11  9.38041231561444E-03
 cg2d: Sum(rhs),rhsMax =   6.40301422993872E-11  9.38268401783043E-03
 cg2d: Sum(rhs),rhsMax =   6.40578701194272E-11  9.38497514993017E-03
 cg2d: Sum(rhs),rhsMax =   6.40912323213172E-11  9.38728471988779E-03
 cg2d: Sum(rhs),rhsMax =   6.41262321021685E-11  9.38961159435093E-03
 cg2d: Sum(rhs),rhsMax =   6.41698083558850E-11  9.39195456773673E-03
 cg2d: Sum(rhs),rhsMax =   6.41995345773694E-11  9.39431238196133E-03
 cg2d: Sum(rhs),rhsMax =   6.42399466954657E-11  9.39668375551301E-03
 cg2d: Sum(rhs),rhsMax =   6.42682851381693E-11  9.39906730153754E-03
 cg2d: Sum(rhs),rhsMax =   6.43043118753184E-11  9.40146154133160E-03
 cg2d: Sum(rhs),rhsMax =   6.43542719114265E-11  9.40386495320294E-03
 cg2d: Sum(rhs),rhsMax =   6.43759212604067E-11  9.40627598997072E-03
 cg2d: Sum(rhs),rhsMax =   6.44049813480763E-11  9.40869304429753E-03
 cg2d: Sum(rhs),rhsMax =   6.44432840424258E-11  9.41111454174628E-03
 cg2d: Sum(rhs),rhsMax =   6.44777287117648E-11  9.41353879250876E-03
 cg2d: Sum(rhs),rhsMax =   6.44977682373593E-11  9.41596416435668E-03
 cg2d: Sum(rhs),rhsMax =   6.45400677345975E-11  9.41838896764293E-03
 cg2d: Sum(rhs),rhsMax =   6.45657971531932E-11  9.42081151240356E-03
 cg2d: Sum(rhs),rhsMax =   6.46084297173388E-11  9.42323011394447E-03
 cg2d: Sum(rhs),rhsMax =   6.46400988291163E-11  9.42564307492214E-03
 cg2d: Sum(rhs),rhsMax =   6.46699915840543E-11  9.42804877062423E-03
 cg2d: Sum(rhs),rhsMax =   6.47024378519490E-11  9.43044555408012E-03
 cg2d: Sum(rhs),rhsMax =   6.47388254115810E-11  9.43283179821987E-03
 cg2d: Sum(rhs),rhsMax =   6.47897013816845E-11  9.43520588912975E-03
 cg2d: Sum(rhs),rhsMax =   6.48346654141818E-11  9.43757071461436E-03
 cg2d: Sum(rhs),rhsMax =   6.48653353252371E-11  9.43992054651039E-03
 cg2d: Sum(rhs),rhsMax =   6.49063303104214E-11  9.44225369890630E-03
 cg2d: Sum(rhs),rhsMax =   6.49272580144356E-11  9.44456882550638E-03
 cg2d: Sum(rhs),rhsMax =   6.49715836686937E-11  9.44686435688125E-03
 cg2d: Sum(rhs),rhsMax =   6.50254572409636E-11  9.44913925225584E-03
 cg2d: Sum(rhs),rhsMax =   6.50716425187881E-11  9.45139231239206E-03
 cg2d: Sum(rhs),rhsMax =   6.50968445814470E-11  9.45362241582299E-03
 cg2d: Sum(rhs),rhsMax =   6.51396991901976E-11  9.45582852914859E-03
 cg2d: Sum(rhs),rhsMax =   6.51907416937547E-11  9.45800970593615E-03
 cg2d: Sum(rhs),rhsMax =   6.52300990999777E-11  9.46016508834285E-03
 cg2d: Sum(rhs),rhsMax =   6.52790599353636E-11  9.46229392617708E-03
 cg2d: Sum(rhs),rhsMax =   6.53252729687637E-11  9.46439553745327E-03
 cg2d: Sum(rhs),rhsMax =   6.53601894828881E-11  9.46646935351055E-03
 cg2d: Sum(rhs),rhsMax =   6.54252485521312E-11  9.46851492055845E-03
 cg2d: Sum(rhs),rhsMax =   6.54729048754632E-11  9.47053184730530E-03
 cg2d: Sum(rhs),rhsMax =   6.55192011755901E-11  9.47251987915276E-03
 cg2d: Sum(rhs),rhsMax =   6.55704934793278E-11  9.47447882837673E-03
 cg2d: Sum(rhs),rhsMax =   6.55947240968402E-11  9.47640867261954E-03
 cg2d: Sum(rhs),rhsMax =   6.56178444913280E-11  9.47830938859563E-03
 cg2d: Sum(rhs),rhsMax =   6.56490972694712E-11  9.48018135728916E-03
 cg2d: Sum(rhs),rhsMax =   6.56966703260764E-11  9.48202478051496E-03
 cg2d: Sum(rhs),rhsMax =   6.57488230526582E-11  9.48383980697907E-03
 cg2d: Sum(rhs),rhsMax =   6.57871535025834E-11  9.48562716661383E-03
 cg2d: Sum(rhs),rhsMax =   6.58153809229844E-11  9.48738735276008E-03
 cg2d: Sum(rhs),rhsMax =   6.58589016655498E-11  9.48912107009486E-03
 cg2d: Sum(rhs),rhsMax =   6.59119980817024E-11  9.49082915458620E-03
 cg2d: Sum(rhs),rhsMax =   6.59507448652619E-11  9.49251250162862E-03
(PID.TID 0000.0001)      cg2d_init_res =   2.46884355257123E-03
(PID.TID 0000.0001)      cg2d_iters(min,last) =      -1      43
(PID.TID 0000.0001)      cg2d_last_res =   6.67255325355904E-14
(PID.TID 0000.0001) // =======================================================
(PID.TID 0000.0001) // Begin MONITOR dynamic field statistics
(PID.TID 0000.0001) // =======================================================
(PID.TID 0000.0001) %MON time_tsnumber                =                  1728
(PID.TID 0000.0001) %MON time_secondsf                =   4.3200000000000E+04
(PID.TID 0000.0001) %MON dynstat_eta_max              =   3.6744673333062E-03
(PID.TID 0000.0001) %MON dynstat_eta_min              =  -2.0083034622795E-03
(PID.TID 0000.0001) %MON dynstat_eta_mean             =  -4.1956600752212E-15
(PID.TID 0000.0001) %MON dynstat_eta_sd               =   1.8776311193983E-03
(PID.TID 0000.0001) %MON dynstat_eta_del2             =   1.4195404736210E-05
(PID.TID 0000.0001) %MON dynstat_uvel_max             =   3.2408156328852E-02
(PID.TID 0000.0001) %MON dynstat_uvel_min             =  -1.3849296577967E-02
(PID.TID 0000.0001) %MON dynstat_uvel_mean            =  -1.0941449069440E-07
(PID.TID 0000.0001) %MON dynstat_uvel_sd              =   4.0052567379491E-03
(PID.TID 0000.0001) %MON dynstat_uvel_del2            =   9.5780397473735E-05
(PID.TID 0000.0001) %MON dynstat_vvel_max             =   1.4950795773657E-02
(PID.TID 0000.0001) %MON dynstat_vvel_min             =  -3.1291869203477E-02
(PID.TID 0000.0001) %MON dynstat_vvel_mean            =  -8.0919810460410E-03
(PID.TID 0000.0001) %MON dynstat_vvel_sd              =   1.0660545623484E-02
(PID.TID 0000.0001) %MON dynstat_vvel_del2            =   9.2190866717668E-05
(PID.TID 0000.0001) %MON dynstat_wvel_max             =   1.7354920363044E-03
(PID.TID 0000.0001) %MON dynstat_wvel_min             =  -1.4519585914184E-03
(PID.TID 0000.0001) %MON dynstat_wvel_mean            =  -1.6584873472471E-20
(PID.TID 0000.0001) %MON dynstat_wvel_sd              =   1.6475503743055E-04
(PID.TID 0000.0001) %MON dynstat_wvel_del2            =   9.4181392910846E-06
(PID.TID 0000.0001) %MON dynstat_theta_max            =   2.6931436233322E+00
(PID.TID 0000.0001) %MON dynstat_theta_min            =   6.4965951975188E-01
(PID.TID 0000.0001) %MON dynstat_theta_mean           =   2.2593253860795E+00
(PID.TID 0000.0001) %MON dynstat_theta_sd             =   4.1820138268643E-01
(PID.TID 0000.0001) %MON dynstat_theta_del2           =   9.3228629133547E-04
(PID.TID 0000.0001) %MON dynstat_salt_max             =   3.4699998050161E+01
(PID.TID 0000.0001) %MON dynstat_salt_min             =   3.3147553761215E+01
(PID.TID 0000.0001) %MON dynstat_salt_mean            =   3.4367869925145E+01
(PID.TID 0000.0001) %MON dynstat_salt_sd              =   3.1359593998995E-01
(PID.TID 0000.0001) %MON dynstat_salt_del2            =   1.5912972766852E-04
(PID.TID 0000.0001) %MON advcfl_uvel_max              =   1.6204078164426E-03
(PID.TID 0000.0001) %MON advcfl_vvel_max              =   1.5645934601739E-03
(PID.TID 0000.0001) %MON advcfl_wvel_max              =   7.6361649621831E-04
(PID.TID 0000.0001) %MON advcfl_W_hf_max              =   1.7874586126631E-03
(PID.TID 0000.0001) %MON pe_b_mean                    =   2.9414754054332E-08
(PID.TID 0000.0001) %MON ke_max                       =   6.5818742746851E-04
(PID.TID 0000.0001) %MON ke_mean                      =   8.7638934972465E-05
(PID.TID 0000.0001) %MON ke_vol                       =   3.2921708585402E+10
(PID.TID 0000.0001) // =======================================================
(PID.TID 0000.0001) // End MONITOR dynamic field statistics
(PID.TID 0000.0001) // =======================================================
(PID.TID 0000.0001) // =======================================================
(PID.TID 0000.0001) // Begin OBCS MONITOR field statistics
(PID.TID 0000.0001) // =======================================================
(PID.TID 0000.0001) %MON obc_E_uVel_max               =   0.0000000000000E+00
(PID.TID 0000.0001) %MON obc_E_uVel_min               =   0.0000000000000E+00
(PID.TID 0000.0001) %MON obc_E_uVel_mean              =   0.0000000000000E+00
(PID.TID 0000.0001) %MON obc_E_uVel_sd                =   0.0000000000000E+00
(PID.TID 0000.0001) %MON obc_E_uVel_Int               =   0.0000000000000E+00
(PID.TID 0000.0001) %MON obc_N_vVel_max               =  -3.6115799844846E-05
(PID.TID 0000.0001) %MON obc_N_vVel_min               =  -3.0000000000000E-02
(PID.TID 0000.0001) %MON obc_N_vVel_mean              =  -1.3225455303334E-02
(PID.TID 0000.0001) %MON obc_N_vVel_sd                =   1.1350864292742E-02
(PID.TID 0000.0001) %MON obc_N_vVel_Int               =  -5.9514548865004E+04
(PID.TID 0000.0001) %MON obc_S_vVel_max               =  -3.6115799844846E-05
(PID.TID 0000.0001) %MON obc_S_vVel_min               =  -3.0000000000000E-02
(PID.TID 0000.0001) %MON obc_S_vVel_mean              =  -1.3225455303334E-02
(PID.TID 0000.0001) %MON obc_S_vVel_sd                =   1.1350864292742E-02
(PID.TID 0000.0001) %MON obc_S_vVel_Int               =  -5.9514548865004E+04
(PID.TID 0000.0001) // =======================================================
(PID.TID 0000.0001) // End OBCS MONITOR field statistics
(PID.TID 0000.0001) // =======================================================
 Computing Diagnostic #    26 "THETA   " (list#  1) Parms "SMR     MR      ", Count=     144
 Computing Diagnostic #    27 "SALT    " (list#  1) Parms "SMR     MR      ", Count=     144
 Computing Diagnostic #    30 "UVEL    " (list#  1) Parms "UUR     MR      ", Count=     144
             Vector  Mate for "UVEL    " :  Diagnostic #     31 "VVEL    " exists
 Computing Diagnostic #    32 "WVEL    " (list#  1) Parms "WM      LR      ", Count=     144
 Computing Diagnostic #    31 "VVEL    " (list#  1) Parms "VVR     MR      ", Count=     144
             Vector  Mate for "VVEL    " :  Diagnostic #     30 "UVEL    " exists
 Computing Diagnostic #   197 "BRGfwFlx" (list#  2) Parms "SM      MR      ", Count=     144
 Computing Diagnostic #   198 "BRGhtFlx" (list#  2) Parms "SM      MR      ", Count=     144
 Computing Diagnostic #   199 "BRGmltRt" (list#  2) Parms "SM      MR      ", Count=     144
 Computing Diagnostic #   201 "BRG_TauX" (list#  2) Parms "UU      MR      ", Count=    1728
 Computing Diagnostic #   202 "BRG_TauY" (list#  2) Parms "VV      MR      ", Count=    1728
 Computing Diagnostic #   203 "BRGhFacC" (list#  2) Parms "SM      MR      ", Count=    1728
 cg2d: Sum(rhs),rhsMax =   6.59942933634028E-11  9.49417211600481E-03
 cg2d: Sum(rhs),rhsMax =   6.60420329534617E-11  9.49580905003671E-03
 cg2d: Sum(rhs),rhsMax =   6.60817234265920E-11  9.49742446171548E-03
 cg2d: Sum(rhs),rhsMax =   6.61265486812113E-11  9.49901958900984E-03
 cg2d: Sum(rhs),rhsMax =   6.61758980946558E-11  9.50059574500271E-03
 cg2d: Sum(rhs),rhsMax =   6.62167265463864E-11  9.50219082716636E-03
 cg2d: Sum(rhs),rhsMax =   6.62620791569424E-11  9.50388911085505E-03
 cg2d: Sum(rhs),rhsMax =   6.62880028645674E-11  9.50560041626237E-03
 cg2d: Sum(rhs),rhsMax =   6.63328836303378E-11  9.50729635496118E-03
 cg2d: Sum(rhs),rhsMax =   6.63673282996768E-11  9.50897696897378E-03
 cg2d: Sum(rhs),rhsMax =   6.64150123785845E-11  9.51064380458376E-03
 cg2d: Sum(rhs),rhsMax =   6.64480137579915E-11  9.51216801092525E-03
 cg2d: Sum(rhs),rhsMax =   6.64956423257479E-11  9.51368052774789E-03
 cg2d: Sum(rhs),rhsMax =   6.65300592395113E-11  9.51518335616128E-03
 cg2d: Sum(rhs),rhsMax =   6.65636712415818E-11  9.51667747315298E-03
 cg2d: Sum(rhs),rhsMax =   6.65961730206277E-11  9.51816485064641E-03
 cg2d: Sum(rhs),rhsMax =   6.66492694367804E-11  9.51964760703740E-03
 cg2d: Sum(rhs),rhsMax =   6.66871002863445E-11  9.52112760907040E-03
 cg2d: Sum(rhs),rhsMax =   6.67263744258406E-11  9.52260577808488E-03
 cg2d: Sum(rhs),rhsMax =   6.67653710095806E-11  9.52408489583829E-03
 cg2d: Sum(rhs),rhsMax =   6.67979005442021E-11  9.52556687955770E-03
 cg2d: Sum(rhs),rhsMax =   6.68499700040570E-11  9.52705371061397E-03
 cg2d: Sum(rhs),rhsMax =   6.68889388322214E-11  9.52854741222345E-03
 cg2d: Sum(rhs),rhsMax =   6.69257704810633E-11  9.53004996714543E-03
 cg2d: Sum(rhs),rhsMax =   6.69679589559991E-11  9.53156337544622E-03
 cg2d: Sum(rhs),rhsMax =   6.70122290991060E-11  9.53308964308721E-03
 cg2d: Sum(rhs),rhsMax =   6.70586364215353E-11  9.53454404595227E-03
 cg2d: Sum(rhs),rhsMax =   6.70935806912354E-11  9.53595202232919E-03
 cg2d: Sum(rhs),rhsMax =   6.71497302207058E-11  9.53737905864524E-03
 cg2d: Sum(rhs),rhsMax =   6.71983024780332E-11  9.53882949637305E-03
 cg2d: Sum(rhs),rhsMax =   6.72416011759935E-11  9.54030477942016E-03
 cg2d: Sum(rhs),rhsMax =   6.72904232335014E-11  9.54180728813795E-03
 cg2d: Sum(rhs),rhsMax =   6.73291700170608E-11  9.54333947116884E-03
 cg2d: Sum(rhs),rhsMax =   6.73829603226039E-11  9.54490371897519E-03
 cg2d: Sum(rhs),rhsMax =   6.74250377752372E-11  9.54650237321106E-03
 cg2d: Sum(rhs),rhsMax =   6.74797162592000E-11  9.54813769534616E-03
 cg2d: Sum(rhs),rhsMax =   6.75229039348579E-11  9.54981192196097E-03
 cg2d: Sum(rhs),rhsMax =   6.75680345008089E-11  9.55152719790765E-03
 cg2d: Sum(rhs),rhsMax =   6.75901834501502E-11  9.55328564877356E-03
 cg2d: Sum(rhs),rhsMax =   6.76231293184060E-11  9.55508931436363E-03
 cg2d: Sum(rhs),rhsMax =   6.76579625658036E-11  9.55694012445281E-03
 cg2d: Sum(rhs),rhsMax =   6.77037870211450E-11  9.55883993191221E-03
 cg2d: Sum(rhs),rhsMax =   6.77316536190631E-11  9.56079047568918E-03
 cg2d: Sum(rhs),rhsMax =   6.77633782419917E-11  9.56279368716109E-03
 cg2d: Sum(rhs),rhsMax =   6.78088418748501E-11  9.56484963339109E-03
 cg2d: Sum(rhs),rhsMax =   6.78239686635607E-11  9.56696110668873E-03
 cg2d: Sum(rhs),rhsMax =   6.78573031098750E-11  9.56912961529843E-03
 cg2d: Sum(rhs),rhsMax =   6.78939404696877E-11  9.57135650253816E-03
 cg2d: Sum(rhs),rhsMax =   6.79367673228626E-11  9.57364312394810E-03
 cg2d: Sum(rhs),rhsMax =   6.79565015371253E-11  9.57599037761785E-03
 cg2d: Sum(rhs),rhsMax =   6.79838407791067E-11  9.57839932227520E-03
 cg2d: Sum(rhs),rhsMax =   6.80191458712898E-11  9.58087083031526E-03
 cg2d: Sum(rhs),rhsMax =   6.80420997323239E-11  9.58340567209931E-03
 cg2d: Sum(rhs),rhsMax =   6.80779876915949E-11  9.58600457954349E-03
 cg2d: Sum(rhs),rhsMax =   6.81221745679750E-11  9.58866806256485E-03
 cg2d: Sum(rhs),rhsMax =   6.81537326574500E-11  9.59139669787445E-03
 cg2d: Sum(rhs),rhsMax =   6.81726342044442E-11  9.59419082583680E-03
 cg2d: Sum(rhs),rhsMax =   6.81940337532438E-11  9.59704988182894E-03
 cg2d: Sum(rhs),rhsMax =   6.82335021817693E-11  9.60006232368336E-03
 cg2d: Sum(rhs),rhsMax =   6.82618128688972E-11  9.60314546884339E-03
 cg2d: Sum(rhs),rhsMax =   6.82730261214459E-11  9.60628967411612E-03
 cg2d: Sum(rhs),rhsMax =   6.82996992296125E-11  9.60949627196272E-03
 cg2d: Sum(rhs),rhsMax =   6.83304246518190E-11  9.61276521744776E-03
 cg2d: Sum(rhs),rhsMax =   6.83416934155190E-11  9.61609588566662E-03
 cg2d: Sum(rhs),rhsMax =   6.83755829733457E-11  9.61948753285706E-03
 cg2d: Sum(rhs),rhsMax =   6.84147738461149E-11  9.62293928140863E-03
 cg2d: Sum(rhs),rhsMax =   6.84479417589756E-11  9.62645019270844E-03
 cg2d: Sum(rhs),rhsMax =   6.84501344494493E-11  9.63001927604980E-03
 cg2d: Sum(rhs),rhsMax =   6.84812762052900E-11  9.63364549153586E-03
 cg2d: Sum(rhs),rhsMax =   6.85059786675879E-11  9.63732777154007E-03
 cg2d: Sum(rhs),rhsMax =   6.85413392709222E-11  9.64106500520286E-03
 cg2d: Sum(rhs),rhsMax =   6.85578260828379E-11  9.64485606111715E-03
 cg2d: Sum(rhs),rhsMax =   6.85661805110982E-11  9.64869978005837E-03
 cg2d: Sum(rhs),rhsMax =   6.85930479082941E-11  9.65259496275013E-03
 cg2d: Sum(rhs),rhsMax =   6.86465884136567E-11  9.65654039919358E-03
 cg2d: Sum(rhs),rhsMax =   6.86718737430425E-11  9.66049710287688E-03
 cg2d: Sum(rhs),rhsMax =   6.86848078412794E-11  9.66450032638183E-03
 cg2d: Sum(rhs),rhsMax =   6.87158108192421E-11  9.66855089996144E-03
 cg2d: Sum(rhs),rhsMax =   6.87407908372961E-11  9.67264725861410E-03
 cg2d: Sum(rhs),rhsMax =   6.87547241362552E-11  9.67678830274695E-03
 cg2d: Sum(rhs),rhsMax =   6.87827017564757E-11  9.68097300272885E-03
 cg2d: Sum(rhs),rhsMax =   6.88104573320913E-11  9.68520029260595E-03
 cg2d: Sum(rhs),rhsMax =   6.88310519691981E-11  9.68946919830440E-03
 cg2d: Sum(rhs),rhsMax =   6.88303858353834E-11  9.69377859851022E-03
 cg2d: Sum(rhs),rhsMax =   6.88739343335243E-11  9.69812746911479E-03
 cg2d: Sum(rhs),rhsMax =   6.88797074932523E-11  9.70251482836659E-03
 cg2d: Sum(rhs),rhsMax =   6.89074908244436E-11  9.70693969617980E-03
 cg2d: Sum(rhs),rhsMax =   6.89153456523428E-11  9.71140107688965E-03
 cg2d: Sum(rhs),rhsMax =   6.89519552565798E-11  9.71589798674534E-03
 cg2d: Sum(rhs),rhsMax =   6.89747980953115E-11  9.72042944526772E-03
 cg2d: Sum(rhs),rhsMax =   6.89626411531918E-11  9.72499450640051E-03
 cg2d: Sum(rhs),rhsMax =   6.89734658276819E-11  9.72959230302032E-03
 cg2d: Sum(rhs),rhsMax =   6.90088541865919E-11  9.73422188796912E-03
 cg2d: Sum(rhs),rhsMax =   6.90173196371546E-11  9.73888234599125E-03
 cg2d: Sum(rhs),rhsMax =   6.90458523688875E-11  9.74357273611635E-03
 cg2d: Sum(rhs),rhsMax =   6.90714430096051E-11  9.74829216388912E-03
 cg2d: Sum(rhs),rhsMax =   6.90878465547939E-11  9.75303973552114E-03
 cg2d: Sum(rhs),rhsMax =   6.91071366798468E-11  9.75781456436909E-03
 cg2d: Sum(rhs),rhsMax =   6.91432466837227E-11  9.76261577214333E-03
 cg2d: Sum(rhs),rhsMax =   6.91595392066091E-11  9.76744248638200E-03
 cg2d: Sum(rhs),rhsMax =   6.91766643967640E-11  9.77229383849005E-03
 cg2d: Sum(rhs),rhsMax =   6.91882939829469E-11  9.77716895998556E-03
 cg2d: Sum(rhs),rhsMax =   6.92051416173456E-11  9.78206698321213E-03
 cg2d: Sum(rhs),rhsMax =   6.92285118120139E-11  9.78714158984274E-03
 cg2d: Sum(rhs),rhsMax =   6.92435553339976E-11  9.79224190948984E-03
 cg2d: Sum(rhs),rhsMax =   6.92753354680775E-11  9.79735893741840E-03
 cg2d: Sum(rhs),rhsMax =   6.92851054306942E-11  9.80249308715078E-03
 cg2d: Sum(rhs),rhsMax =   6.93100299375971E-11  9.80767308271074E-03
 cg2d: Sum(rhs),rhsMax =   6.93270441054494E-11  9.81286672569524E-03
 cg2d: Sum(rhs),rhsMax =   6.93384516470275E-11  9.81807201071435E-03
 cg2d: Sum(rhs),rhsMax =   6.93500534776348E-11  9.82328723960728E-03
 cg2d: Sum(rhs),rhsMax =   6.93696211584438E-11  9.82851088957058E-03
 cg2d: Sum(rhs),rhsMax =   6.93695656472926E-11  9.83373960623066E-03
 cg2d: Sum(rhs),rhsMax =   6.93816115671098E-11  9.83897282818147E-03
 cg2d: Sum(rhs),rhsMax =   6.93916868410582E-11  9.84420883915956E-03
 cg2d: Sum(rhs),rhsMax =   6.94277135782073E-11  9.84944617530310E-03
 cg2d: Sum(rhs),rhsMax =   6.94477253482262E-11  9.85468296397661E-03
 cg2d: Sum(rhs),rhsMax =   6.94710122761677E-11  9.85991761568615E-03
 cg2d: Sum(rhs),rhsMax =   6.94819202173846E-11  9.86514859755175E-03
 cg2d: Sum(rhs),rhsMax =   6.94844459747657E-11  9.87037441455005E-03
 cg2d: Sum(rhs),rhsMax =   6.94907742460060E-11  9.87559362504450E-03
 cg2d: Sum(rhs),rhsMax =   6.95249968707401E-11  9.88080484115574E-03
 cg2d: Sum(rhs),rhsMax =   6.95344060108738E-11  9.88600670865836E-03
 cg2d: Sum(rhs),rhsMax =   6.95420665497437E-11  9.89119784577555E-03
 cg2d: Sum(rhs),rhsMax =   6.95561663821564E-11  9.89637706943970E-03
 cg2d: Sum(rhs),rhsMax =   6.95698498809350E-11  9.90155084055558E-03
 cg2d: Sum(rhs),rhsMax =   6.95744850620628E-11  9.90671034123849E-03
 cg2d: Sum(rhs),rhsMax =   6.95903057401637E-11  9.91185435109473E-03
 cg2d: Sum(rhs),rhsMax =   6.96078195083771E-11  9.91698172674193E-03
 cg2d: Sum(rhs),rhsMax =   6.96195323612869E-11  9.92209138654085E-03
 cg2d: Sum(rhs),rhsMax =   6.96479818262929E-11  9.92718234437228E-03
 cg2d: Sum(rhs),rhsMax =   6.96651902831746E-11  9.93225363153810E-03
 cg2d: Sum(rhs),rhsMax =   6.96902258123799E-11  9.93730430525891E-03
 cg2d: Sum(rhs),rhsMax =   6.96943058819954E-11  9.94233344591640E-03
 cg2d: Sum(rhs),rhsMax =   6.97090996037986E-11  9.94734016851579E-03
 cg2d: Sum(rhs),rhsMax =   6.97290281070906E-11  9.95232361716134E-03
 cg2d: Sum(rhs),rhsMax =   6.97456814524600E-11  9.95728297146946E-03
 cg2d: Sum(rhs),rhsMax =   6.97904234403524E-11  9.96221743806069E-03
 cg2d: Sum(rhs),rhsMax =   6.98079649641414E-11  9.96712624920239E-03
 cg2d: Sum(rhs),rhsMax =   6.98069380078437E-11  9.97200866259362E-03
 cg2d: Sum(rhs),rhsMax =   6.98381352748356E-11  9.97686395710390E-03
 cg2d: Sum(rhs),rhsMax =   6.98567315104981E-11  9.98169143237350E-03
 cg2d: Sum(rhs),rhsMax =   6.98778535035416E-11  9.98650299507702E-03
 cg2d: Sum(rhs),rhsMax =   6.98990310077363E-11  9.99128942754092E-03
 Computing Diagnostic #    26 "THETA   " (list#  1) Parms "SMR     MR      ", Count=     144
 Computing Diagnostic #    27 "SALT    " (list#  1) Parms "SMR     MR      ", Count=     144
 Computing Diagnostic #    30 "UVEL    " (list#  1) Parms "UUR     MR      ", Count=     144
             Vector  Mate for "UVEL    " :  Diagnostic #     31 "VVEL    " exists
 Computing Diagnostic #    32 "WVEL    " (list#  1) Parms "WM      LR      ", Count=     144
 Computing Diagnostic #    31 "VVEL    " (list#  1) Parms "VVR     MR      ", Count=     144
             Vector  Mate for "VVEL    " :  Diagnostic #     30 "UVEL    " exists
 Computing Diagnostic #   197 "BRGfwFlx" (list#  2) Parms "SM      MR      ", Count=     144
 Computing Diagnostic #   198 "BRGhtFlx" (list#  2) Parms "SM      MR      ", Count=     144
 Computing Diagnostic #   199 "BRGmltRt" (list#  2) Parms "SM      MR      ", Count=     144
 Computing Diagnostic #   201 "BRG_TauX" (list#  2) Parms "UU      MR      ", Count=    1728
 Computing Diagnostic #   202 "BRG_TauY" (list#  2) Parms "VV      MR      ", Count=    1728
 Computing Diagnostic #   203 "BRGhFacC" (list#  2) Parms "SM      MR      ", Count=    1728
 cg2d: Sum(rhs),rhsMax =   6.99082458588407E-11  9.99604579722433E-03
 cg2d: Sum(rhs),rhsMax =   6.99288960070987E-11  1.00007713798818E-02
 cg2d: Sum(rhs),rhsMax =   6.99350022337342E-11  1.00054655546184E-02
 cg2d: Sum(rhs),rhsMax =   6.99723057273616E-11  1.00101316281758E-02
 cg2d: Sum(rhs),rhsMax =   6.99911240076290E-11  1.00147648987935E-02
 cg2d: Sum(rhs),rhsMax =   7.00249858098800E-11  1.00193646530428E-02
 cg2d: Sum(rhs),rhsMax =   7.00422775334886E-11  1.00239302129292E-02
 cg2d: Sum(rhs),rhsMax =   7.00651758833715E-11  1.00284608676111E-02
 cg2d: Sum(rhs),rhsMax =   7.00765001582226E-11  1.00329559411279E-02
 cg2d: Sum(rhs),rhsMax =   7.01138591630013E-11  1.00374147639107E-02
 cg2d: Sum(rhs),rhsMax =   7.01448343853883E-11  1.00418366651327E-02
 cg2d: Sum(rhs),rhsMax =   7.01793068103029E-11  1.00462209905549E-02
 cg2d: Sum(rhs),rhsMax =   7.02043700950838E-11  1.00505670958109E-02
 cg2d: Sum(rhs),rhsMax =   7.02241320649222E-11  1.00548743505783E-02
 cg2d: Sum(rhs),rhsMax =   7.02307934030699E-11  1.00591412361604E-02
 cg2d: Sum(rhs),rhsMax =   7.02618796477594E-11  1.00633680729565E-02
 cg2d: Sum(rhs),rhsMax =   7.02802538388170E-11  1.00675543059895E-02
 cg2d: Sum(rhs),rhsMax =   7.02921887363317E-11  1.00716993327568E-02
 cg2d: Sum(rhs),rhsMax =   7.03107572164186E-11  1.00758026248432E-02
 cg2d: Sum(rhs),rhsMax =   7.03331004547891E-11  1.00798635562893E-02
 cg2d: Sum(rhs),rhsMax =   7.03458957751479E-11  1.00838812189580E-02
 cg2d: Sum(rhs),rhsMax =   7.03674896129769E-11  1.00878550319502E-02
 cg2d: Sum(rhs),rhsMax =   7.04003244589302E-11  1.00917845112698E-02
 cg2d: Sum(rhs),rhsMax =   7.04358238401426E-11  1.00956691930878E-02
 cg2d: Sum(rhs),rhsMax =   7.04640512605437E-11  1.00995086647785E-02
 cg2d: Sum(rhs),rhsMax =   7.04946656604477E-11  1.01033025478520E-02
 cg2d: Sum(rhs),rhsMax =   7.05166203207597E-11  1.01070505131930E-02
 cg2d: Sum(rhs),rhsMax =   7.05533687028748E-11  1.01107522750327E-02
 cg2d: Sum(rhs),rhsMax =   7.05731029171375E-11  1.01144076081301E-02
 cg2d: Sum(rhs),rhsMax =   7.05998315364553E-11  1.01180163360765E-02
 cg2d: Sum(rhs),rhsMax =   7.06222302859771E-11  1.01215783539490E-02
 cg2d: Sum(rhs),rhsMax =   7.06533997973935E-11  1.01250935914093E-02
 cg2d: Sum(rhs),rhsMax =   7.06687763862845E-11  1.01285620555810E-02
 cg2d: Sum(rhs),rhsMax =   7.06834590857852E-11  1.01319838139166E-02
 cg2d: Sum(rhs),rhsMax =   7.07230107810375E-11  1.01353590026821E-02
 cg2d: Sum(rhs),rhsMax =   7.07394975929532E-11  1.01386878248889E-02
 cg2d: Sum(rhs),rhsMax =   7.07590930293378E-11  1.01419705595442E-02
 cg2d: Sum(rhs),rhsMax =   7.07956748779992E-11  1.01452075578183E-02
 cg2d: Sum(rhs),rhsMax =   7.08116343339782E-11  1.01483992444988E-02
 cg2d: Sum(rhs),rhsMax =   7.08478831157322E-11  1.01515461245812E-02
 cg2d: Sum(rhs),rhsMax =   7.08745284683232E-11  1.01546488008674E-02
 cg2d: Sum(rhs),rhsMax =   7.09064196247056E-11  1.01577079398620E-02
 cg2d: Sum(rhs),rhsMax =   7.09426961620352E-11  1.01607242848563E-02
 cg2d: Sum(rhs),rhsMax =   7.09816372346239E-11  1.01636986654107E-02
 cg2d: Sum(rhs),rhsMax =   7.10227987532619E-11  1.01666319886342E-02
 cg2d: Sum(rhs),rhsMax =   7.10489445054918E-11  1.01695252520226E-02
 cg2d: Sum(rhs),rhsMax =   7.10776715262540E-11  1.01723795286559E-02
 cg2d: Sum(rhs),rhsMax =   7.11228576033562E-11  1.01751959791428E-02
 cg2d: Sum(rhs),rhsMax =   7.11574688061489E-11  1.01779758418353E-02
 cg2d: Sum(rhs),rhsMax =   7.11957159893473E-11  1.01807204413547E-02
 cg2d: Sum(rhs),rhsMax =   7.12266357005831E-11  1.01834311777759E-02
 cg2d: Sum(rhs),rhsMax =   7.12672698632844E-11  1.01861095316151E-02
 cg2d: Sum(rhs),rhsMax =   7.12997438867546E-11  1.01887570584680E-02
 cg2d: Sum(rhs),rhsMax =   7.13360204240843E-11  1.01913753895212E-02
 cg2d: Sum(rhs),rhsMax =   7.13684666919789E-11  1.01939662241482E-02
 cg2d: Sum(rhs),rhsMax =   7.14172332383356E-11  1.01965313353185E-02
 cg2d: Sum(rhs),rhsMax =   7.14351633401833E-11  1.01990725114981E-02
 cg2d: Sum(rhs),rhsMax =   7.14821535297006E-11  1.02015916187002E-02
 cg2d: Sum(rhs),rhsMax =   7.15131009965120E-11  1.02040906063697E-02
 cg2d: Sum(rhs),rhsMax =   7.15403847273421E-11  1.02065714219784E-02
 cg2d: Sum(rhs),rhsMax =   7.15590642297315E-11  1.02090361048353E-02
 cg2d: Sum(rhs),rhsMax =   7.15936199213729E-11  1.02114867343286E-02
 cg2d: Sum(rhs),rhsMax =   7.16259274113895E-11  1.02139254353838E-02
 cg2d: Sum(rhs),rhsMax =   7.16627590602315E-11  1.02163543725249E-02
 cg2d: Sum(rhs),rhsMax =   7.16985915083512E-11  1.02187757490877E-02
 cg2d: Sum(rhs),rhsMax =   7.17436110519998E-11  1.02211917900145E-02
 cg2d: Sum(rhs),rhsMax =   7.17815251682907E-11  1.02236047579065E-02
 cg2d: Sum(rhs),rhsMax =   7.18057002746519E-11  1.02260169334311E-02
 cg2d: Sum(rhs),rhsMax =   7.18269610455735E-11  1.02284305981005E-02
 cg2d: Sum(rhs),rhsMax =   7.18754500361740E-11  1.02308480747138E-02
 cg2d: Sum(rhs),rhsMax =   7.19015125216771E-11  1.02332716266638E-02
 cg2d: Sum(rhs),rhsMax =   7.19450055086668E-11  1.02357036095984E-02
 cg2d: Sum(rhs),rhsMax =   7.19728165954336E-11  1.02381463299562E-02
 cg2d: Sum(rhs),rhsMax =   7.20015436161958E-11  1.02406020543461E-02
 cg2d: Sum(rhs),rhsMax =   7.20232207207516E-11  1.02430730499871E-02
 cg2d: Sum(rhs),rhsMax =   7.20462300929370E-11  1.02455615683571E-02
 cg2d: Sum(rhs),rhsMax =   7.20594417469300E-11  1.02480697597692E-02
 cg2d: Sum(rhs),rhsMax =   7.21084858490428E-11  1.02506000960069E-02
 cg2d: Sum(rhs),rhsMax =   7.21397663827616E-11  1.02531545122760E-02
 cg2d: Sum(rhs),rhsMax =   7.21686876925531E-11  1.02557350399042E-02
 cg2d: Sum(rhs),rhsMax =   7.21959436678077E-11  1.02583435820395E-02
 cg2d: Sum(rhs),rhsMax =   7.22341353398548E-11  1.02609819473505E-02
 cg2d: Sum(rhs),rhsMax =   7.22761295257612E-11  1.02636520472575E-02
 cg2d: Sum(rhs),rhsMax =   7.23102688837685E-11  1.02663557138649E-02
 cg2d: Sum(rhs),rhsMax =   7.23437698635365E-11  1.02690947308762E-02
 cg2d: Sum(rhs),rhsMax =   7.23894555409998E-11  1.02718707204569E-02
 cg2d: Sum(rhs),rhsMax =   7.24206250524162E-11  1.02746851625275E-02
 cg2d: Sum(rhs),rhsMax =   7.24568183230190E-11  1.02775395647865E-02
 cg2d: Sum(rhs),rhsMax =   7.24852955436006E-11  1.02804353763393E-02
 cg2d: Sum(rhs),rhsMax =   7.25084159380884E-11  1.02833739560417E-02
 cg2d: Sum(rhs),rhsMax =   7.25324245109960E-11  1.02863565710548E-02
 cg2d: Sum(rhs),rhsMax =   7.25696724934721E-11  1.02893843848092E-02
 cg2d: Sum(rhs),rhsMax =   7.26159965491746E-11  1.02924585749513E-02
 cg2d: Sum(rhs),rhsMax =   7.26406157447457E-11  1.02955800192710E-02
 cg2d: Sum(rhs),rhsMax =   7.26591009581057E-11  1.02987495392088E-02
 cg2d: Sum(rhs),rhsMax =   7.26798898842418E-11  1.03019678922364E-02
 cg2d: Sum(rhs),rhsMax =   7.27206628248211E-11  1.03052357511839E-02
 cg2d: Sum(rhs),rhsMax =   7.27446158865774E-11  1.03085536804169E-02
 cg2d: Sum(rhs),rhsMax =   7.27759519314475E-11  1.03119221222711E-02
 cg2d: Sum(rhs),rhsMax =   7.27994886595695E-11  1.03153414068990E-02
 cg2d: Sum(rhs),rhsMax =   7.28306581709859E-11  1.03188117602326E-02
 cg2d: Sum(rhs),rhsMax =   7.28528626314784E-11  1.03223333216652E-02
 cg2d: Sum(rhs),rhsMax =   7.28776761160788E-11  1.03259061330753E-02
 cg2d: Sum(rhs),rhsMax =   7.29121485409934E-11  1.03295300687138E-02
 cg2d: Sum(rhs),rhsMax =   7.29222515705175E-11  1.03332048973714E-02
 cg2d: Sum(rhs),rhsMax =   7.29490912121378E-11  1.03369303533794E-02
 cg2d: Sum(rhs),rhsMax =   7.29672156030148E-11  1.03407060305400E-02
 cg2d: Sum(rhs),rhsMax =   7.29996341153338E-11  1.03445314081308E-02
 cg2d: Sum(rhs),rhsMax =   7.30215055089189E-11  1.03484058824355E-02
 cg2d: Sum(rhs),rhsMax =   7.30616400712591E-11  1.03523287584540E-02
 cg2d: Sum(rhs),rhsMax =   7.30798754844386E-11  1.03562992476181E-02
 cg2d: Sum(rhs),rhsMax =   7.31175120449734E-11  1.03603164764521E-02
 cg2d: Sum(rhs),rhsMax =   7.31563420952597E-11  1.03644712164284E-02
 cg2d: Sum(rhs),rhsMax =   7.31768812212152E-11  1.03687302275503E-02
 cg2d: Sum(rhs),rhsMax =   7.32015559279375E-11  1.03730324110134E-02
 cg2d: Sum(rhs),rhsMax =   7.32163496497407E-11  1.03773747284187E-02
 cg2d: Sum(rhs),rhsMax =   7.32350569077056E-11  1.03817562143803E-02
 cg2d: Sum(rhs),rhsMax =   7.32566229899589E-11  1.03861750209082E-02
 cg2d: Sum(rhs),rhsMax =   7.32736371578113E-11  1.03906293068311E-02
 cg2d: Sum(rhs),rhsMax =   7.32961469296356E-11  1.03950311332382E-02
 cg2d: Sum(rhs),rhsMax =   7.33195726354552E-11  1.03994625767001E-02
 cg2d: Sum(rhs),rhsMax =   7.33516580808669E-11  1.04039245761326E-02
 cg2d: Sum(rhs),rhsMax =   7.33840488376103E-11  1.04084148197333E-02
 cg2d: Sum(rhs),rhsMax =   7.33937355335001E-11  1.04129316901630E-02
 cg2d: Sum(rhs),rhsMax =   7.34103056121427E-11  1.04174733697246E-02
 cg2d: Sum(rhs),rhsMax =   7.34280691805367E-11  1.04220379853054E-02
 cg2d: Sum(rhs),rhsMax =   7.34497185295169E-11  1.04266236878371E-02
 cg2d: Sum(rhs),rhsMax =   7.34724225903705E-11  1.04312287190788E-02
 cg2d: Sum(rhs),rhsMax =   7.35016214559181E-11  1.04358512012368E-02
 cg2d: Sum(rhs),rhsMax =   7.35195238021902E-11  1.04404893203297E-02
 cg2d: Sum(rhs),rhsMax =   7.35398963946921E-11  1.04451413145544E-02
 cg2d: Sum(rhs),rhsMax =   7.35522476258410E-11  1.04498054325822E-02
 cg2d: Sum(rhs),rhsMax =   7.35700667053862E-11  1.04544800009336E-02
 cg2d: Sum(rhs),rhsMax =   7.36066207984720E-11  1.04591633283607E-02
 cg2d: Sum(rhs),rhsMax =   7.36260497014030E-11  1.04638537698537E-02
 cg2d: Sum(rhs),rhsMax =   7.36453398264558E-11  1.04685497251815E-02
 cg2d: Sum(rhs),rhsMax =   7.36734007134032E-11  1.04732496566938E-02
 cg2d: Sum(rhs),rhsMax =   7.37115368742991E-11  1.04779520547796E-02
 cg2d: Sum(rhs),rhsMax =   7.37233607495114E-11  1.04826554772941E-02
 cg2d: Sum(rhs),rhsMax =   7.37341854240015E-11  1.04873585356875E-02
 cg2d: Sum(rhs),rhsMax =   7.37620520219195E-11  1.04920598994403E-02
 cg2d: Sum(rhs),rhsMax =   7.37751804091857E-11  1.04967582990086E-02
 cg2d: Sum(rhs),rhsMax =   7.37968852693172E-11  1.05014483049723E-02
 cg2d: Sum(rhs),rhsMax =   7.38136218814134E-11  1.05061330444556E-02
 Computing Diagnostic #    26 "THETA   " (list#  1) Parms "SMR     MR      ", Count=     144
 Computing Diagnostic #    27 "SALT    " (list#  1) Parms "SMR     MR      ", Count=     144
 Computing Diagnostic #    30 "UVEL    " (list#  1) Parms "UUR     MR      ", Count=     144
             Vector  Mate for "UVEL    " :  Diagnostic #     31 "VVEL    " exists
 Computing Diagnostic #    32 "WVEL    " (list#  1) Parms "WM      LR      ", Count=     144
 Computing Diagnostic #    31 "VVEL    " (list#  1) Parms "VVR     MR      ", Count=     144
             Vector  Mate for "VVEL    " :  Diagnostic #     30 "UVEL    " exists
 Computing Diagnostic #   197 "BRGfwFlx" (list#  2) Parms "SM      MR      ", Count=     144
 Computing Diagnostic #   198 "BRGhtFlx" (list#  2) Parms "SM      MR      ", Count=     144
 Computing Diagnostic #   199 "BRGmltRt" (list#  2) Parms "SM      MR      ", Count=     144
 Computing Diagnostic #   201 "BRG_TauX" (list#  2) Parms "UU      MR      ", Count=    1728
 Computing Diagnostic #   202 "BRG_TauY" (list#  2) Parms "VV      MR      ", Count=    1728
 Computing Diagnostic #   203 "BRGhFacC" (list#  2) Parms "SM      MR      ", Count=    1728
 cg2d: Sum(rhs),rhsMax =   7.38299421598754E-11  1.05108115019531E-02
 cg2d: Sum(rhs),rhsMax =   7.38451522153127E-11  1.05154826795738E-02
 cg2d: Sum(rhs),rhsMax =   7.38610561601405E-11  1.05201456740694E-02
 cg2d: Sum(rhs),rhsMax =   7.38817063083985E-11  1.05247996247613E-02
 cg2d: Sum(rhs),rhsMax =   7.39070193933600E-11  1.05294437591854E-02
 cg2d: Sum(rhs),rhsMax =   7.39409644623379E-11  1.05340773660817E-02
 cg2d: Sum(rhs),rhsMax =   7.39524830262184E-11  1.05386997797312E-02
 cg2d: Sum(rhs),rhsMax =   7.39665828586311E-11  1.05433104012446E-02
 cg2d: Sum(rhs),rhsMax =   7.39963645912667E-11  1.05479086965345E-02
 cg2d: Sum(rhs),rhsMax =   7.40150163380804E-11  1.05524941886454E-02
 cg2d: Sum(rhs),rhsMax =   7.40281169697710E-11  1.05570664583283E-02
 cg2d: Sum(rhs),rhsMax =   7.40421612910325E-11  1.05616251215211E-02
 cg2d: Sum(rhs),rhsMax =   7.40603689486363E-11  1.05661698449144E-02
 cg2d: Sum(rhs),rhsMax =   7.40963401746342E-11  1.05707003544974E-02
 cg2d: Sum(rhs),rhsMax =   7.41222638822592E-11  1.05752164311453E-02
 cg2d: Sum(rhs),rhsMax =   7.41532113490706E-11  1.05797178979342E-02
 cg2d: Sum(rhs),rhsMax =   7.41767480771927E-11  1.05842046121286E-02
 cg2d: Sum(rhs),rhsMax =   7.41983419150216E-11  1.05886764649047E-02
 cg2d: Sum(rhs),rhsMax =   7.42253480900956E-11  1.05931333916529E-02
 cg2d: Sum(rhs),rhsMax =   7.42370609430054E-11  1.05975753446179E-02
 cg2d: Sum(rhs),rhsMax =   7.42735872805156E-11  1.06020023063262E-02
 cg2d: Sum(rhs),rhsMax =   7.42839678657958E-11  1.06064142909820E-02
 cg2d: Sum(rhs),rhsMax =   7.43052563922930E-11  1.06108113343627E-02
 cg2d: Sum(rhs),rhsMax =   7.43206884923353E-11  1.06151934849511E-02
 cg2d: Sum(rhs),rhsMax =   7.43288486315663E-11  1.06195608108809E-02
 cg2d: Sum(rhs),rhsMax =   7.43512473810881E-11  1.06239133916044E-02
 cg2d: Sum(rhs),rhsMax =   7.43798356239722E-11  1.06282513284295E-02
 cg2d: Sum(rhs),rhsMax =   7.43990702378738E-11  1.06325747243613E-02
 cg2d: Sum(rhs),rhsMax =   7.44292405485680E-11  1.06368836817365E-02
 cg2d: Sum(rhs),rhsMax =   7.44473649394450E-11  1.06411783154596E-02
 cg2d: Sum(rhs),rhsMax =   7.44704575783572E-11  1.06454587447860E-02
 cg2d: Sum(rhs),rhsMax =   7.44886929915367E-11  1.06497250792732E-02
 cg2d: Sum(rhs),rhsMax =   7.45182526795674E-11  1.06539774568149E-02
 cg2d: Sum(rhs),rhsMax =   7.45495054577106E-11  1.06582159710930E-02
 cg2d: Sum(rhs),rhsMax =   7.45713490957201E-11  1.06624407141206E-02
 cg2d: Sum(rhs),rhsMax =   7.45949135794177E-11  1.06666517015715E-02
 cg2d: Sum(rhs),rhsMax =   7.46365469428412E-11  1.06708489277354E-02
 cg2d: Sum(rhs),rhsMax =   7.46428474585059E-11  1.06750324850419E-02
 cg2d: Sum(rhs),rhsMax =   7.46599171375095E-11  1.06792024373804E-02
 cg2d: Sum(rhs),rhsMax =   7.46954997854488E-11  1.06833588914950E-02
 cg2d: Sum(rhs),rhsMax =   7.47031880798943E-11  1.06875018396832E-02
 cg2d: Sum(rhs),rhsMax =   7.47290285207924E-11  1.06916313723483E-02
 cg2d: Sum(rhs),rhsMax =   7.47588657645792E-11  1.06957475637853E-02
 cg2d: Sum(rhs),rhsMax =   7.47797657130178E-11  1.06998504424953E-02
 cg2d: Sum(rhs),rhsMax =   7.48000550387928E-11  1.07039400328671E-02
 cg2d: Sum(rhs),rhsMax =   7.48145712048398E-11  1.07080163662474E-02
 cg2d: Sum(rhs),rhsMax =   7.48454631605000E-11  1.07120794666432E-02
 cg2d: Sum(rhs),rhsMax =   7.48599793265470E-11  1.07161293636014E-02
 cg2d: Sum(rhs),rhsMax =   7.48725248467252E-11  1.07201660318734E-02
 cg2d: Sum(rhs),rhsMax =   7.48881234802212E-11  1.07241895000793E-02
 cg2d: Sum(rhs),rhsMax =   7.49091899621135E-11  1.07281997993386E-02
 cg2d: Sum(rhs),rhsMax =   7.49240669506435E-11  1.07321969584157E-02
 cg2d: Sum(rhs),rhsMax =   7.49306727776400E-11  1.07361810088449E-02
 cg2d: Sum(rhs),rhsMax =   7.49617035111783E-11  1.07401519789978E-02
 cg2d: Sum(rhs),rhsMax =   7.49882933526180E-11  1.07442342065170E-02
 cg2d: Sum(rhs),rhsMax =   7.50111361913497E-11  1.07483959956441E-02
 cg2d: Sum(rhs),rhsMax =   7.50429995921564E-11  1.07525439200888E-02
 cg2d: Sum(rhs),rhsMax =   7.50611239830334E-11  1.07566775150853E-02
 cg2d: Sum(rhs),rhsMax =   7.50919326719668E-11  1.07607966432496E-02
 cg2d: Sum(rhs),rhsMax =   7.51112505525953E-11  1.07649006860774E-02
 cg2d: Sum(rhs),rhsMax =   7.51444184654559E-11  1.07689891702720E-02
 cg2d: Sum(rhs),rhsMax =   7.51713413738031E-11  1.07730619977560E-02
 cg2d: Sum(rhs),rhsMax =   7.52036488638197E-11  1.07771186324275E-02
 cg2d: Sum(rhs),rhsMax =   7.52164719397541E-11  1.07811588679868E-02
 cg2d: Sum(rhs),rhsMax =   7.52224671440871E-11  1.07851825470334E-02
 cg2d: Sum(rhs),rhsMax =   7.52552742344648E-11  1.07891894846663E-02
 cg2d: Sum(rhs),rhsMax =   7.52692075334238E-11  1.07931795249061E-02
 cg2d: Sum(rhs),rhsMax =   7.52942430626291E-11  1.07971526695431E-02
 cg2d: Sum(rhs),rhsMax =   7.53179463242049E-11  1.08011088304291E-02
 cg2d: Sum(rhs),rhsMax =   7.53443696321909E-11  1.08050481434591E-02
 cg2d: Sum(rhs),rhsMax =   7.53682394272204E-11  1.08089707977641E-02
 cg2d: Sum(rhs),rhsMax =   7.54039608530377E-11  1.08128769955552E-02
 cg2d: Sum(rhs),rhsMax =   7.54229456667588E-11  1.08167670097913E-02
 cg2d: Sum(rhs),rhsMax =   7.54502849087402E-11  1.08206411900485E-02
 cg2d: Sum(rhs),rhsMax =   7.54724338580814E-11  1.08244999593236E-02
 cg2d: Sum(rhs),rhsMax =   7.54919737833148E-11  1.08283438013564E-02
 cg2d: Sum(rhs),rhsMax =   7.55149553999246E-11  1.08321732667053E-02
 cg2d: Sum(rhs),rhsMax =   7.55443763100772E-11  1.08359893305113E-02
 cg2d: Sum(rhs),rhsMax =   7.55681350828041E-11  1.08397928069372E-02
 cg2d: Sum(rhs),rhsMax =   7.55791818018992E-11  1.08435844271325E-02
 cg2d: Sum(rhs),rhsMax =   7.56070206442416E-11  1.08473649741348E-02
 cg2d: Sum(rhs),rhsMax =   7.56245621680307E-11  1.08511352823475E-02
 cg2d: Sum(rhs),rhsMax =   7.56584794814330E-11  1.08548962447998E-02
 cg2d: Sum(rhs),rhsMax =   7.56725238026945E-11  1.08586488896375E-02
 cg2d: Sum(rhs),rhsMax =   7.56886775477028E-11  1.08623940798603E-02
 cg2d: Sum(rhs),rhsMax =   7.56979479099584E-11  1.08661330837255E-02
 cg2d: Sum(rhs),rhsMax =   7.57207907486901E-11  1.08698668795492E-02
 cg2d: Sum(rhs),rhsMax =   7.57484630575789E-11  1.08738895943803E-02
 cg2d: Sum(rhs),rhsMax =   7.57585938426786E-11  1.08783268702264E-02
 cg2d: Sum(rhs),rhsMax =   7.57843787724255E-11  1.08827731227404E-02
 cg2d: Sum(rhs),rhsMax =   7.58093587904796E-11  1.08872099561642E-02
 cg2d: Sum(rhs),rhsMax =   7.58284546265031E-11  1.08916443518360E-02
 cg2d: Sum(rhs),rhsMax =   7.58518525767471E-11  1.08960774229810E-02
 cg2d: Sum(rhs),rhsMax =   7.58638984965643E-11  1.09005094276278E-02
 cg2d: Sum(rhs),rhsMax =   7.58851870230615E-11  1.09049406674946E-02
 cg2d: Sum(rhs),rhsMax =   7.59211304934837E-11  1.09093714707394E-02
 cg2d: Sum(rhs),rhsMax =   7.59407259298683E-11  1.09138021742193E-02
 cg2d: Sum(rhs),rhsMax =   7.59627083457559E-11  1.09182331232366E-02
 cg2d: Sum(rhs),rhsMax =   7.59959872809191E-11  1.09226646519687E-02
 cg2d: Sum(rhs),rhsMax =   7.60009277733786E-11  1.09270971092001E-02
 cg2d: Sum(rhs),rhsMax =   7.60303486835312E-11  1.09315308407991E-02
 cg2d: Sum(rhs),rhsMax =   7.60343454864199E-11  1.09359661706388E-02
 cg2d: Sum(rhs),rhsMax =   7.60598806159862E-11  1.09404033962976E-02
 cg2d: Sum(rhs),rhsMax =   7.60824458989617E-11  1.09448427995317E-02
 cg2d: Sum(rhs),rhsMax =   7.60865259685772E-11  1.09492846699041E-02
 cg2d: Sum(rhs),rhsMax =   7.61080087841037E-11  1.09537292383912E-02
 cg2d: Sum(rhs),rhsMax =   7.61398444293349E-11  1.09581767093989E-02
 cg2d: Sum(rhs),rhsMax =   7.61450624775506E-11  1.09626272558815E-02
 cg2d: Sum(rhs),rhsMax =   7.61638252466668E-11  1.09670810266242E-02
 cg2d: Sum(rhs),rhsMax =   7.61968543816494E-11  1.09715381368549E-02
 cg2d: Sum(rhs),rhsMax =   7.62092611239495E-11  1.09759986389713E-02
 cg2d: Sum(rhs),rhsMax =   7.62330754078278E-11  1.09804625597202E-02
 cg2d: Sum(rhs),rhsMax =   7.62558627354082E-11  1.09849298843077E-02
 cg2d: Sum(rhs),rhsMax =   7.62807594867354E-11  1.09894005405933E-02
 cg2d: Sum(rhs),rhsMax =   7.63070995279946E-11  1.09938743922616E-02
 cg2d: Sum(rhs),rhsMax =   7.63199781150803E-11  1.09983513147473E-02
 cg2d: Sum(rhs),rhsMax =   7.63573926310102E-11  1.10028310617308E-02
 cg2d: Sum(rhs),rhsMax =   7.63666629932658E-11  1.10073133575120E-02
 cg2d: Sum(rhs),rhsMax =   7.63904217659928E-11  1.10117978918021E-02
 cg2d: Sum(rhs),rhsMax =   7.64108776252215E-11  1.10162842988621E-02
 cg2d: Sum(rhs),rhsMax =   7.64296126387620E-11  1.10207721606537E-02
 cg2d: Sum(rhs),rhsMax =   7.64500407424151E-11  1.10252610168376E-02
 cg2d: Sum(rhs),rhsMax =   7.64662777541503E-11  1.10297503303951E-02
 cg2d: Sum(rhs),rhsMax =   7.64789342966310E-11  1.10342395479536E-02
 cg2d: Sum(rhs),rhsMax =   7.65068286501247E-11  1.10387280697057E-02
 cg2d: Sum(rhs),rhsMax =   7.65298657778857E-11  1.10432152446924E-02
 cg2d: Sum(rhs),rhsMax =   7.65424390536396E-11  1.10477003647827E-02
 cg2d: Sum(rhs),rhsMax =   7.65544017067299E-11  1.10521826666522E-02
 cg2d: Sum(rhs),rhsMax =   7.65759677889832E-11  1.10566613952300E-02
 cg2d: Sum(rhs),rhsMax =   7.65926488899282E-11  1.10611358226906E-02
 cg2d: Sum(rhs),rhsMax =   7.66162966403527E-11  1.10656051278571E-02
 cg2d: Sum(rhs),rhsMax =   7.66322838519073E-11  1.10700685114031E-02
 cg2d: Sum(rhs),rhsMax =   7.66586238931666E-11  1.10745250101287E-02
 cg2d: Sum(rhs),rhsMax =   7.66721408584914E-11  1.10789737317089E-02
 cg2d: Sum(rhs),rhsMax =   7.66909591387588E-11  1.10834137628128E-02
 cg2d: Sum(rhs),rhsMax =   7.67086394404259E-11  1.10878441859498E-02
 cg2d: Sum(rhs),rhsMax =   7.67195473816429E-11  1.10922640467450E-02
 cg2d: Sum(rhs),rhsMax =   7.67363950160416E-11  1.10966741279638E-02
 cg2d: Sum(rhs),rhsMax =   7.67519381383863E-11  1.11010718383774E-02
 cg2d: Sum(rhs),rhsMax =   7.67792496247921E-11  1.11054561517112E-02
 cg2d: Sum(rhs),rhsMax =   7.67944041690782E-11  1.11098261694668E-02
 cg2d: Sum(rhs),rhsMax =   7.68025087971580E-11  1.11141809866942E-02
 cg2d: Sum(rhs),rhsMax =   7.68294039499295E-11  1.11185197094693E-02
 cg2d: Sum(rhs),rhsMax =   7.68431429598593E-11  1.11228414751519E-02
 Computing Diagnostic #    26 "THETA   " (list#  1) Parms "SMR     MR      ", Count=     144
 Computing Diagnostic #    27 "SALT    " (list#  1) Parms "SMR     MR      ", Count=     144
 Computing Diagnostic #    30 "UVEL    " (list#  1) Parms "UUR     MR      ", Count=     144
             Vector  Mate for "UVEL    " :  Diagnostic #     31 "VVEL    " exists
 Computing Diagnostic #    32 "WVEL    " (list#  1) Parms "WM      LR      ", Count=     144
 Computing Diagnostic #    31 "VVEL    " (list#  1) Parms "VVR     MR      ", Count=     144
             Vector  Mate for "VVEL    " :  Diagnostic #     30 "UVEL    " exists
 Computing Diagnostic #   197 "BRGfwFlx" (list#  2) Parms "SM      MR      ", Count=     144
 Computing Diagnostic #   198 "BRGhtFlx" (list#  2) Parms "SM      MR      ", Count=     144
 Computing Diagnostic #   199 "BRGmltRt" (list#  2) Parms "SM      MR      ", Count=     144
 Computing Diagnostic #   201 "BRG_TauX" (list#  2) Parms "UU      MR      ", Count=    1728
 Computing Diagnostic #   202 "BRG_TauY" (list#  2) Parms "VV      MR      ", Count=    1728
 Computing Diagnostic #   203 "BRGhFacC" (list#  2) Parms "SM      MR      ", Count=    1728
 cg2d: Sum(rhs),rhsMax =   7.68578534149356E-11  1.11271454425485E-02
 cg2d: Sum(rhs),rhsMax =   7.68713426246848E-11  1.11314308066536E-02
 cg2d: Sum(rhs),rhsMax =   7.69123098542934E-11  1.11356967948526E-02
 cg2d: Sum(rhs),rhsMax =   7.69351249374495E-11  1.11399426809812E-02
 cg2d: Sum(rhs),rhsMax =   7.69438956993440E-11  1.11441677799710E-02
 cg2d: Sum(rhs),rhsMax =   7.69741770323407E-11  1.11483714540032E-02
 cg2d: Sum(rhs),rhsMax =   7.69962149593795E-11  1.11525531145088E-02
 cg2d: Sum(rhs),rhsMax =   7.70235819569365E-11  1.11567122341422E-02
 cg2d: Sum(rhs),rhsMax =   7.70333519195532E-11  1.11608483836162E-02
 cg2d: Sum(rhs),rhsMax =   7.70498109758933E-11  1.11649611009817E-02
 cg2d: Sum(rhs),rhsMax =   7.70783714632017E-11  1.11690500228460E-02
 cg2d: Sum(rhs),rhsMax =   7.71034902591339E-11  1.11730251646149E-02
 cg2d: Sum(rhs),rhsMax =   7.71345487482478E-11  1.11769529058941E-02
 cg2d: Sum(rhs),rhsMax =   7.71481767358750E-11  1.11808587837344E-02
 cg2d: Sum(rhs),rhsMax =   7.71924191234064E-11  1.11847429280102E-02
 cg2d: Sum(rhs),rhsMax =   7.72199526544171E-11  1.11886053447166E-02
 cg2d: Sum(rhs),rhsMax =   7.72442110275051E-11  1.11924464754575E-02
 cg2d: Sum(rhs),rhsMax =   7.72771291401853E-11  1.11962668946982E-02
 cg2d: Sum(rhs),rhsMax =   7.73034969370201E-11  1.12000672224906E-02
 cg2d: Sum(rhs),rhsMax =   7.73340280701973E-11  1.12038481235735E-02
 cg2d: Sum(rhs),rhsMax =   7.73546227073041E-11  1.12076103119983E-02
 cg2d: Sum(rhs),rhsMax =   7.73724972980006E-11  1.12113545519954E-02
 cg2d: Sum(rhs),rhsMax =   7.74026676086947E-11  1.12150816564272E-02
 cg2d: Sum(rhs),rhsMax =   7.74318387186668E-11  1.12187924769572E-02
 cg2d: Sum(rhs),rhsMax =   7.74603159392484E-11  1.12224879107653E-02
 cg2d: Sum(rhs),rhsMax =   7.74788011526084E-11  1.12261688919565E-02
 cg2d: Sum(rhs),rhsMax =   7.74988961893541E-11  1.12298363882876E-02
 cg2d: Sum(rhs),rhsMax =   7.75326747248783E-11  1.12334913894302E-02
 cg2d: Sum(rhs),rhsMax =   7.75495501148527E-11  1.12371349441161E-02
 cg2d: Sum(rhs),rhsMax =   7.75841058064941E-11  1.12407680797726E-02
 cg2d: Sum(rhs),rhsMax =   7.76116670930804E-11  1.12443918607907E-02
 cg2d: Sum(rhs),rhsMax =   7.76470832075660E-11  1.12480109821935E-02
 cg2d: Sum(rhs),rhsMax =   7.76861075468815E-11  1.12516229189119E-02
 cg2d: Sum(rhs),rhsMax =   7.77081732294960E-11  1.12552286769639E-02
 cg2d: Sum(rhs),rhsMax =   7.77453934563965E-11  1.12588293344354E-02
 cg2d: Sum(rhs),rhsMax =   7.77527764395103E-11  1.12624259512164E-02
 cg2d: Sum(rhs),rhsMax =   7.77855002631611E-11  1.12660195760142E-02
 cg2d: Sum(rhs),rhsMax =   7.78094255693418E-11  1.12696112477557E-02
 cg2d: Sum(rhs),rhsMax =   7.78395403688847E-11  1.12732019906703E-02
 cg2d: Sum(rhs),rhsMax =   7.78783426635954E-11  1.12767928049899E-02
 cg2d: Sum(rhs),rhsMax =   7.78995479233657E-11  1.12803846706057E-02
 cg2d: Sum(rhs),rhsMax =   7.79334374811924E-11  1.12839785385813E-02
 cg2d: Sum(rhs),rhsMax =   7.79694087071903E-11  1.12875753291408E-02
 cg2d: Sum(rhs),rhsMax =   7.79935560579759E-11  1.12911759238925E-02
 cg2d: Sum(rhs),rhsMax =   7.80075171125105E-11  1.12947811412462E-02
 cg2d: Sum(rhs),rhsMax =   7.80435993608108E-11  1.12983918070090E-02
 cg2d: Sum(rhs),rhsMax =   7.80671638445085E-11  1.13020086899593E-02
 cg2d: Sum(rhs),rhsMax =   7.80920328402601E-11  1.13056324751419E-02
 cg2d: Sum(rhs),rhsMax =   7.81107956093763E-11  1.13092638333551E-02
 cg2d: Sum(rhs),rhsMax =   7.81258391313600E-11  1.13129032574651E-02
 cg2d: Sum(rhs),rhsMax =   7.81609221789381E-11  1.13165513623056E-02
 cg2d: Sum(rhs),rhsMax =   7.81750775225021E-11  1.13202086499706E-02
 cg2d: Sum(rhs),rhsMax =   7.82056086556793E-11  1.13238754266622E-02
 cg2d: Sum(rhs),rhsMax =   7.82437448165751E-11  1.13275520118903E-02
 cg2d: Sum(rhs),rhsMax =   7.82727493930935E-11  1.13312386569896E-02
 cg2d: Sum(rhs),rhsMax =   7.82877929150771E-11  1.13349355887173E-02
 cg2d: Sum(rhs),rhsMax =   7.82818809774710E-11  1.13386429795362E-02
 cg2d: Sum(rhs),rhsMax =   7.82917619623902E-11  1.13423608407255E-02
 cg2d: Sum(rhs),rhsMax =   7.83155484906928E-11  1.13460892145858E-02
 cg2d: Sum(rhs),rhsMax =   7.83454412456308E-11  1.13498280554622E-02
 cg2d: Sum(rhs),rhsMax =   7.83804687820577E-11  1.13535772153404E-02
 cg2d: Sum(rhs),rhsMax =   7.84011744414670E-11  1.13573364754188E-02
 cg2d: Sum(rhs),rhsMax =   7.84238229911693E-11  1.13611055594451E-02
 cg2d: Sum(rhs),rhsMax =   7.84602660619527E-11  1.13648841212056E-02
 cg2d: Sum(rhs),rhsMax =   7.84781684082247E-11  1.13686717142725E-02
 cg2d: Sum(rhs),rhsMax =   7.85126963442906E-11  1.13724678456195E-02
 cg2d: Sum(rhs),rhsMax =   7.85459475238781E-11  1.13762719230320E-02
 cg2d: Sum(rhs),rhsMax =   7.85615739129497E-11  1.13800833990471E-02
 cg2d: Sum(rhs),rhsMax =   7.85898568445020E-11  1.13839016752480E-02
 cg2d: Sum(rhs),rhsMax =   7.86067322344763E-11  1.13877260398524E-02
 cg2d: Sum(rhs),rhsMax =   7.86299358956910E-11  1.13915556973259E-02
 cg2d: Sum(rhs),rhsMax =   7.86481435532949E-11  1.13953898208869E-02
 cg2d: Sum(rhs),rhsMax =   7.86726239709878E-11  1.13992275361410E-02
 cg2d: Sum(rhs),rhsMax =   7.86885279158156E-11  1.14030679939144E-02
 cg2d: Sum(rhs),rhsMax =   7.86975484778907E-11  1.14069102179175E-02
 cg2d: Sum(rhs),rhsMax =   7.87307163907514E-11  1.14107532043696E-02
 cg2d: Sum(rhs),rhsMax =   7.87452048012227E-11  1.14145959094037E-02
 cg2d: Sum(rhs),rhsMax =   7.87646892153049E-11  1.14184372370970E-02
 cg2d: Sum(rhs),rhsMax =   7.87794274259568E-11  1.14222365278000E-02
 cg2d: Sum(rhs),rhsMax =   7.87904741450518E-11  1.14260324463014E-02
 cg2d: Sum(rhs),rhsMax =   7.88153431408034E-11  1.14298243419000E-02
 cg2d: Sum(rhs),rhsMax =   7.88208387447753E-11  1.14336111546804E-02
 cg2d: Sum(rhs),rhsMax =   7.88492882097813E-11  1.14373920955873E-02
 cg2d: Sum(rhs),rhsMax =   7.88746568058940E-11  1.14411662789887E-02
 cg2d: Sum(rhs),rhsMax =   7.89100729203795E-11  1.14449328177371E-02
 cg2d: Sum(rhs),rhsMax =   7.89323606475989E-11  1.14486908232357E-02
 cg2d: Sum(rhs),rhsMax =   7.89456278127432E-11  1.14524393720698E-02
 cg2d: Sum(rhs),rhsMax =   7.89754650565300E-11  1.14561775394765E-02
 cg2d: Sum(rhs),rhsMax =   7.90102705483520E-11  1.14599043957124E-02
 cg2d: Sum(rhs),rhsMax =   7.90434939723639E-11  1.14636190126416E-02
 cg2d: Sum(rhs),rhsMax =   7.90663090555199E-11  1.14673204685318E-02
 cg2d: Sum(rhs),rhsMax =   7.90945087203454E-11  1.14710078430342E-02
 cg2d: Sum(rhs),rhsMax =   7.91017529255811E-11  1.14746802315048E-02
 cg2d: Sum(rhs),rhsMax =   7.91297860569529E-11  1.14783367365534E-02
 cg2d: Sum(rhs),rhsMax =   7.91575416325685E-11  1.14819764704362E-02
 cg2d: Sum(rhs),rhsMax =   7.91817167389297E-11  1.14855985883153E-02
 cg2d: Sum(rhs),rhsMax =   7.92100829372089E-11  1.14892022394883E-02
 cg2d: Sum(rhs),rhsMax =   7.92214904787869E-11  1.14927866004026E-02
 cg2d: Sum(rhs),rhsMax =   7.92362564450144E-11  1.14963508795237E-02
 cg2d: Sum(rhs),rhsMax =   7.92743370947591E-11  1.14998943359511E-02
 cg2d: Sum(rhs),rhsMax =   7.93036747381848E-11  1.15034161661218E-02
 cg2d: Sum(rhs),rhsMax =   7.93154431022458E-11  1.15069156768040E-02
 cg2d: Sum(rhs),rhsMax =   7.93502485940678E-11  1.15103922322970E-02
 cg2d: Sum(rhs),rhsMax =   7.93725640768628E-11  1.15138451986447E-02
 cg2d: Sum(rhs),rhsMax =   7.93957399825018E-11  1.15172709126319E-02
 cg2d: Sum(rhs),rhsMax =   7.94210808230389E-11  1.15206717725422E-02
 cg2d: Sum(rhs),rhsMax =   7.94526666680895E-11  1.15240474311192E-02
 cg2d: Sum(rhs),rhsMax =   7.94682097904342E-11  1.15273973747201E-02
 cg2d: Sum(rhs),rhsMax =   7.94993515462750E-11  1.15307211755662E-02
 cg2d: Sum(rhs),rhsMax =   7.95355725724534E-11  1.15340184601711E-02
 cg2d: Sum(rhs),rhsMax =   7.95406795983666E-11  1.15372888881122E-02
 cg2d: Sum(rhs),rhsMax =   7.95719046209342E-11  1.15405351341025E-02
 cg2d: Sum(rhs),rhsMax =   7.95993271296425E-11  1.15437541034996E-02
 cg2d: Sum(rhs),rhsMax =   7.96257504376285E-11  1.15469453714636E-02
 cg2d: Sum(rhs),rhsMax =   7.96393784252558E-11  1.15501088744651E-02
 cg2d: Sum(rhs),rhsMax =   7.96690213800133E-11  1.15532445191091E-02
 cg2d: Sum(rhs),rhsMax =   7.96971377781119E-11  1.15563522161926E-02
 cg2d: Sum(rhs),rhsMax =   7.97214794179268E-11  1.15594319269575E-02
 cg2d: Sum(rhs),rhsMax =   7.97711063871276E-11  1.15624836707723E-02
 cg2d: Sum(rhs),rhsMax =   7.97963084497866E-11  1.15655075112257E-02
 cg2d: Sum(rhs),rhsMax =   7.98225097131677E-11  1.15685035676114E-02
 cg2d: Sum(rhs),rhsMax =   7.98547894476087E-11  1.15714674588435E-02
 cg2d: Sum(rhs),rhsMax =   7.98868748930204E-11  1.15744037998771E-02
 cg2d: Sum(rhs),rhsMax =   7.99141031126993E-11  1.15773130379706E-02
 cg2d: Sum(rhs),rhsMax =   7.99352251057428E-11  1.15801954153639E-02
 cg2d: Sum(rhs),rhsMax =   7.99735555556680E-11  1.15830514121850E-02
 cg2d: Sum(rhs),rhsMax =   7.99980082177854E-11  1.15858813067442E-02
 cg2d: Sum(rhs),rhsMax =   8.00190191885264E-11  1.15886854988567E-02
 cg2d: Sum(rhs),rhsMax =   8.00380040022475E-11  1.15914644659742E-02
 cg2d: Sum(rhs),rhsMax =   8.00653709998045E-11  1.15942186986423E-02
 cg2d: Sum(rhs),rhsMax =   8.00997879135679E-11  1.15969487051104E-02
 cg2d: Sum(rhs),rhsMax =   8.01293198460229E-11  1.15996550221588E-02
 cg2d: Sum(rhs),rhsMax =   8.01693156304850E-11  1.16023382137798E-02
 cg2d: Sum(rhs),rhsMax =   8.01898270008650E-11  1.16049988797956E-02
 cg2d: Sum(rhs),rhsMax =   8.02301836078101E-11  1.16076376138774E-02
 cg2d: Sum(rhs),rhsMax =   8.02452548853694E-11  1.16102550197059E-02
 cg2d: Sum(rhs),rhsMax =   8.02778399311421E-11  1.16128517187144E-02
 cg2d: Sum(rhs),rhsMax =   8.02874433603051E-11  1.16154283641171E-02
 cg2d: Sum(rhs),rhsMax =   8.03122013337543E-11  1.16179856245236E-02
 cg2d: Sum(rhs),rhsMax =   8.03627442369503E-11  1.16205241741717E-02
 cg2d: Sum(rhs),rhsMax =   8.03891397893608E-11  1.16230446767139E-02
 cg2d: Sum(rhs),rhsMax =   8.04314670421746E-11  1.16255478256524E-02
 cg2d: Sum(rhs),rhsMax =   8.04780131424820E-11  1.16280343315678E-02
 cg2d: Sum(rhs),rhsMax =   8.05051303398585E-11  1.16305067810992E-02
 Computing Diagnostic #    26 "THETA   " (list#  1) Parms "SMR     MR      ", Count=     144
 Computing Diagnostic #    27 "SALT    " (list#  1) Parms "SMR     MR      ", Count=     144
 Computing Diagnostic #    30 "UVEL    " (list#  1) Parms "UUR     MR      ", Count=     144
             Vector  Mate for "UVEL    " :  Diagnostic #     31 "VVEL    " exists
 Computing Diagnostic #    32 "WVEL    " (list#  1) Parms "WM      LR      ", Count=     144
 Computing Diagnostic #    31 "VVEL    " (list#  1) Parms "VVR     MR      ", Count=     144
             Vector  Mate for "VVEL    " :  Diagnostic #     30 "UVEL    " exists
 Computing Diagnostic #   197 "BRGfwFlx" (list#  2) Parms "SM      MR      ", Count=     144
 Computing Diagnostic #   198 "BRGhtFlx" (list#  2) Parms "SM      MR      ", Count=     144
 Computing Diagnostic #   199 "BRGmltRt" (list#  2) Parms "SM      MR      ", Count=     144
 Computing Diagnostic #   201 "BRG_TauX" (list#  2) Parms "UU      MR      ", Count=    1728
 Computing Diagnostic #   202 "BRG_TauY" (list#  2) Parms "VV      MR      ", Count=    1728
 Computing Diagnostic #   203 "BRGhFacC" (list#  2) Parms "SM      MR      ", Count=    1728
 cg2d: Sum(rhs),rhsMax =   8.05325528485668E-11  1.16329639303595E-02
 cg2d: Sum(rhs),rhsMax =   8.05620015142949E-11  1.16354035187535E-02
 cg2d: Sum(rhs),rhsMax =   8.06113786833151E-11  1.16378290502852E-02
 cg2d: Sum(rhs),rhsMax =   8.06438804623610E-11  1.16402413429810E-02
 cg2d: Sum(rhs),rhsMax =   8.06855693369357E-11  1.16426410384535E-02
 cg2d: Sum(rhs),rhsMax =   8.07222066967483E-11  1.16450287754562E-02
 cg2d: Sum(rhs),rhsMax =   8.07524047630181E-11  1.16474051417332E-02
 cg2d: Sum(rhs),rhsMax =   8.07890421228308E-11  1.16497708308087E-02
 cg2d: Sum(rhs),rhsMax =   8.08121347617430E-11  1.16521264743133E-02
 cg2d: Sum(rhs),rhsMax =   8.08441091848522E-11  1.16544726870288E-02
 cg2d: Sum(rhs),rhsMax =   8.08775824090446E-11  1.16568100697408E-02
 cg2d: Sum(rhs),rhsMax =   8.09107503219053E-11  1.16591392043197E-02
 cg2d: Sum(rhs),rhsMax =   8.09321221151293E-11  1.16614606581903E-02
 cg2d: Sum(rhs),rhsMax =   8.09703970539033E-11  1.16637749833598E-02
 cg2d: Sum(rhs),rhsMax =   8.10105316162435E-11  1.16660827141427E-02
 cg2d: Sum(rhs),rhsMax =   8.10407019269377E-11  1.16683843656935E-02
 cg2d: Sum(rhs),rhsMax =   8.10922162752803E-11  1.16706804418717E-02
 cg2d: Sum(rhs),rhsMax =   8.11273270784341E-11  1.16729714220740E-02
 cg2d: Sum(rhs),rhsMax =   8.11644362830322E-11  1.16752577625434E-02
 cg2d: Sum(rhs),rhsMax =   8.12178935216679E-11  1.16775399201123E-02
 cg2d: Sum(rhs),rhsMax =   8.12442058073515E-11  1.16798183313546E-02
 cg2d: Sum(rhs),rhsMax =   8.12941380878840E-11  1.16820934246440E-02
 cg2d: Sum(rhs),rhsMax =   8.13341338723461E-11  1.16843656107772E-02
 cg2d: Sum(rhs),rhsMax =   8.13598077797906E-11  1.16866352894400E-02
 cg2d: Sum(rhs),rhsMax =   8.13906997354508E-11  1.16889028392148E-02
 cg2d: Sum(rhs),rhsMax =   8.14049661013172E-11  1.16911686569073E-02
 cg2d: Sum(rhs),rhsMax =   8.14428524620325E-11  1.16934330972139E-02
 cg2d: Sum(rhs),rhsMax =   8.14703582374676E-11  1.16956965118819E-02
 cg2d: Sum(rhs),rhsMax =   8.14944500771020E-11  1.16979592537988E-02
 cg2d: Sum(rhs),rhsMax =   8.15334744164176E-11  1.17002216694104E-02
 cg2d: Sum(rhs),rhsMax =   8.15680023524834E-11  1.17024772068860E-02
 cg2d: Sum(rhs),rhsMax =   8.16010869986172E-11  1.17047319345120E-02
 cg2d: Sum(rhs),rhsMax =   8.16456624530559E-11  1.17069869814057E-02
 cg2d: Sum(rhs),rhsMax =   8.16731127173398E-11  1.17092430587894E-02
 cg2d: Sum(rhs),rhsMax =   8.17068079861372E-11  1.17115006565785E-02
 cg2d: Sum(rhs),rhsMax =   8.17382550533097E-11  1.17137601889163E-02
 cg2d: Sum(rhs),rhsMax =   8.17579615119968E-11  1.17160220425799E-02
 cg2d: Sum(rhs),rhsMax =   8.17902967575890E-11  1.17182864711839E-02
 cg2d: Sum(rhs),rhsMax =   8.18182188666583E-11  1.17205533582011E-02
 cg2d: Sum(rhs),rhsMax =   8.18385081924333E-11  1.17228235019515E-02
 cg2d: Sum(rhs),rhsMax =   8.18761447529681E-11  1.17250968392026E-02
 cg2d: Sum(rhs),rhsMax =   8.19093681769800E-11  1.17273739341625E-02
 cg2d: Sum(rhs),rhsMax =   8.19388723538594E-11  1.17296550590224E-02
 cg2d: Sum(rhs),rhsMax =   8.19815049180050E-11  1.17319406727685E-02
 cg2d: Sum(rhs),rhsMax =   8.20047085792197E-11  1.17342312170070E-02
 cg2d: Sum(rhs),rhsMax =   8.20237766596676E-11  1.17365270900738E-02
 cg2d: Sum(rhs),rhsMax =   8.20522816358249E-11  1.17388286896695E-02
 cg2d: Sum(rhs),rhsMax =   8.20787882105378E-11  1.17411364426010E-02
 cg2d: Sum(rhs),rhsMax =   8.20956080893609E-11  1.17434507790117E-02
 cg2d: Sum(rhs),rhsMax =   8.21201995293563E-11  1.17457561147894E-02
 cg2d: Sum(rhs),rhsMax =   8.21484547053331E-11  1.17480690243806E-02
 cg2d: Sum(rhs),rhsMax =   8.21944734497038E-11  1.17503902064800E-02
 cg2d: Sum(rhs),rhsMax =   8.22192869343041E-11  1.17527201641190E-02
 cg2d: Sum(rhs),rhsMax =   8.22565071612047E-11  1.17550595326516E-02
 cg2d: Sum(rhs),rhsMax =   8.23043577735660E-11  1.17574089366598E-02
 cg2d: Sum(rhs),rhsMax =   8.23320855936061E-11  1.17597689130529E-02
 cg2d: Sum(rhs),rhsMax =   8.23495993618195E-11  1.17621401526363E-02
 cg2d: Sum(rhs),rhsMax =   8.23838774977048E-11  1.17645232999128E-02
 cg2d: Sum(rhs),rhsMax =   8.24344759120521E-11  1.17669189546136E-02
 cg2d: Sum(rhs),rhsMax =   8.24710577607135E-11  1.17693277348203E-02
 cg2d: Sum(rhs),rhsMax =   8.25171597718111E-11  1.17717502680906E-02
 cg2d: Sum(rhs),rhsMax =   8.25527979309015E-11  1.17741871773929E-02
 cg2d: Sum(rhs),rhsMax =   8.25844115315277E-11  1.17766390815627E-02
 cg2d: Sum(rhs),rhsMax =   8.26292090305714E-11  1.17791065821652E-02
 cg2d: Sum(rhs),rhsMax =   8.26589352520557E-11  1.17815902948065E-02
 cg2d: Sum(rhs),rhsMax =   8.26806678677627E-11  1.17840908044009E-02
 cg2d: Sum(rhs),rhsMax =   8.27167778716387E-11  1.17866086951651E-02
 cg2d: Sum(rhs),rhsMax =   8.27397317326728E-11  1.17891445646065E-02
 cg2d: Sum(rhs),rhsMax =   8.27712065554209E-11  1.17916989632320E-02
 cg2d: Sum(rhs),rhsMax =   8.28062340918478E-11  1.17942724549433E-02
 cg2d: Sum(rhs),rhsMax =   8.28419277620895E-11  1.17968655751767E-02
 cg2d: Sum(rhs),rhsMax =   8.28776491879069E-11  1.17994788348968E-02
 cg2d: Sum(rhs),rhsMax =   8.29049051631614E-11  1.18021127151034E-02
 cg2d: Sum(rhs),rhsMax =   8.29274704461369E-11  1.18047676839545E-02
 cg2d: Sum(rhs),rhsMax =   8.29534774204888E-11  1.18074441750952E-02
 cg2d: Sum(rhs),rhsMax =   8.29778190603037E-11  1.18101425893700E-02
 cg2d: Sum(rhs),rhsMax =   8.30187862899123E-11  1.18128632976385E-02
 cg2d: Sum(rhs),rhsMax =   8.30291946307682E-11  1.18156066374569E-02
 cg2d: Sum(rhs),rhsMax =   8.30725488398798E-11  1.18183729071112E-02
 cg2d: Sum(rhs),rhsMax =   8.31028856840277E-11  1.18211623675194E-02
 cg2d: Sum(rhs),rhsMax =   8.31344992846539E-11  1.18239752419810E-02
 cg2d: Sum(rhs),rhsMax =   8.31656132849190E-11  1.18268117139839E-02
 cg2d: Sum(rhs),rhsMax =   8.31735236239695E-11  1.18296719655524E-02
 cg2d: Sum(rhs),rhsMax =   8.31942847945299E-11  1.18325561225340E-02
 cg2d: Sum(rhs),rhsMax =   8.32051372245957E-11  1.18354643134150E-02
 cg2d: Sum(rhs),rhsMax =   8.32387492266662E-11  1.18383965363737E-02
 cg2d: Sum(rhs),rhsMax =   8.32631186220567E-11  1.18413527309875E-02
 cg2d: Sum(rhs),rhsMax =   8.32902635750088E-11  1.18443327935332E-02
 cg2d: Sum(rhs),rhsMax =   8.33153268597897E-11  1.18473365695004E-02
 cg2d: Sum(rhs),rhsMax =   8.33506319519728E-11  1.18503638457576E-02
 cg2d: Sum(rhs),rhsMax =   8.33849655990093E-11  1.18534143519177E-02
 cg2d: Sum(rhs),rhsMax =   8.34190772014409E-11  1.18564877700140E-02
 cg2d: Sum(rhs),rhsMax =   8.34448066200366E-11  1.18595837319159E-02
 cg2d: Sum(rhs),rhsMax =   8.34717295283838E-11  1.18627018109635E-02
 cg2d: Sum(rhs),rhsMax =   8.35062852200252E-11  1.18658415248008E-02
 cg2d: Sum(rhs),rhsMax =   8.35366220641731E-11  1.18690023346014E-02
 cg2d: Sum(rhs),rhsMax =   8.35713720448439E-11  1.18721836534163E-02
 cg2d: Sum(rhs),rhsMax =   8.36012647997819E-11  1.18753848433868E-02
 cg2d: Sum(rhs),rhsMax =   8.36314351104761E-11  1.18786052059356E-02
 cg2d: Sum(rhs),rhsMax =   8.36576918850085E-11  1.18818440144069E-02
 cg2d: Sum(rhs),rhsMax =   8.36803404347108E-11  1.18851004959843E-02
 cg2d: Sum(rhs),rhsMax =   8.36987146257684E-11  1.18883737886439E-02
 cg2d: Sum(rhs),rhsMax =   8.37273028686525E-11  1.18916630183860E-02
 cg2d: Sum(rhs),rhsMax =   8.37545310883314E-11  1.18949672511040E-02
 cg2d: Sum(rhs),rhsMax =   8.37697688993444E-11  1.18982855045831E-02
 cg2d: Sum(rhs),rhsMax =   8.37996061431312E-11  1.19016167615979E-02
 cg2d: Sum(rhs),rhsMax =   8.38281666304397E-11  1.19049599615716E-02
 cg2d: Sum(rhs),rhsMax =   8.38533686930987E-11  1.19083140086678E-02
 cg2d: Sum(rhs),rhsMax =   8.38957792126394E-11  1.19116777740449E-02
 cg2d: Sum(rhs),rhsMax =   8.39155689380533E-11  1.19150500918885E-02
 cg2d: Sum(rhs),rhsMax =   8.39438241140300E-11  1.19184297729308E-02
 cg2d: Sum(rhs),rhsMax =   8.39707470223772E-11  1.19218155994251E-02
 cg2d: Sum(rhs),rhsMax =   8.39885383463468E-11  1.19252063264208E-02
 cg2d: Sum(rhs),rhsMax =   8.40211233921195E-11  1.19286006954199E-02
 cg2d: Sum(rhs),rhsMax =   8.40606473317962E-11  1.19319974245269E-02
 cg2d: Sum(rhs),rhsMax =   8.40797431678197E-11  1.19353952216511E-02
 cg2d: Sum(rhs),rhsMax =   8.40943148450179E-11  1.19387927717974E-02
 cg2d: Sum(rhs),rhsMax =   8.41230141102045E-11  1.19421887640419E-02
 cg2d: Sum(rhs),rhsMax =   8.41449965260921E-11  1.19455818714843E-02
 cg2d: Sum(rhs),rhsMax =   8.41711700338976E-11  1.19489707748488E-02
 cg2d: Sum(rhs),rhsMax =   8.41989256095133E-11  1.19523541548475E-02
 cg2d: Sum(rhs),rhsMax =   8.42300673653540E-11  1.19557307002791E-02
 cg2d: Sum(rhs),rhsMax =   8.42450553761864E-11  1.19590991069726E-02
 cg2d: Sum(rhs),rhsMax =   8.42796943345547E-11  1.19624580913698E-02
 cg2d: Sum(rhs),rhsMax =   8.43061731536920E-11  1.19658063804975E-02
 cg2d: Sum(rhs),rhsMax =   8.43336234179759E-11  1.19691431347685E-02
 cg2d: Sum(rhs),rhsMax =   8.43681513540417E-11  1.19724667142362E-02
 cg2d: Sum(rhs),rhsMax =   8.43991265764288E-11  1.19757757544531E-02
 cg2d: Sum(rhs),rhsMax =   8.44208591921358E-11  1.19790691977283E-02
 cg2d: Sum(rhs),rhsMax =   8.44413150513645E-11  1.19823442007131E-02
 cg2d: Sum(rhs),rhsMax =   8.44665171140235E-11  1.19856010968649E-02
 cg2d: Sum(rhs),rhsMax =   8.44864456173156E-11  1.19888388790163E-02
 cg2d: Sum(rhs),rhsMax =   8.45223613321622E-11  1.19920564758263E-02
 cg2d: Sum(rhs),rhsMax =   8.45410408345515E-11  1.19952850804160E-02
 cg2d: Sum(rhs),rhsMax =   8.45638281621319E-11  1.19985110735368E-02
 cg2d: Sum(rhs),rhsMax =   8.45872538679515E-11  1.20017132751985E-02
 cg2d: Sum(rhs),rhsMax =   8.46114289743127E-11  1.20048908313133E-02
 cg2d: Sum(rhs),rhsMax =   8.46363534812156E-11  1.20080426022415E-02
 cg2d: Sum(rhs),rhsMax =   8.46706593726765E-11  1.20111674512343E-02
 cg2d: Sum(rhs),rhsMax =   8.46989145486532E-11  1.20142643927661E-02
 cg2d: Sum(rhs),rhsMax =   8.47280023918984E-11  1.20173325400858E-02
 cg2d: Sum(rhs),rhsMax =   8.47732717357275E-11  1.20203710841180E-02
 cg2d: Sum(rhs),rhsMax =   8.47959757965810E-11  1.20233793020694E-02
 cg2d: Sum(rhs),rhsMax =   8.48284498200513E-11  1.20263565648900E-02
 Computing Diagnostic #    26 "THETA   " (list#  1) Parms "SMR     MR      ", Count=     144
 Computing Diagnostic #    27 "SALT    " (list#  1) Parms "SMR     MR      ", Count=     144
 Computing Diagnostic #    30 "UVEL    " (list#  1) Parms "UUR     MR      ", Count=     144
             Vector  Mate for "UVEL    " :  Diagnostic #     31 "VVEL    " exists
 Computing Diagnostic #    32 "WVEL    " (list#  1) Parms "WM      LR      ", Count=     144
 Computing Diagnostic #    31 "VVEL    " (list#  1) Parms "VVR     MR      ", Count=     144
             Vector  Mate for "VVEL    " :  Diagnostic #     30 "UVEL    " exists
 Computing Diagnostic #   197 "BRGfwFlx" (list#  2) Parms "SM      MR      ", Count=     144
 Computing Diagnostic #   198 "BRGhtFlx" (list#  2) Parms "SM      MR      ", Count=     144
 Computing Diagnostic #   199 "BRGmltRt" (list#  2) Parms "SM      MR      ", Count=     144
 Computing Diagnostic #   201 "BRG_TauX" (list#  2) Parms "UU      MR      ", Count=    1728
 Computing Diagnostic #   202 "BRG_TauY" (list#  2) Parms "VV      MR      ", Count=    1728
 Computing Diagnostic #   203 "BRGhFacC" (list#  2) Parms "SM      MR      ", Count=    1728
 cg2d: Sum(rhs),rhsMax =   8.48320025337301E-11  1.20293023666783E-02
 cg2d: Sum(rhs),rhsMax =   8.48607573100679E-11  1.20322162380584E-02
 cg2d: Sum(rhs),rhsMax =   8.48951187126801E-11  1.20350977500800E-02
 cg2d: Sum(rhs),rhsMax =   8.49267600688819E-11  1.20379465916478E-02
 cg2d: Sum(rhs),rhsMax =   8.49546266668000E-11  1.20407631183398E-02
 cg2d: Sum(rhs),rhsMax =   8.49869896679678E-11  1.20435467306441E-02
 cg2d: Sum(rhs),rhsMax =   8.50429171528333E-11  1.20462974292078E-02
 cg2d: Sum(rhs),rhsMax =   8.50726433743176E-11  1.20490152949854E-02
 cg2d: Sum(rhs),rhsMax =   8.51040904414901E-11  1.20517004920849E-02
 cg2d: Sum(rhs),rhsMax =   8.51179127181467E-11  1.20543532768042E-02
 cg2d: Sum(rhs),rhsMax =   8.51439474480742E-11  1.20569543108753E-02
 cg2d: Sum(rhs),rhsMax =   8.51780312949302E-11  1.20595229381800E-02
 cg2d: Sum(rhs),rhsMax =   8.52033443798916E-11  1.20620613548195E-02
 cg2d: Sum(rhs),rhsMax =   8.52422854524804E-11  1.20645716440223E-02
 cg2d: Sum(rhs),rhsMax =   8.52772574777561E-11  1.20670545480762E-02
 cg2d: Sum(rhs),rhsMax =   8.53180026627598E-11  1.20695108518848E-02
 cg2d: Sum(rhs),rhsMax =   8.53557780011727E-11  1.20719413884925E-02
 cg2d: Sum(rhs),rhsMax =   8.53967174752057E-11  1.20743470111395E-02
 cg2d: Sum(rhs),rhsMax =   8.54350479251309E-11  1.20767288319081E-02
 cg2d: Sum(rhs),rhsMax =   8.54687431939283E-11  1.20790878203062E-02
 cg2d: Sum(rhs),rhsMax =   8.55176485181630E-11  1.20814251553705E-02
 cg2d: Sum(rhs),rhsMax =   8.55528703436192E-11  1.20837418720980E-02
 cg2d: Sum(rhs),rhsMax =   8.56016924011271E-11  1.20860391632211E-02
 cg2d: Sum(rhs),rhsMax =   8.56429094309163E-11  1.20883181772690E-02
 cg2d: Sum(rhs),rhsMax =   8.56748005872987E-11  1.20905800890048E-02
 cg2d: Sum(rhs),rhsMax =   8.57087456562766E-11  1.20928260649268E-02
 cg2d: Sum(rhs),rhsMax =   8.57467707948700E-11  1.20950573042467E-02
 cg2d: Sum(rhs),rhsMax =   8.57961479638902E-11  1.20972748815339E-02
 cg2d: Sum(rhs),rhsMax =   8.58234039391448E-11  1.20994800494845E-02
 cg2d: Sum(rhs),rhsMax =   8.58551008064978E-11  1.21016739439942E-02
 cg2d: Sum(rhs),rhsMax =   8.58844384499236E-11  1.21038576821049E-02
 cg2d: Sum(rhs),rhsMax =   8.59143312048616E-11  1.21060323867147E-02
 cg2d: Sum(rhs),rhsMax =   8.59646798190283E-11  1.21081991432202E-02
 cg2d: Sum(rhs),rhsMax =   8.60006510450262E-11  1.21103590117721E-02
 cg2d: Sum(rhs),rhsMax =   8.60349569364871E-11  1.21125130171964E-02
 cg2d: Sum(rhs),rhsMax =   8.60529980606373E-11  1.21146621451914E-02
 cg2d: Sum(rhs),rhsMax =   8.60943816238802E-11  1.21168073581746E-02
 cg2d: Sum(rhs),rhsMax =   8.61332116741664E-11  1.21189495648670E-02
 cg2d: Sum(rhs),rhsMax =   8.61526960882486E-11  1.21210896398645E-02
 cg2d: Sum(rhs),rhsMax =   8.61926918727107E-11  1.21232284136719E-02
 cg2d: Sum(rhs),rhsMax =   8.62291626990697E-11  1.21253666584468E-02
 cg2d: Sum(rhs),rhsMax =   8.62653559696724E-11  1.21275050876276E-02
 cg2d: Sum(rhs),rhsMax =   8.62919180555366E-11  1.21296443673839E-02
 cg2d: Sum(rhs),rhsMax =   8.63305260612179E-11  1.21317851091653E-02
 cg2d: Sum(rhs),rhsMax =   8.63519811211688E-11  1.21339297830152E-02
 cg2d: Sum(rhs),rhsMax =   8.63806803863554E-11  1.21360774840589E-02
 cg2d: Sum(rhs),rhsMax =   8.64017468682476E-11  1.21382282602027E-02
 cg2d: Sum(rhs),rhsMax =   8.64320559568199E-11  1.21403823674116E-02
 cg2d: Sum(rhs),rhsMax =   8.64656679588904E-11  1.21425401089855E-02
 cg2d: Sum(rhs),rhsMax =   8.65031102303959E-11  1.21447017165480E-02
 cg2d: Sum(rhs),rhsMax =   8.65404692351746E-11  1.21468673972841E-02
 cg2d: Sum(rhs),rhsMax =   8.65751081935429E-11  1.21490373038391E-02
 cg2d: Sum(rhs),rhsMax =   8.66141602884341E-11  1.21512115372055E-02
 cg2d: Sum(rhs),rhsMax =   8.66530736054472E-11  1.21533901509085E-02
 cg2d: Sum(rhs),rhsMax =   8.66853533398881E-11  1.21555731542033E-02
 cg2d: Sum(rhs),rhsMax =   8.67262650583456E-11  1.21577603784505E-02
 cg2d: Sum(rhs),rhsMax =   8.67566574136447E-11  1.21599517127859E-02
 cg2d: Sum(rhs),rhsMax =   8.67977079099802E-11  1.21621470431561E-02
 cg2d: Sum(rhs),rhsMax =   8.68284610877623E-11  1.21643462174426E-02
 cg2d: Sum(rhs),rhsMax =   8.68681238053171E-11  1.21665490525013E-02
 cg2d: Sum(rhs),rhsMax =   8.69048721874321E-11  1.21687553342181E-02
 cg2d: Sum(rhs),rhsMax =   8.69463667729775E-11  1.21709738745938E-02
 cg2d: Sum(rhs),rhsMax =   8.69761207500375E-11  1.21731952898518E-02
 cg2d: Sum(rhs),rhsMax =   8.70145344666895E-11  1.21754192092078E-02
 cg2d: Sum(rhs),rhsMax =   8.70518657158925E-11  1.21776452636362E-02
 cg2d: Sum(rhs),rhsMax =   8.70830907384601E-11  1.21798730552579E-02
 cg2d: Sum(rhs),rhsMax =   8.71198668761508E-11  1.21821022059421E-02
 cg2d: Sum(rhs),rhsMax =   8.71631100629600E-11  1.21843323229521E-02
 cg2d: Sum(rhs),rhsMax =   8.71946959080105E-11  1.21865629919044E-02
 cg2d: Sum(rhs),rhsMax =   8.72232841508946E-11  1.21887938070070E-02
 cg2d: Sum(rhs),rhsMax =   8.72440453214551E-11  1.21910243825766E-02
 cg2d: Sum(rhs),rhsMax =   8.72757421888082E-11  1.21932543180551E-02
 cg2d: Sum(rhs),rhsMax =   8.73003891399549E-11  1.21954830592013E-02
 cg2d: Sum(rhs),rhsMax =   8.73399130796315E-11  1.21977106640179E-02
 cg2d: Sum(rhs),rhsMax =   8.73712491245016E-11  1.21999365341436E-02
 cg2d: Sum(rhs),rhsMax =   8.73953409641359E-11  1.22021602451989E-02
 cg2d: Sum(rhs),rhsMax =   8.74263716976742E-11  1.22043815432712E-02
 cg2d: Sum(rhs),rhsMax =   8.74593175659300E-11  1.22066001661128E-02
 cg2d: Sum(rhs),rhsMax =   8.74833816499887E-11  1.22088158670960E-02
 cg2d: Sum(rhs),rhsMax =   8.75109151809994E-11  1.22110284078633E-02
 cg2d: Sum(rhs),rhsMax =   8.75349792650582E-11  1.22132375894922E-02
 cg2d: Sum(rhs),rhsMax =   8.75779171405355E-11  1.22154432399657E-02
 cg2d: Sum(rhs),rhsMax =   8.76071437616588E-11  1.22176452171267E-02
 cg2d: Sum(rhs),rhsMax =   8.76446692998911E-11  1.22198434177968E-02
 cg2d: Sum(rhs),rhsMax =   8.76871908417343E-11  1.22220377726224E-02
 cg2d: Sum(rhs),rhsMax =   8.77038441871036E-11  1.22242282468932E-02
 cg2d: Sum(rhs),rhsMax =   8.77306005619971E-11  1.22264148420541E-02
 cg2d: Sum(rhs),rhsMax =   8.77776185070900E-11  1.22285975964924E-02
 cg2d: Sum(rhs),rhsMax =   8.78027373030221E-11  1.22307672804775E-02
 cg2d: Sum(rhs),rhsMax =   8.78246364521829E-11  1.22329333837850E-02
 cg2d: Sum(rhs),rhsMax =   8.78512818047739E-11  1.22350961615371E-02
 cg2d: Sum(rhs),rhsMax =   8.78782879798479E-11  1.22372558282442E-02
 cg2d: Sum(rhs),rhsMax =   8.79185613200661E-11  1.22394126854399E-02
 cg2d: Sum(rhs),rhsMax =   8.79436801159983E-11  1.22415670687367E-02
 cg2d: Sum(rhs),rhsMax =   8.79718242696725E-11  1.22437193161774E-02
 cg2d: Sum(rhs),rhsMax =   8.80144845893938E-11  1.22458698055055E-02
 cg2d: Sum(rhs),rhsMax =   8.80353290266811E-11  1.22480189418847E-02
 cg2d: Sum(rhs),rhsMax =   8.80601425112815E-11  1.22501671508614E-02
 cg2d: Sum(rhs),rhsMax =   8.81112682815655E-11  1.22523148823989E-02
 cg2d: Sum(rhs),rhsMax =   8.81519857109936E-11  1.22544626040955E-02
 cg2d: Sum(rhs),rhsMax =   8.81977824107594E-11  1.22566108039691E-02
 cg2d: Sum(rhs),rhsMax =   8.82131312440748E-11  1.22587599792105E-02
 cg2d: Sum(rhs),rhsMax =   8.82614259456460E-11  1.22609253141482E-02
 cg2d: Sum(rhs),rhsMax =   8.82962591930436E-11  1.22630925542234E-02
 cg2d: Sum(rhs),rhsMax =   8.83278727936698E-11  1.22652620197428E-02
 cg2d: Sum(rhs),rhsMax =   8.83617068403453E-11  1.22674342222436E-02
 cg2d: Sum(rhs),rhsMax =   8.83949857755084E-11  1.22696095624739E-02
 cg2d: Sum(rhs),rhsMax =   8.84278206214617E-11  1.22717884690587E-02
 cg2d: Sum(rhs),rhsMax =   8.84599338224490E-11  1.22739713681645E-02
 cg2d: Sum(rhs),rhsMax =   8.84945450252417E-11  1.22761586851050E-02
 cg2d: Sum(rhs),rhsMax =   8.85347906098843E-11  1.22783508369275E-02
 cg2d: Sum(rhs),rhsMax =   8.85535256234249E-11  1.22805482348273E-02
 cg2d: Sum(rhs),rhsMax =   8.86094253527148E-11  1.22827512812299E-02
 cg2d: Sum(rhs),rhsMax =   8.86382911513550E-11  1.22849603597372E-02
 cg2d: Sum(rhs),rhsMax =   8.86735407323869E-11  1.22871758625365E-02
 cg2d: Sum(rhs),rhsMax =   8.87164508522886E-11  1.22893981453157E-02
 cg2d: Sum(rhs),rhsMax =   8.87452333842020E-11  1.22916275319617E-02
 cg2d: Sum(rhs),rhsMax =   8.87697970686219E-11  1.22938643412496E-02
 cg2d: Sum(rhs),rhsMax =   8.88154549905096E-11  1.22961088800958E-02
 cg2d: Sum(rhs),rhsMax =   8.88455142789013E-11  1.22983614835749E-02
 cg2d: Sum(rhs),rhsMax =   8.88714102309507E-11  1.23006224054017E-02
 cg2d: Sum(rhs),rhsMax =   8.89042173213284E-11  1.23028918272043E-02
 cg2d: Sum(rhs),rhsMax =   8.89275320048455E-11  1.23051699249105E-02
 cg2d: Sum(rhs),rhsMax =   8.89589790720180E-11  1.23074568921449E-02
 cg2d: Sum(rhs),rhsMax =   8.89893991828927E-11  1.23097529004328E-02
 cg2d: Sum(rhs),rhsMax =   8.90101048423020E-11  1.23120580718981E-02
 cg2d: Sum(rhs),rhsMax =   8.90555962307360E-11  1.23143725243849E-02
 cg2d: Sum(rhs),rhsMax =   8.90828244504149E-11  1.23166963308851E-02
 cg2d: Sum(rhs),rhsMax =   8.91183793427786E-11  1.23190295282804E-02
 cg2d: Sum(rhs),rhsMax =   8.91418605597494E-11  1.23213721182072E-02
 cg2d: Sum(rhs),rhsMax =   8.91770546296300E-11  1.23237240765662E-02
 cg2d: Sum(rhs),rhsMax =   8.91987039786102E-11  1.23260853520033E-02
 cg2d: Sum(rhs),rhsMax =   8.92284579556701E-11  1.23284558779293E-02
 cg2d: Sum(rhs),rhsMax =   8.92653728712389E-11  1.23308355645984E-02
 cg2d: Sum(rhs),rhsMax =   8.93033424986811E-11  1.23332242881894E-02
 cg2d: Sum(rhs),rhsMax =   8.93392304579521E-11  1.23356218859832E-02
 cg2d: Sum(rhs),rhsMax =   8.93707052807002E-11  1.23380281637496E-02
 cg2d: Sum(rhs),rhsMax =   8.94040397270146E-11  1.23404429254370E-02
 cg2d: Sum(rhs),rhsMax =   8.94238294524285E-11  1.23428659499455E-02
 cg2d: Sum(rhs),rhsMax =   8.94531115847030E-11  1.23452969882262E-02
 cg2d: Sum(rhs),rhsMax =   8.94826157615825E-11  1.23477357911426E-02
 cg2d: Sum(rhs),rhsMax =   8.95113427823446E-11  1.23501820084771E-02
 cg2d: Sum(rhs),rhsMax =   8.95394869360189E-11  1.23526353688194E-02
 cg2d: Sum(rhs),rhsMax =   8.95701013359229E-11  1.23550955603061E-02
(PID.TID 0000.0001)      cg2d_init_res =   8.99704122365965E-04
(PID.TID 0000.0001)      cg2d_iters(min,last) =      -1      42
(PID.TID 0000.0001)      cg2d_last_res =   7.24757093893585E-14
(PID.TID 0000.0001) // =======================================================
(PID.TID 0000.0001) // Begin MONITOR dynamic field statistics
(PID.TID 0000.0001) // =======================================================
(PID.TID 0000.0001) %MON time_tsnumber                =                  2592
(PID.TID 0000.0001) %MON time_secondsf                =   6.4800000000000E+04
(PID.TID 0000.0001) %MON dynstat_eta_max              =   4.4425377426261E-03
(PID.TID 0000.0001) %MON dynstat_eta_min              =  -2.2532413919609E-03
(PID.TID 0000.0001) %MON dynstat_eta_mean             =  -7.4157852444961E-15
(PID.TID 0000.0001) %MON dynstat_eta_sd               =   2.2193394786462E-03
(PID.TID 0000.0001) %MON dynstat_eta_del2             =   1.7607027162355E-05
(PID.TID 0000.0001) %MON dynstat_uvel_max             =   3.9142290372898E-02
(PID.TID 0000.0001) %MON dynstat_uvel_min             =  -2.1878682881773E-02
(PID.TID 0000.0001) %MON dynstat_uvel_mean            =  -7.1450768608651E-08
(PID.TID 0000.0001) %MON dynstat_uvel_sd              =   4.6692483649573E-03
(PID.TID 0000.0001) %MON dynstat_uvel_del2            =   9.8346765449062E-05
(PID.TID 0000.0001) %MON dynstat_vvel_max             =   1.4571626857584E-02
(PID.TID 0000.0001) %MON dynstat_vvel_min             =  -3.1681828408540E-02
(PID.TID 0000.0001) %MON dynstat_vvel_mean            =  -8.0919762587476E-03
(PID.TID 0000.0001) %MON dynstat_vvel_sd              =   1.0897434017524E-02
(PID.TID 0000.0001) %MON dynstat_vvel_del2            =   9.3424122887823E-05
(PID.TID 0000.0001) %MON dynstat_wvel_max             =   1.5394733608031E-03
(PID.TID 0000.0001) %MON dynstat_wvel_min             =  -1.1396949465890E-03
(PID.TID 0000.0001) %MON dynstat_wvel_mean            =   1.3461798273510E-20
(PID.TID 0000.0001) %MON dynstat_wvel_sd              =   1.4148726606011E-04
(PID.TID 0000.0001) %MON dynstat_wvel_del2            =   7.4896748320730E-06
(PID.TID 0000.0001) %MON dynstat_theta_max            =   2.6931451612907E+00
(PID.TID 0000.0001) %MON dynstat_theta_min            =   5.0058023106917E-01
(PID.TID 0000.0001) %MON dynstat_theta_mean           =   2.2554887434400E+00
(PID.TID 0000.0001) %MON dynstat_theta_sd             =   4.2722284272264E-01
(PID.TID 0000.0001) %MON dynstat_theta_del2           =   1.1193806382441E-03
(PID.TID 0000.0001) %MON dynstat_salt_max             =   3.4700000000001E+01
(PID.TID 0000.0001) %MON dynstat_salt_min             =   3.3118289047311E+01
(PID.TID 0000.0001) %MON dynstat_salt_mean            =   3.4367035944599E+01
(PID.TID 0000.0001) %MON dynstat_salt_sd              =   3.1545281936839E-01
(PID.TID 0000.0001) %MON dynstat_salt_del2            =   1.7685038241471E-04
(PID.TID 0000.0001) %MON advcfl_uvel_max              =   1.9571145186449E-03
(PID.TID 0000.0001) %MON advcfl_vvel_max              =   1.5840914204270E-03
(PID.TID 0000.0001) %MON advcfl_wvel_max              =   6.7736827897013E-04
(PID.TID 0000.0001) %MON advcfl_W_hf_max              =   1.5611025799934E-03
(PID.TID 0000.0001) %MON pe_b_mean                    =   4.1095299480762E-08
(PID.TID 0000.0001) %MON ke_max                       =   7.3793130458225E-04
(PID.TID 0000.0001) %MON ke_mean                      =   9.3070962164961E-05
(PID.TID 0000.0001) %MON ke_vol                       =   3.2921708585402E+10
(PID.TID 0000.0001) // =======================================================
(PID.TID 0000.0001) // End MONITOR dynamic field statistics
(PID.TID 0000.0001) // =======================================================
(PID.TID 0000.0001) // =======================================================
(PID.TID 0000.0001) // Begin OBCS MONITOR field statistics
(PID.TID 0000.0001) // =======================================================
(PID.TID 0000.0001) %MON obc_E_uVel_max               =   0.0000000000000E+00
(PID.TID 0000.0001) %MON obc_E_uVel_min               =   0.0000000000000E+00
(PID.TID 0000.0001) %MON obc_E_uVel_mean              =   0.0000000000000E+00
(PID.TID 0000.0001) %MON obc_E_uVel_sd                =   0.0000000000000E+00
(PID.TID 0000.0001) %MON obc_E_uVel_Int               =   0.0000000000000E+00
(PID.TID 0000.0001) %MON obc_N_vVel_max               =  -3.6115799844846E-05
(PID.TID 0000.0001) %MON obc_N_vVel_min               =  -3.0000000000000E-02
(PID.TID 0000.0001) %MON obc_N_vVel_mean              =  -1.3225455303334E-02
(PID.TID 0000.0001) %MON obc_N_vVel_sd                =   1.1350864292742E-02
(PID.TID 0000.0001) %MON obc_N_vVel_Int               =  -5.9514548865004E+04
(PID.TID 0000.0001) %MON obc_S_vVel_max               =  -3.6115799844846E-05
(PID.TID 0000.0001) %MON obc_S_vVel_min               =  -3.0000000000000E-02
(PID.TID 0000.0001) %MON obc_S_vVel_mean              =  -1.3225455303334E-02
(PID.TID 0000.0001) %MON obc_S_vVel_sd                =   1.1350864292742E-02
(PID.TID 0000.0001) %MON obc_S_vVel_Int               =  -5.9514548865004E+04
(PID.TID 0000.0001) // =======================================================
(PID.TID 0000.0001) // End OBCS MONITOR field statistics
(PID.TID 0000.0001) // =======================================================
 Computing Diagnostic #    26 "THETA   " (list#  1) Parms "SMR     MR      ", Count=     144
 Computing Diagnostic #    27 "SALT    " (list#  1) Parms "SMR     MR      ", Count=     144
 Computing Diagnostic #    30 "UVEL    " (list#  1) Parms "UUR     MR      ", Count=     144
             Vector  Mate for "UVEL    " :  Diagnostic #     31 "VVEL    " exists
 Computing Diagnostic #    32 "WVEL    " (list#  1) Parms "WM      LR      ", Count=     144
 Computing Diagnostic #    31 "VVEL    " (list#  1) Parms "VVR     MR      ", Count=     144
             Vector  Mate for "VVEL    " :  Diagnostic #     30 "UVEL    " exists
 Computing Diagnostic #   197 "BRGfwFlx" (list#  2) Parms "SM      MR      ", Count=     144
 Computing Diagnostic #   198 "BRGhtFlx" (list#  2) Parms "SM      MR      ", Count=     144
 Computing Diagnostic #   199 "BRGmltRt" (list#  2) Parms "SM      MR      ", Count=     144
 Computing Diagnostic #   201 "BRG_TauX" (list#  2) Parms "UU      MR      ", Count=    1728
 Computing Diagnostic #   202 "BRG_TauY" (list#  2) Parms "VV      MR      ", Count=    1728
 Computing Diagnostic #   203 "BRGhFacC" (list#  2) Parms "SM      MR      ", Count=    1728
 cg2d: Sum(rhs),rhsMax =   8.96176466369525E-11  1.23575622427102E-02
 cg2d: Sum(rhs),rhsMax =   8.96642482484111E-11  1.23600350529763E-02
 cg2d: Sum(rhs),rhsMax =   8.97136809285826E-11  1.23625136042547E-02
 cg2d: Sum(rhs),rhsMax =   8.97487639761607E-11  1.23649975154495E-02
 cg2d: Sum(rhs),rhsMax =   8.97949214984095E-11  1.23674864038160E-02
 cg2d: Sum(rhs),rhsMax =   8.98313645691928E-11  1.23699798851410E-02
 cg2d: Sum(rhs),rhsMax =   8.98614516131602E-11  1.23724775620818E-02
 cg2d: Sum(rhs),rhsMax =   8.98926488801521E-11  1.23749790318143E-02
 cg2d: Sum(rhs),rhsMax =   8.99313956637116E-11  1.23774838877987E-02
 cg2d: Sum(rhs),rhsMax =   8.99679220012217E-11  1.23799917255627E-02
 cg2d: Sum(rhs),rhsMax =   8.99759711181503E-11  1.23825021476850E-02
 cg2d: Sum(rhs),rhsMax =   9.00293728456347E-11  1.23850147585364E-02
 cg2d: Sum(rhs),rhsMax =   9.00436114559255E-11  1.23875291677312E-02
 cg2d: Sum(rhs),rhsMax =   9.00746699450394E-11  1.23900449981292E-02
 cg2d: Sum(rhs),rhsMax =   9.01023700095038E-11  1.23925618699458E-02
 cg2d: Sum(rhs),rhsMax =   9.01419494603317E-11  1.23950794185539E-02
 cg2d: Sum(rhs),rhsMax =   9.01587693391548E-11  1.23975972981786E-02
 cg2d: Sum(rhs),rhsMax =   9.02033725491691E-11  1.24001151650470E-02
 cg2d: Sum(rhs),rhsMax =   9.02311836359360E-11  1.24026327014468E-02
 cg2d: Sum(rhs),rhsMax =   9.02540542302432E-11  1.24051495938071E-02
 cg2d: Sum(rhs),rhsMax =   9.02961871940278E-11  1.24076655452969E-02
 cg2d: Sum(rhs),rhsMax =   9.03226937687407E-11  1.24101802757629E-02
 cg2d: Sum(rhs),rhsMax =   9.03437880062086E-11  1.24126934781147E-02
 cg2d: Sum(rhs),rhsMax =   9.03825625453436E-11  1.24152049349166E-02
 cg2d: Sum(rhs),rhsMax =   9.04236407972547E-11  1.24177144157738E-02
 cg2d: Sum(rhs),rhsMax =   9.04705199644695E-11  1.24202217133947E-02
 cg2d: Sum(rhs),rhsMax =   9.05006902751637E-11  1.24227266475137E-02
 cg2d: Sum(rhs),rhsMax =   9.05383823468497E-11  1.24252290086354E-02
 cg2d: Sum(rhs),rhsMax =   9.05751307289648E-11  1.24277286222211E-02
 cg2d: Sum(rhs),rhsMax =   9.06051067506297E-11  1.24302253336760E-02
 cg2d: Sum(rhs),rhsMax =   9.06341113271480E-11  1.24327190073736E-02
 cg2d: Sum(rhs),rhsMax =   9.06472952255655E-11  1.24352095218108E-02
 cg2d: Sum(rhs),rhsMax =   9.06896224783793E-11  1.24376967697552E-02
 cg2d: Sum(rhs),rhsMax =   9.07200148336784E-11  1.24401806386658E-02
 cg2d: Sum(rhs),rhsMax =   9.07595387733551E-11  1.24426611101668E-02
 cg2d: Sum(rhs),rhsMax =   9.08005337585394E-11  1.24451380948404E-02
 cg2d: Sum(rhs),rhsMax =   9.08362551843567E-11  1.24476115256915E-02
 cg2d: Sum(rhs),rhsMax =   9.08721431436277E-11  1.24500813702465E-02
 cg2d: Sum(rhs),rhsMax =   9.08979280733746E-11  1.24525476047034E-02
 cg2d: Sum(rhs),rhsMax =   9.09374520130513E-11  1.24550102140326E-02
 cg2d: Sum(rhs),rhsMax =   9.09765596190937E-11  1.24574524227542E-02
 cg2d: Sum(rhs),rhsMax =   9.10180264490634E-11  1.24598795991073E-02
 cg2d: Sum(rhs),rhsMax =   9.10327091485641E-11  1.24623348118860E-02
 cg2d: Sum(rhs),rhsMax =   9.10641007045854E-11  1.24647951346344E-02
 cg2d: Sum(rhs),rhsMax =   9.11018482874226E-11  1.24672543144144E-02
 cg2d: Sum(rhs),rhsMax =   9.11306585749116E-11  1.24697108307382E-02
 cg2d: Sum(rhs),rhsMax =   9.11420383609141E-11  1.24721641626851E-02
 cg2d: Sum(rhs),rhsMax =   9.11705710926469E-11  1.24746141176022E-02
 cg2d: Sum(rhs),rhsMax =   9.11954123328229E-11  1.24770606059562E-02
 cg2d: Sum(rhs),rhsMax =   9.12370456962464E-11  1.24795034727559E-02
 cg2d: Sum(rhs),rhsMax =   9.12619424475736E-11  1.24819611477002E-02
 cg2d: Sum(rhs),rhsMax =   9.12958875165515E-11  1.24844368725152E-02
 cg2d: Sum(rhs),rhsMax =   9.13115139056231E-11  1.24869088712343E-02
 cg2d: Sum(rhs),rhsMax =   9.13567277383009E-11  1.24893760976124E-02
 cg2d: Sum(rhs),rhsMax =   9.13778774869201E-11  1.24918386335065E-02
 cg2d: Sum(rhs),rhsMax =   9.14054110179308E-11  1.24942963076257E-02
 cg2d: Sum(rhs),rhsMax =   9.14466280477200E-11  1.24967489594547E-02
 cg2d: Sum(rhs),rhsMax =   9.14795739159757E-11  1.24991963781695E-02
 cg2d: Sum(rhs),rhsMax =   9.15028330883416E-11  1.25016366360249E-02
 cg2d: Sum(rhs),rhsMax =   9.15369169351976E-11  1.25040712532813E-02
 cg2d: Sum(rhs),rhsMax =   9.15572895276995E-11  1.25065000692393E-02
 cg2d: Sum(rhs),rhsMax =   9.15860720596129E-11  1.25089229062466E-02
 cg2d: Sum(rhs),rhsMax =   9.16286768681829E-11  1.25111759631385E-02
 cg2d: Sum(rhs),rhsMax =   9.16565989772522E-11  1.25134239396052E-02
 cg2d: Sum(rhs),rhsMax =   9.16818010399112E-11  1.25156688190612E-02
 cg2d: Sum(rhs),rhsMax =   9.17269593614378E-11  1.25179106922266E-02
 cg2d: Sum(rhs),rhsMax =   9.17423359503289E-11  1.25201510246482E-02
 cg2d: Sum(rhs),rhsMax =   9.17796116883807E-11  1.25223908951932E-02
 cg2d: Sum(rhs),rhsMax =   9.18078668643574E-11  1.25246313010116E-02
 cg2d: Sum(rhs),rhsMax =   9.18474463151853E-11  1.25268732150660E-02
 cg2d: Sum(rhs),rhsMax =   9.18646547720670E-11  1.25291175753639E-02
 cg2d: Sum(rhs),rhsMax =   9.19054832237975E-11  1.25313652644721E-02
 cg2d: Sum(rhs),rhsMax =   9.19328224657789E-11  1.25336171182980E-02
 cg2d: Sum(rhs),rhsMax =   9.19795350995400E-11  1.25358739147466E-02
 cg2d: Sum(rhs),rhsMax =   9.20044318508673E-11  1.25381363799608E-02
 cg2d: Sum(rhs),rhsMax =   9.20421516781289E-11  1.25404051736600E-02
 cg2d: Sum(rhs),rhsMax =   9.20637455159579E-11  1.25426809017452E-02
 cg2d: Sum(rhs),rhsMax =   9.21086262817283E-11  1.25449641020520E-02
 cg2d: Sum(rhs),rhsMax =   9.21254461605514E-11  1.25472552539387E-02
 cg2d: Sum(rhs),rhsMax =   9.21637210993254E-11  1.25495547693877E-02
 cg2d: Sum(rhs),rhsMax =   9.21868137382376E-11  1.25518629950019E-02
 cg2d: Sum(rhs),rhsMax =   9.22331655495157E-11  1.25541802107066E-02
 cg2d: Sum(rhs),rhsMax =   9.22692477978160E-11  1.25565066318265E-02
 cg2d: Sum(rhs),rhsMax =   9.23068010916239E-11  1.25588424118274E-02
 cg2d: Sum(rhs),rhsMax =   9.23372489580743E-11  1.25611876353946E-02
 cg2d: Sum(rhs),rhsMax =   9.23709719824473E-11  1.25635423272609E-02
 cg2d: Sum(rhs),rhsMax =   9.24069432084451E-11  1.25659064461793E-02
 cg2d: Sum(rhs),rhsMax =   9.24378074085297E-11  1.25682798964588E-02
 cg2d: Sum(rhs),rhsMax =   9.24787191269871E-11  1.25706625153874E-02
 cg2d: Sum(rhs),rhsMax =   9.25055587686074E-11  1.25730540924804E-02
 cg2d: Sum(rhs),rhsMax =   9.25403642604294E-11  1.25754543646358E-02
 cg2d: Sum(rhs),rhsMax =   9.25715060162702E-11  1.25778610638921E-02
 cg2d: Sum(rhs),rhsMax =   9.26070886642094E-11  1.25802757847920E-02
 cg2d: Sum(rhs),rhsMax =   9.26499432729599E-11  1.25826981541945E-02
 cg2d: Sum(rhs),rhsMax =   9.26820009627960E-11  1.25851265822521E-02
 cg2d: Sum(rhs),rhsMax =   9.27025678443272E-11  1.25875617254164E-02
 cg2d: Sum(rhs),rhsMax =   9.27384835591738E-11  1.25900031540085E-02
 cg2d: Sum(rhs),rhsMax =   9.27584398180414E-11  1.25924503430466E-02
 cg2d: Sum(rhs),rhsMax =   9.27829479913100E-11  1.25949027432989E-02
 cg2d: Sum(rhs),rhsMax =   9.28180865500394E-11  1.25973597716097E-02
 cg2d: Sum(rhs),rhsMax =   9.28462584592893E-11  1.25998208187970E-02
 cg2d: Sum(rhs),rhsMax =   9.28827570412238E-11  1.26022852995105E-02
 cg2d: Sum(rhs),rhsMax =   9.29137600191865E-11  1.26047526140779E-02
 cg2d: Sum(rhs),rhsMax =   9.29473720212570E-11  1.26072221512839E-02
 cg2d: Sum(rhs),rhsMax =   9.29804844229665E-11  1.26096932884459E-02
 cg2d: Sum(rhs),rhsMax =   9.30100441109971E-11  1.26121654098719E-02
 cg2d: Sum(rhs),rhsMax =   9.30361621076514E-11  1.26146379109209E-02
 cg2d: Sum(rhs),rhsMax =   9.30683030642143E-11  1.26171102000052E-02
 cg2d: Sum(rhs),rhsMax =   9.30996668646600E-11  1.26195817008771E-02
 cg2d: Sum(rhs),rhsMax =   9.31340560228477E-11  1.26220518563912E-02
 cg2d: Sum(rhs),rhsMax =   9.31783261659547E-11  1.26245201313240E-02
 cg2d: Sum(rhs),rhsMax =   9.32077748316829E-11  1.26269860129369E-02
 cg2d: Sum(rhs),rhsMax =   9.32397214992164E-11  1.26294490085882E-02
 cg2d: Sum(rhs),rhsMax =   9.32713073442670E-11  1.26319085712579E-02
 cg2d: Sum(rhs),rhsMax =   9.33111643508511E-11  1.26343644112656E-02
 cg2d: Sum(rhs),rhsMax =   9.33342847453389E-11  1.26368162468807E-02
 cg2d: Sum(rhs),rhsMax =   9.33507438016790E-11  1.26392635923891E-02
 cg2d: Sum(rhs),rhsMax =   9.34072819092080E-11  1.26417061309448E-02
 cg2d: Sum(rhs),rhsMax =   9.34386179540780E-11  1.26441436345999E-02
 cg2d: Sum(rhs),rhsMax =   9.34707311550653E-11  1.26465759007335E-02
 cg2d: Sum(rhs),rhsMax =   9.35021782222378E-11  1.26490027569875E-02
 cg2d: Sum(rhs),rhsMax =   9.35291288861606E-11  1.26514240765079E-02
 cg2d: Sum(rhs),rhsMax =   9.35650446010072E-11  1.26538397893835E-02
 cg2d: Sum(rhs),rhsMax =   9.35972688242970E-11  1.26562498683956E-02
 cg2d: Sum(rhs),rhsMax =   9.36219712865949E-11  1.26586543338862E-02
 cg2d: Sum(rhs),rhsMax =   9.36539179541285E-11  1.26610438606439E-02
 cg2d: Sum(rhs),rhsMax =   9.36893618241896E-11  1.26634128490964E-02
 cg2d: Sum(rhs),rhsMax =   9.37334376782673E-11  1.26657744603902E-02
 cg2d: Sum(rhs),rhsMax =   9.37671607026402E-11  1.26681312760720E-02
 cg2d: Sum(rhs),rhsMax =   9.38067956646194E-11  1.26704841451497E-02
 cg2d: Sum(rhs),rhsMax =   9.38308319931025E-11  1.26728332931138E-02
 cg2d: Sum(rhs),rhsMax =   9.38614463930065E-11  1.26751792311189E-02
 cg2d: Sum(rhs),rhsMax =   9.38873145894803E-11  1.26775225094741E-02
 cg2d: Sum(rhs),rhsMax =   9.39154864987302E-11  1.26798636993791E-02
 cg2d: Sum(rhs),rhsMax =   9.39356648022027E-11  1.26822034038466E-02
 cg2d: Sum(rhs),rhsMax =   9.39644195785405E-11  1.26845422495394E-02
 cg2d: Sum(rhs),rhsMax =   9.40102162783063E-11  1.26868808942389E-02
 cg2d: Sum(rhs),rhsMax =   9.40466593490896E-11  1.26892200068004E-02
 cg2d: Sum(rhs),rhsMax =   9.40875433119714E-11  1.26915602837476E-02
 cg2d: Sum(rhs),rhsMax =   9.41204336690760E-11  1.26939024423429E-02
 cg2d: Sum(rhs),rhsMax =   9.41384747932261E-11  1.26962471827328E-02
 cg2d: Sum(rhs),rhsMax =   9.41824396250013E-11  1.26985952713360E-02
 cg2d: Sum(rhs),rhsMax =   9.42264044567764E-11  1.27009474811379E-02
 cg2d: Sum(rhs),rhsMax =   9.42575462126172E-11  1.27033044831386E-02
 Computing Diagnostic #    26 "THETA   " (list#  1) Parms "SMR     MR      ", Count=     144
 Computing Diagnostic #    27 "SALT    " (list#  1) Parms "SMR     MR      ", Count=     144
 Computing Diagnostic #    30 "UVEL    " (list#  1) Parms "UUR     MR      ", Count=     144
             Vector  Mate for "UVEL    " :  Diagnostic #     31 "VVEL    " exists
 Computing Diagnostic #    32 "WVEL    " (list#  1) Parms "WM      LR      ", Count=     144
 Computing Diagnostic #    31 "VVEL    " (list#  1) Parms "VVR     MR      ", Count=     144
             Vector  Mate for "VVEL    " :  Diagnostic #     30 "UVEL    " exists
 Computing Diagnostic #   197 "BRGfwFlx" (list#  2) Parms "SM      MR      ", Count=     144
 Computing Diagnostic #   198 "BRGhtFlx" (list#  2) Parms "SM      MR      ", Count=     144
 Computing Diagnostic #   199 "BRGmltRt" (list#  2) Parms "SM      MR      ", Count=     144
 Computing Diagnostic #   201 "BRG_TauX" (list#  2) Parms "UU      MR      ", Count=    1728
 Computing Diagnostic #   202 "BRG_TauY" (list#  2) Parms "VV      MR      ", Count=    1728
 Computing Diagnostic #   203 "BRGhFacC" (list#  2) Parms "SM      MR      ", Count=    1728
 cg2d: Sum(rhs),rhsMax =   9.42845801432668E-11  1.27056669878110E-02
 cg2d: Sum(rhs),rhsMax =   9.43176925449762E-11  1.27080357399722E-02
 cg2d: Sum(rhs),rhsMax =   9.43487787896657E-11  1.27104114663132E-02
 cg2d: Sum(rhs),rhsMax =   9.43685685150797E-11  1.27127948669224E-02
 cg2d: Sum(rhs),rhsMax =   9.44043732076238E-11  1.27151866231861E-02
 cg2d: Sum(rhs),rhsMax =   9.44352651632840E-11  1.27175873793339E-02
 cg2d: Sum(rhs),rhsMax =   9.44781752831858E-11  1.27199977934981E-02
 cg2d: Sum(rhs),rhsMax =   9.45192535350969E-11  1.27224184792552E-02
 cg2d: Sum(rhs),rhsMax =   9.45430123078239E-11  1.27248500267086E-02
 cg2d: Sum(rhs),rhsMax =   9.45716005507080E-11  1.27272930009168E-02
 cg2d: Sum(rhs),rhsMax =   9.45937495000493E-11  1.27297479115943E-02
 cg2d: Sum(rhs),rhsMax =   9.46244749222558E-11  1.27322152505604E-02
 cg2d: Sum(rhs),rhsMax =   9.46619727049125E-11  1.27346954681240E-02
 cg2d: Sum(rhs),rhsMax =   9.46870637452690E-11  1.27371890361590E-02
 cg2d: Sum(rhs),rhsMax =   9.46956402181343E-11  1.27396963503178E-02
 cg2d: Sum(rhs),rhsMax =   9.47172063003876E-11  1.27422178544061E-02
 cg2d: Sum(rhs),rhsMax =   9.47504297243995E-11  1.27447536928503E-02
 cg2d: Sum(rhs),rhsMax =   9.47839307041676E-11  1.27473041178099E-02
 cg2d: Sum(rhs),rhsMax =   9.48074396767140E-11  1.27498692899143E-02
 cg2d: Sum(rhs),rhsMax =   9.48441325476779E-11  1.27524494095649E-02
 cg2d: Sum(rhs),rhsMax =   9.48683354096147E-11  1.27550445874488E-02
 cg2d: Sum(rhs),rhsMax =   9.49189338239620E-11  1.27576548657312E-02
 cg2d: Sum(rhs),rhsMax =   9.49452183540700E-11  1.27602802614415E-02
 cg2d: Sum(rhs),rhsMax =   9.49729461741100E-11  1.27629207303734E-02
 cg2d: Sum(rhs),rhsMax =   9.49969825025931E-11  1.27655761964973E-02
 cg2d: Sum(rhs),rhsMax =   9.50167999835827E-11  1.27682464994153E-02
 cg2d: Sum(rhs),rhsMax =   9.50572676128303E-11  1.27709314802401E-02
 cg2d: Sum(rhs),rhsMax =   9.50884926353979E-11  1.27736309074601E-02
 cg2d: Sum(rhs),rhsMax =   9.51062839593675E-11  1.27763445034910E-02
 cg2d: Sum(rhs),rhsMax =   9.51306811103336E-11  1.27790719506607E-02
 cg2d: Sum(rhs),rhsMax =   9.51496659240547E-11  1.27818128750681E-02
 cg2d: Sum(rhs),rhsMax =   9.51775047663972E-11  1.27845668711058E-02
 cg2d: Sum(rhs),rhsMax =   9.51985712482895E-11  1.27873334848450E-02
 cg2d: Sum(rhs),rhsMax =   9.52452561264749E-11  1.27901122246836E-02
 cg2d: Sum(rhs),rhsMax =   9.52727341463344E-11  1.27929025587462E-02
 cg2d: Sum(rhs),rhsMax =   9.53075396381564E-11  1.27957039204546E-02
 cg2d: Sum(rhs),rhsMax =   9.53285506088974E-11  1.27985157071763E-02
 cg2d: Sum(rhs),rhsMax =   9.53422896188272E-11  1.28013372888264E-02
 cg2d: Sum(rhs),rhsMax =   9.53635226341731E-11  1.28041680020188E-02
 cg2d: Sum(rhs),rhsMax =   9.53879197851393E-11  1.28070071567426E-02
 cg2d: Sum(rhs),rhsMax =   9.54168133393551E-11  1.28098538981911E-02
 cg2d: Sum(rhs),rhsMax =   9.54294976374115E-11  1.28127073965677E-02
 cg2d: Sum(rhs),rhsMax =   9.54604728597985E-11  1.28155668973410E-02
 cg2d: Sum(rhs),rhsMax =   9.54897549920730E-11  1.28184316152700E-02
 cg2d: Sum(rhs),rhsMax =   9.55161227889079E-11  1.28213007585724E-02
 cg2d: Sum(rhs),rhsMax =   9.55514556366666E-11  1.28241735229744E-02
 cg2d: Sum(rhs),rhsMax =   9.55829304594147E-11  1.28270490930982E-02
 cg2d: Sum(rhs),rhsMax =   9.55958090465003E-11  1.28299266492331E-02
 cg2d: Sum(rhs),rhsMax =   9.56192625078955E-11  1.28328053672275E-02
 cg2d: Sum(rhs),rhsMax =   9.56515422423365E-11  1.28356842059095E-02
 cg2d: Sum(rhs),rhsMax =   9.56810464192159E-11  1.28385622238310E-02
 cg2d: Sum(rhs),rhsMax =   9.57124934863884E-11  1.28414386078782E-02
 cg2d: Sum(rhs),rhsMax =   9.57293688763627E-11  1.28443125429254E-02
 cg2d: Sum(rhs),rhsMax =   9.57608436991109E-11  1.28471832360150E-02
 cg2d: Sum(rhs),rhsMax =   9.57993961936410E-11  1.28500498834461E-02
 cg2d: Sum(rhs),rhsMax =   9.58253199012660E-11  1.28529117041003E-02
 cg2d: Sum(rhs),rhsMax =   9.58584600585510E-11  1.28557679473886E-02
 cg2d: Sum(rhs),rhsMax =   9.58934875949780E-11  1.28586178688469E-02
 cg2d: Sum(rhs),rhsMax =   9.59206603035057E-11  1.28614607397347E-02
 cg2d: Sum(rhs),rhsMax =   9.59492485463898E-11  1.28642958495199E-02
 cg2d: Sum(rhs),rhsMax =   9.59728130300874E-11  1.28671225171777E-02
 cg2d: Sum(rhs),rhsMax =   9.60055368537382E-11  1.28699400833979E-02
 cg2d: Sum(rhs),rhsMax =   9.60254376014547E-11  1.28727479090385E-02
 cg2d: Sum(rhs),rhsMax =   9.60591051146764E-11  1.28755453851684E-02
 cg2d: Sum(rhs),rhsMax =   9.60836687990962E-11  1.28783319262903E-02
 cg2d: Sum(rhs),rhsMax =   9.61107027297459E-11  1.28811069753418E-02
 cg2d: Sum(rhs),rhsMax =   9.61385138165127E-11  1.28838700011647E-02
 cg2d: Sum(rhs),rhsMax =   9.61632995455375E-11  1.28866205038135E-02
 cg2d: Sum(rhs),rhsMax =   9.61916657438167E-11  1.28893580131425E-02
 cg2d: Sum(rhs),rhsMax =   9.62189217190712E-11  1.28920820841621E-02
 cg2d: Sum(rhs),rhsMax =   9.62463997389307E-11  1.28947923048437E-02
 cg2d: Sum(rhs),rhsMax =   9.62790402958547E-11  1.28974882885278E-02
 cg2d: Sum(rhs),rhsMax =   9.63019664013132E-11  1.29001696862118E-02
 cg2d: Sum(rhs),rhsMax =   9.63139845655547E-11  1.29028361710663E-02
 cg2d: Sum(rhs),rhsMax =   9.63469026782349E-11  1.29054874490486E-02
 cg2d: Sum(rhs),rhsMax =   9.63713830959279E-11  1.29081232535361E-02
 cg2d: Sum(rhs),rhsMax =   9.64104351908190E-11  1.29107433498022E-02
 cg2d: Sum(rhs),rhsMax =   9.64457402830021E-11  1.29133475262778E-02
 cg2d: Sum(rhs),rhsMax =   9.64630320066107E-11  1.29159356027286E-02
 cg2d: Sum(rhs),rhsMax =   9.64978930095839E-11  1.29185074252871E-02
 cg2d: Sum(rhs),rhsMax =   9.65083568615910E-11  1.29210628697658E-02
 cg2d: Sum(rhs),rhsMax =   9.65426905086275E-11  1.29236018315275E-02
 cg2d: Sum(rhs),rhsMax =   9.65651447693006E-11  1.29261242504691E-02
 cg2d: Sum(rhs),rhsMax =   9.66020041737181E-11  1.29286300709533E-02
 cg2d: Sum(rhs),rhsMax =   9.66358382203936E-11  1.29311192838602E-02
 cg2d: Sum(rhs),rhsMax =   9.66642876853996E-11  1.29335919043109E-02
 cg2d: Sum(rhs),rhsMax =   9.66757507381288E-11  1.29360479083510E-02
 cg2d: Sum(rhs),rhsMax =   9.67049218481009E-11  1.29384873733334E-02
 cg2d: Sum(rhs),rhsMax =   9.67416147190647E-11  1.29409103495328E-02
 cg2d: Sum(rhs),rhsMax =   9.67802782358973E-11  1.29433169079688E-02
 cg2d: Sum(rhs),rhsMax =   9.68240487786431E-11  1.29457071411812E-02
 cg2d: Sum(rhs),rhsMax =   9.68422009250958E-11  1.29480811598271E-02
 cg2d: Sum(rhs),rhsMax =   9.68659596978227E-11  1.29504390893896E-02
 cg2d: Sum(rhs),rhsMax =   9.68866653572320E-11  1.29527810748232E-02
 cg2d: Sum(rhs),rhsMax =   9.69176960907703E-11  1.29551072666120E-02
 cg2d: Sum(rhs),rhsMax =   9.69605229439452E-11  1.29574178302528E-02
 cg2d: Sum(rhs),rhsMax =   9.69881397416827E-11  1.29597129404239E-02
 cg2d: Sum(rhs),rhsMax =   9.70020452850662E-11  1.29619927737086E-02
 cg2d: Sum(rhs),rhsMax =   9.70403479794157E-11  1.29642575481382E-02
 cg2d: Sum(rhs),rhsMax =   9.70652447307430E-11  1.29665075009205E-02
 cg2d: Sum(rhs),rhsMax =   9.70955538193152E-11  1.29687428227371E-02
 cg2d: Sum(rhs),rhsMax =   9.71285274431466E-11  1.29709637336945E-02
 cg2d: Sum(rhs),rhsMax =   9.71581703979041E-11  1.29731706415321E-02
 cg2d: Sum(rhs),rhsMax =   9.71892566425936E-11  1.29753647679963E-02
 cg2d: Sum(rhs),rhsMax =   9.72196212423171E-11  1.29775464320981E-02
 cg2d: Sum(rhs),rhsMax =   9.72451563718835E-11  1.29797158972097E-02
 cg2d: Sum(rhs),rhsMax =   9.72685820777031E-11  1.29818733896973E-02
 cg2d: Sum(rhs),rhsMax =   9.73026659245591E-11  1.29840191853827E-02
 cg2d: Sum(rhs),rhsMax =   9.73320313235604E-11  1.29861536143701E-02
 cg2d: Sum(rhs),rhsMax =   9.73635616574597E-11  1.29882768689073E-02
 cg2d: Sum(rhs),rhsMax =   9.74135216935679E-11  1.29903892853467E-02
 cg2d: Sum(rhs),rhsMax =   9.74416936028177E-11  1.29924911894241E-02
 cg2d: Sum(rhs),rhsMax =   9.74820502097629E-11  1.29945828614259E-02
 cg2d: Sum(rhs),rhsMax =   9.75136082992378E-11  1.29966645752854E-02
 cg2d: Sum(rhs),rhsMax =   9.75506342371091E-11  1.29987366281487E-02
 cg2d: Sum(rhs),rhsMax =   9.75821090598572E-11  1.30007993245146E-02
 cg2d: Sum(rhs),rhsMax =   9.76159153509570E-11  1.30028529669699E-02
 cg2d: Sum(rhs),rhsMax =   9.76432823485140E-11  1.30048978589171E-02
 cg2d: Sum(rhs),rhsMax =   9.76661529428213E-11  1.30069343132420E-02
 cg2d: Sum(rhs),rhsMax =   9.77086467290889E-11  1.30089626155457E-02
 cg2d: Sum(rhs),rhsMax =   9.77491698694877E-11  1.30109830620093E-02
 cg2d: Sum(rhs),rhsMax =   9.77714853522826E-11  1.30129959793120E-02
 cg2d: Sum(rhs),rhsMax =   9.78013781072207E-11  1.30150016905689E-02
 cg2d: Sum(rhs),rhsMax =   9.78267467033334E-11  1.30169983449775E-02
 cg2d: Sum(rhs),rhsMax =   9.78566672138470E-11  1.30189878941272E-02
 cg2d: Sum(rhs),rhsMax =   9.78953862418308E-11  1.30209711320162E-02
 cg2d: Sum(rhs),rhsMax =   9.79253345079201E-11  1.30229485223674E-02
 cg2d: Sum(rhs),rhsMax =   9.79607783779812E-11  1.30249204713711E-02
 cg2d: Sum(rhs),rhsMax =   9.79984426940916E-11  1.30268873647798E-02
 cg2d: Sum(rhs),rhsMax =   9.80411862805397E-11  1.30288495874296E-02
 cg2d: Sum(rhs),rhsMax =   9.80746595047322E-11  1.30308075407599E-02
 cg2d: Sum(rhs),rhsMax =   9.80894809821109E-11  1.30327615915387E-02
 cg2d: Sum(rhs),rhsMax =   9.81152381562822E-11  1.30347121568135E-02
 cg2d: Sum(rhs),rhsMax =   9.81466019567279E-11  1.30366596545909E-02
 cg2d: Sum(rhs),rhsMax =   9.81725256643529E-11  1.30386044957436E-02
 cg2d: Sum(rhs),rhsMax =   9.82179060304844E-11  1.30405470971571E-02
 cg2d: Sum(rhs),rhsMax =   9.82521564107941E-11  1.30424878862439E-02
 cg2d: Sum(rhs),rhsMax =   9.82795789195023E-11  1.30444272883390E-02
 cg2d: Sum(rhs),rhsMax =   9.83137737886608E-11  1.30463657799667E-02
 cg2d: Sum(rhs),rhsMax =   9.83255699082974E-11  1.30483038018883E-02
 cg2d: Sum(rhs),rhsMax =   9.83832737500023E-11  1.30502417883266E-02
 cg2d: Sum(rhs),rhsMax =   9.84258508029967E-11  1.30521801898849E-02
 cg2d: Sum(rhs),rhsMax =   9.84491932420894E-11  1.30541194805740E-02
 cg2d: Sum(rhs),rhsMax =   9.84633208300778E-11  1.30560601297179E-02
 Computing Diagnostic #    26 "THETA   " (list#  1) Parms "SMR     MR      ", Count=     144
 Computing Diagnostic #    27 "SALT    " (list#  1) Parms "SMR     MR      ", Count=     144
 Computing Diagnostic #    30 "UVEL    " (list#  1) Parms "UUR     MR      ", Count=     144
             Vector  Mate for "UVEL    " :  Diagnostic #     31 "VVEL    " exists
 Computing Diagnostic #    32 "WVEL    " (list#  1) Parms "WM      LR      ", Count=     144
 Computing Diagnostic #    31 "VVEL    " (list#  1) Parms "VVR     MR      ", Count=     144
             Vector  Mate for "VVEL    " :  Diagnostic #     30 "UVEL    " exists
 Computing Diagnostic #   197 "BRGfwFlx" (list#  2) Parms "SM      MR      ", Count=     144
 Computing Diagnostic #   198 "BRGhtFlx" (list#  2) Parms "SM      MR      ", Count=     144
 Computing Diagnostic #   199 "BRGmltRt" (list#  2) Parms "SM      MR      ", Count=     144
 Computing Diagnostic #   201 "BRG_TauX" (list#  2) Parms "UU      MR      ", Count=    1728
 Computing Diagnostic #   202 "BRG_TauY" (list#  2) Parms "VV      MR      ", Count=    1728
 Computing Diagnostic #   203 "BRGhFacC" (list#  2) Parms "SM      MR      ", Count=    1728
 cg2d: Sum(rhs),rhsMax =   9.84964609873629E-11  1.30580026232968E-02
 cg2d: Sum(rhs),rhsMax =   9.85347914372880E-11  1.30599883817004E-02
 cg2d: Sum(rhs),rhsMax =   9.85879711201676E-11  1.30614199098059E-02
 cg2d: Sum(rhs),rhsMax =   9.86222770116285E-11  1.30624718932293E-02
 cg2d: Sum(rhs),rhsMax =   9.86797588087285E-11  1.30635276315230E-02
 cg2d: Sum(rhs),rhsMax =   9.87340487146326E-11  1.30645997007506E-02
 cg2d: Sum(rhs),rhsMax =   9.87686044062741E-11  1.30656846809863E-02
 cg2d: Sum(rhs),rhsMax =   9.88075177232872E-11  1.30667848507196E-02
 cg2d: Sum(rhs),rhsMax =   9.88522319556040E-11  1.30679029454726E-02
 cg2d: Sum(rhs),rhsMax =   9.88994719453018E-11  1.30690415514549E-02
 cg2d: Sum(rhs),rhsMax =   9.89395787520664E-11  1.30702031320263E-02
 cg2d: Sum(rhs),rhsMax =   9.89884008095743E-11  1.30713900912557E-02
 cg2d: Sum(rhs),rhsMax =   9.90179882531805E-11  1.30726047555814E-02
 cg2d: Sum(rhs),rhsMax =   9.90552084800811E-11  1.30738493692382E-02
 cg2d: Sum(rhs),rhsMax =   9.90938442413380E-11  1.30751260656695E-02
 cg2d: Sum(rhs),rhsMax =   9.91361714941519E-11  1.30764369025843E-02
 cg2d: Sum(rhs),rhsMax =   9.91817739048884E-11  1.30777838383339E-02
 cg2d: Sum(rhs),rhsMax =   9.92069204563961E-11  1.30791687273586E-02
 cg2d: Sum(rhs),rhsMax =   9.92504967101127E-11  1.30805932441551E-02
 cg2d: Sum(rhs),rhsMax =   9.92746995720495E-11  1.30820590878991E-02
 cg2d: Sum(rhs),rhsMax =   9.93196358489712E-11  1.30835708552190E-02
 cg2d: Sum(rhs),rhsMax =   9.93636284363220E-11  1.30851269911748E-02
 cg2d: Sum(rhs),rhsMax =   9.93951587702213E-11  1.30867285792683E-02
 cg2d: Sum(rhs),rhsMax =   9.94346827098980E-11  1.30883768380144E-02
 cg2d: Sum(rhs),rhsMax =   9.94786475416731E-11  1.30900728124972E-02
 cg2d: Sum(rhs),rhsMax =   9.95168947248715E-11  1.30918173706053E-02
 cg2d: Sum(rhs),rhsMax =   9.95496740596735E-11  1.30936113214298E-02
 cg2d: Sum(rhs),rhsMax =   9.95778182133478E-11  1.30954553428049E-02
 cg2d: Sum(rhs),rhsMax =   9.96195625990737E-11  1.30973499641230E-02
 cg2d: Sum(rhs),rhsMax =   9.96527860230856E-11  1.30992955921637E-02
 cg2d: Sum(rhs),rhsMax =   9.96831228672335E-11  1.31012925165073E-02
 cg2d: Sum(rhs),rhsMax =   9.97071036845654E-11  1.31033409041930E-02
 cg2d: Sum(rhs),rhsMax =   9.97552873638341E-11  1.31054407990128E-02
 cg2d: Sum(rhs),rhsMax =   9.97765481347557E-11  1.31075921256350E-02
 cg2d: Sum(rhs),rhsMax =   9.98005567076632E-11  1.31097946897335E-02
 cg2d: Sum(rhs),rhsMax =   9.98358895554219E-11  1.31120481772090E-02
 cg2d: Sum(rhs),rhsMax =   9.98578719713095E-11  1.31143521580966E-02
 cg2d: Sum(rhs),rhsMax =   9.98972016219568E-11  1.31167061025412E-02
 cg2d: Sum(rhs),rhsMax =   9.99376970067800E-11  1.31191093698293E-02
 cg2d: Sum(rhs),rhsMax =   9.99661187162104E-11  1.31215611966223E-02
 cg2d: Sum(rhs),rhsMax =   1.00007058190243E-10  1.31240607206771E-02
 cg2d: Sum(rhs),rhsMax =   1.00030400629336E-10  1.31266069612055E-02
 cg2d: Sum(rhs),rhsMax =   1.00069869057862E-10  1.31291988585702E-02
 cg2d: Sum(rhs),rhsMax =   1.00094932342643E-10  1.31318352541504E-02
 cg2d: Sum(rhs),rhsMax =   1.00127128810357E-10  1.31345149047161E-02
 cg2d: Sum(rhs),rhsMax =   1.00142172332340E-10  1.31372364704747E-02
 cg2d: Sum(rhs),rhsMax =   1.00173730421815E-10  1.31399985327809E-02
 cg2d: Sum(rhs),rhsMax =   1.00195879371157E-10  1.31427995945050E-02
 cg2d: Sum(rhs),rhsMax =   1.00216779319595E-10  1.31456380915300E-02
 cg2d: Sum(rhs),rhsMax =   1.00249780699002E-10  1.31485123774189E-02
 cg2d: Sum(rhs),rhsMax =   1.00279534676062E-10  1.31514207414335E-02
 cg2d: Sum(rhs),rhsMax =   1.00297131711002E-10  1.31543611500569E-02
 cg2d: Sum(rhs),rhsMax =   1.00323888085896E-10  1.31573319247317E-02
 cg2d: Sum(rhs),rhsMax =   1.00357250287786E-10  1.31603313081063E-02
 cg2d: Sum(rhs),rhsMax =   1.00364938582231E-10  1.31633573694245E-02
 cg2d: Sum(rhs),rhsMax =   1.00385005863401E-10  1.31664081464141E-02
 cg2d: Sum(rhs),rhsMax =   1.00406016834143E-10  1.31694816442597E-02
 cg2d: Sum(rhs),rhsMax =   1.00438851680096E-10  1.31725758363193E-02
 cg2d: Sum(rhs),rhsMax =   1.00465441521536E-10  1.31756886653351E-02
 cg2d: Sum(rhs),rhsMax =   1.00498026567308E-10  1.31788180555810E-02
 cg2d: Sum(rhs),rhsMax =   1.00534580660394E-10  1.31819619196158E-02
 cg2d: Sum(rhs),rhsMax =   1.00552510762242E-10  1.31851181595214E-02
 cg2d: Sum(rhs),rhsMax =   1.00578240180837E-10  1.31882846719646E-02
 cg2d: Sum(rhs),rhsMax =   1.00610714204308E-10  1.31914593596802E-02
 cg2d: Sum(rhs),rhsMax =   1.00634583999337E-10  1.31946406826015E-02
 cg2d: Sum(rhs),rhsMax =   1.00653402279605E-10  1.31978260203942E-02
 cg2d: Sum(rhs),rhsMax =   1.00672914449262E-10  1.32010132772365E-02
 cg2d: Sum(rhs),rhsMax =   1.00702557404020E-10  1.32042205254031E-02
 cg2d: Sum(rhs),rhsMax =   1.00741498476609E-10  1.32074262216102E-02
 cg2d: Sum(rhs),rhsMax =   1.00761482491052E-10  1.32106272434527E-02
 cg2d: Sum(rhs),rhsMax =   1.00775748856918E-10  1.32138218317723E-02
 cg2d: Sum(rhs),rhsMax =   1.00803199121202E-10  1.32170080048034E-02
 cg2d: Sum(rhs),rhsMax =   1.00828928539798E-10  1.32201837936039E-02
 cg2d: Sum(rhs),rhsMax =   1.00850494622051E-10  1.32233472851864E-02
 cg2d: Sum(rhs),rhsMax =   1.00887992404708E-10  1.32264966178010E-02
 cg2d: Sum(rhs),rhsMax =   1.00927849411292E-10  1.32296300010463E-02
 cg2d: Sum(rhs),rhsMax =   1.00946168091198E-10  1.32327457304894E-02
 cg2d: Sum(rhs),rhsMax =   1.00962377347358E-10  1.32358421614870E-02
 cg2d: Sum(rhs),rhsMax =   1.00983749140582E-10  1.32389176715528E-02
 cg2d: Sum(rhs),rhsMax =   1.01003067021210E-10  1.32419707164089E-02
 cg2d: Sum(rhs),rhsMax =   1.01029601351499E-10  1.32449998673564E-02
 cg2d: Sum(rhs),rhsMax =   1.01061908841515E-10  1.32480344230625E-02
 cg2d: Sum(rhs),rhsMax =   1.01075786629323E-10  1.32510422390135E-02
 cg2d: Sum(rhs),rhsMax =   1.01101849114826E-10  1.32540217127572E-02
 cg2d: Sum(rhs),rhsMax =   1.01109010053335E-10  1.32569716593176E-02
 cg2d: Sum(rhs),rhsMax =   1.01146702125021E-10  1.32598757480142E-02
 cg2d: Sum(rhs),rhsMax =   1.01186559131605E-10  1.32627213815200E-02
 cg2d: Sum(rhs),rhsMax =   1.01208180725010E-10  1.32655346284803E-02
 cg2d: Sum(rhs),rhsMax =   1.01233660343425E-10  1.32683150155937E-02
 cg2d: Sum(rhs),rhsMax =   1.01251868001029E-10  1.32710620912023E-02
 cg2d: Sum(rhs),rhsMax =   1.01298663901517E-10  1.32737756128645E-02
 cg2d: Sum(rhs),rhsMax =   1.01328362367425E-10  1.32764553931452E-02
 cg2d: Sum(rhs),rhsMax =   1.01365249527419E-10  1.32791013318977E-02
 cg2d: Sum(rhs),rhsMax =   1.01398806018338E-10  1.32817134201778E-02
 cg2d: Sum(rhs),rhsMax =   1.01427338750071E-10  1.32842917415076E-02
 cg2d: Sum(rhs),rhsMax =   1.01455455148169E-10  1.32868378161440E-02
 cg2d: Sum(rhs),rhsMax =   1.01479658010106E-10  1.32893505262092E-02
 cg2d: Sum(rhs),rhsMax =   1.01510772010371E-10  1.32918301773069E-02
 cg2d: Sum(rhs),rhsMax =   1.01534836094430E-10  1.32942771430391E-02
 cg2d: Sum(rhs),rhsMax =   1.01562813714651E-10  1.32966919510234E-02
 cg2d: Sum(rhs),rhsMax =   1.01586627998529E-10  1.32990750864863E-02
 cg2d: Sum(rhs),rhsMax =   1.01597841251078E-10  1.33014271333188E-02
 cg2d: Sum(rhs),rhsMax =   1.01615216241413E-10  1.33037487557610E-02
 cg2d: Sum(rhs),rhsMax =   1.01644137551204E-10  1.33060406683029E-02
 cg2d: Sum(rhs),rhsMax =   1.01677777308851E-10  1.33083036314505E-02
 cg2d: Sum(rhs),rhsMax =   1.01702007926363E-10  1.33105384519946E-02
 cg2d: Sum(rhs),rhsMax =   1.01744140890148E-10  1.33127459837180E-02
 cg2d: Sum(rhs),rhsMax =   1.01773145466666E-10  1.33149271089128E-02
 cg2d: Sum(rhs),rhsMax =   1.01828240284263E-10  1.33170827646868E-02
 cg2d: Sum(rhs),rhsMax =   1.01856745260420E-10  1.33192139123823E-02
 cg2d: Sum(rhs),rhsMax =   1.01879227276669E-10  1.33213215376706E-02
 cg2d: Sum(rhs),rhsMax =   1.01915365036120E-10  1.33234066325240E-02
 cg2d: Sum(rhs),rhsMax =   1.01946923125595E-10  1.33254702123745E-02
 cg2d: Sum(rhs),rhsMax =   1.01983615996559E-10  1.33275133108104E-02
 cg2d: Sum(rhs),rhsMax =   1.02022723602602E-10  1.33295369786262E-02
 cg2d: Sum(rhs),rhsMax =   1.02055114359345E-10  1.33315422613317E-02
 cg2d: Sum(rhs),rhsMax =   1.02098413057305E-10  1.33335302068322E-02
 cg2d: Sum(rhs),rhsMax =   1.02125086165472E-10  1.33355018573965E-02
 cg2d: Sum(rhs),rhsMax =   1.02148733915897E-10  1.33374582531372E-02
 cg2d: Sum(rhs),rhsMax =   1.02178210337200E-10  1.33394004302961E-02
 cg2d: Sum(rhs),rhsMax =   1.02226366260894E-10  1.33413293872196E-02
 cg2d: Sum(rhs),rhsMax =   1.02242853072809E-10  1.33432461336237E-02
 cg2d: Sum(rhs),rhsMax =   1.02257813328066E-10  1.33451516502220E-02
 cg2d: Sum(rhs),rhsMax =   1.02299779758397E-10  1.33470468913952E-02
 cg2d: Sum(rhs),rhsMax =   1.02311825678214E-10  1.33489327853703E-02
 cg2d: Sum(rhs),rhsMax =   1.02337388563356E-10  1.33508102310022E-02
 cg2d: Sum(rhs),rhsMax =   1.02378439059692E-10  1.33526800956544E-02
 cg2d: Sum(rhs),rhsMax =   1.02426150894175E-10  1.33545432117826E-02
 cg2d: Sum(rhs),rhsMax =   1.02462788253987E-10  1.33564003820309E-02
 cg2d: Sum(rhs),rhsMax =   1.02492736520077E-10  1.33582523408546E-02
 cg2d: Sum(rhs),rhsMax =   1.02530955947699E-10  1.33600998396933E-02
 cg2d: Sum(rhs),rhsMax =   1.02556491077266E-10  1.33619435218527E-02
 cg2d: Sum(rhs),rhsMax =   1.02582164984710E-10  1.33637840138451E-02
 cg2d: Sum(rhs),rhsMax =   1.02628794351745E-10  1.33656219113178E-02
 cg2d: Sum(rhs),rhsMax =   1.02664959866772E-10  1.33674577638926E-02
 cg2d: Sum(rhs),rhsMax =   1.02698100024057E-10  1.33692920786486E-02
 cg2d: Sum(rhs),rhsMax =   1.02717445660261E-10  1.33711253081645E-02
 cg2d: Sum(rhs),rhsMax =   1.02753167086078E-10  1.33729578650531E-02
 cg2d: Sum(rhs),rhsMax =   1.02782227173748E-10  1.33747901192511E-02
 cg2d: Sum(rhs),rhsMax =   1.02807096169499E-10  1.33766223953698E-02
 cg2d: Sum(rhs),rhsMax =   1.02836239523896E-10  1.33784549733021E-02
 cg2d: Sum(rhs),rhsMax =   1.02868047413551E-10  1.33802880887442E-02
 cg2d: Sum(rhs),rhsMax =   1.02901104304109E-10  1.33821219402405E-02
 cg2d: Sum(rhs),rhsMax =   1.02945318936065E-10  1.33839566797152E-02
 Computing Diagnostic #    26 "THETA   " (list#  1) Parms "SMR     MR      ", Count=     144
 Computing Diagnostic #    27 "SALT    " (list#  1) Parms "SMR     MR      ", Count=     144
 Computing Diagnostic #    30 "UVEL    " (list#  1) Parms "UUR     MR      ", Count=     144
             Vector  Mate for "UVEL    " :  Diagnostic #     31 "VVEL    " exists
 Computing Diagnostic #    32 "WVEL    " (list#  1) Parms "WM      LR      ", Count=     144
 Computing Diagnostic #    31 "VVEL    " (list#  1) Parms "VVR     MR      ", Count=     144
             Vector  Mate for "VVEL    " :  Diagnostic #     30 "UVEL    " exists
 Computing Diagnostic #   197 "BRGfwFlx" (list#  2) Parms "SM      MR      ", Count=     144
 Computing Diagnostic #   198 "BRGhtFlx" (list#  2) Parms "SM      MR      ", Count=     144
 Computing Diagnostic #   199 "BRGmltRt" (list#  2) Parms "SM      MR      ", Count=     144
 Computing Diagnostic #   201 "BRG_TauX" (list#  2) Parms "UU      MR      ", Count=    1728
 Computing Diagnostic #   202 "BRG_TauY" (list#  2) Parms "VV      MR      ", Count=    1728
 Computing Diagnostic #   203 "BRGhFacC" (list#  2) Parms "SM      MR      ", Count=    1728
 cg2d: Sum(rhs),rhsMax =   1.02977376625901E-10  1.33857924171444E-02
 cg2d: Sum(rhs),rhsMax =   1.03012709473660E-10  1.33876292275183E-02
 cg2d: Sum(rhs),rhsMax =   1.03047625987784E-10  1.33894671416287E-02
 cg2d: Sum(rhs),rhsMax =   1.03085373570622E-10  1.33913061664884E-02
 cg2d: Sum(rhs),rhsMax =   1.03124064843030E-10  1.33931462504227E-02
 cg2d: Sum(rhs),rhsMax =   1.03146269303522E-10  1.33949873165920E-02
 cg2d: Sum(rhs),rhsMax =   1.03185321398414E-10  1.33968292807352E-02
 cg2d: Sum(rhs),rhsMax =   1.03202973944505E-10  1.33986719845424E-02
 cg2d: Sum(rhs),rhsMax =   1.03225206160573E-10  1.34005152776576E-02
 cg2d: Sum(rhs),rhsMax =   1.03259706341063E-10  1.34023589750164E-02
 cg2d: Sum(rhs),rhsMax =   1.03297342901598E-10  1.34042028637173E-02
 cg2d: Sum(rhs),rhsMax =   1.03341502022403E-10  1.34060467092857E-02
 cg2d: Sum(rhs),rhsMax =   1.03370451087770E-10  1.34078902568408E-02
 cg2d: Sum(rhs),rhsMax =   1.03403063889118E-10  1.34097332416246E-02
 cg2d: Sum(rhs),rhsMax =   1.03431013753763E-10  1.34115753895117E-02
 cg2d: Sum(rhs),rhsMax =   1.03471065049376E-10  1.34134164104944E-02
 cg2d: Sum(rhs),rhsMax =   1.03506592186164E-10  1.34152560026813E-02
 cg2d: Sum(rhs),rhsMax =   1.03547170837714E-10  1.34170938719646E-02
 cg2d: Sum(rhs),rhsMax =   1.03591607514275E-10  1.34189297019600E-02
 cg2d: Sum(rhs),rhsMax =   1.03616198954271E-10  1.34207631926615E-02
 cg2d: Sum(rhs),rhsMax =   1.03641983884017E-10  1.34225940556108E-02
 cg2d: Sum(rhs),rhsMax =   1.03669045570243E-10  1.34244219938307E-02
 cg2d: Sum(rhs),rhsMax =   1.03687669561481E-10  1.34262467077910E-02
 cg2d: Sum(rhs),rhsMax =   1.03720226851678E-10  1.34280679032442E-02
 cg2d: Sum(rhs),rhsMax =   1.03750064095465E-10  1.34298852942369E-02
 cg2d: Sum(rhs),rhsMax =   1.03784397742501E-10  1.34316986117451E-02
 cg2d: Sum(rhs),rhsMax =   1.03834524312063E-10  1.34335075926585E-02
 cg2d: Sum(rhs),rhsMax =   1.03865194223118E-10  1.34353119973501E-02
 cg2d: Sum(rhs),rhsMax =   1.03898223358101E-10  1.34371116040202E-02
 cg2d: Sum(rhs),rhsMax =   1.03931308004235E-10  1.34389062109308E-02
 cg2d: Sum(rhs),rhsMax =   1.03965502873393E-10  1.34406956136344E-02
 cg2d: Sum(rhs),rhsMax =   1.03995423383907E-10  1.34424796657462E-02
 cg2d: Sum(rhs),rhsMax =   1.04028063940831E-10  1.34442582378183E-02
 cg2d: Sum(rhs),rhsMax =   1.04060787764482E-10  1.34460311885116E-02
 cg2d: Sum(rhs),rhsMax =   1.04099617814768E-10  1.34477984316275E-02
 cg2d: Sum(rhs),rhsMax =   1.04132646949751E-10  1.34495598974815E-02
 cg2d: Sum(rhs),rhsMax =   1.04173558668208E-10  1.34513155390137E-02
 cg2d: Sum(rhs),rhsMax =   1.04199260331228E-10  1.34530653295294E-02
 cg2d: Sum(rhs),rhsMax =   1.04220826413481E-10  1.34548093009249E-02
 cg2d: Sum(rhs),rhsMax =   1.04261849154241E-10  1.34565474833405E-02
 cg2d: Sum(rhs),rhsMax =   1.04295877489946E-10  1.34582799376985E-02
 cg2d: Sum(rhs),rhsMax =   1.04332126271700E-10  1.34600067659293E-02
 cg2d: Sum(rhs),rhsMax =   1.04374814346997E-10  1.34617280973696E-02
 cg2d: Sum(rhs),rhsMax =   1.04413117041346E-10  1.34634440869383E-02
 cg2d: Sum(rhs),rhsMax =   1.04440234238723E-10  1.34651549209039E-02
 cg2d: Sum(rhs),rhsMax =   1.04472069883954E-10  1.34668608092013E-02
 cg2d: Sum(rhs),rhsMax =   1.04506375775415E-10  1.34685619957485E-02
 cg2d: Sum(rhs),rhsMax =   1.04546565848906E-10  1.34702587480880E-02
 cg2d: Sum(rhs),rhsMax =   1.04586367344339E-10  1.34719513643057E-02
 cg2d: Sum(rhs),rhsMax =   1.04620978547132E-10  1.34736401642528E-02
 cg2d: Sum(rhs),rhsMax =   1.04661002087170E-10  1.34753254961347E-02
 cg2d: Sum(rhs),rhsMax =   1.04683539614570E-10  1.34770077309587E-02
 cg2d: Sum(rhs),rhsMax =   1.04723341110002E-10  1.34786872562011E-02
 cg2d: Sum(rhs),rhsMax =   1.04779407372746E-10  1.34803645122050E-02
 cg2d: Sum(rhs),rhsMax =   1.04817515778066E-10  1.34820399140924E-02
 cg2d: Sum(rhs),rhsMax =   1.04854569471513E-10  1.34837139203914E-02
 cg2d: Sum(rhs),rhsMax =   1.04879493978416E-10  1.34853870146985E-02
 cg2d: Sum(rhs),rhsMax =   1.04914271714662E-10  1.34870596886119E-02
 cg2d: Sum(rhs),rhsMax =   1.04949438028967E-10  1.34887324490616E-02
 cg2d: Sum(rhs),rhsMax =   1.04973030268241E-10  1.34904058172444E-02
 cg2d: Sum(rhs),rhsMax =   1.05004061001779E-10  1.34920803265712E-02
 cg2d: Sum(rhs),rhsMax =   1.05039116293781E-10  1.34937565231847E-02
 cg2d: Sum(rhs),rhsMax =   1.05068787004114E-10  1.34954349591534E-02
 cg2d: Sum(rhs),rhsMax =   1.05093711511017E-10  1.34971161956836E-02
 cg2d: Sum(rhs),rhsMax =   1.05120356863608E-10  1.34988007932960E-02
 cg2d: Sum(rhs),rhsMax =   1.05141978457013E-10  1.35004893228963E-02
 cg2d: Sum(rhs),rhsMax =   1.05182973442197E-10  1.35021823613155E-02
 cg2d: Sum(rhs),rhsMax =   1.05221609203454E-10  1.35038804652225E-02
 cg2d: Sum(rhs),rhsMax =   1.05246533710357E-10  1.35055842061731E-02
 cg2d: Sum(rhs),rhsMax =   1.05302377928496E-10  1.35072941643320E-02
 cg2d: Sum(rhs),rhsMax =   1.05320197008041E-10  1.35090108898489E-02
 cg2d: Sum(rhs),rhsMax =   1.05358888280449E-10  1.35107349269648E-02
 cg2d: Sum(rhs),rhsMax =   1.05400188576965E-10  1.35124668169615E-02
 cg2d: Sum(rhs),rhsMax =   1.05422254259580E-10  1.35142070966433E-02
 cg2d: Sum(rhs),rhsMax =   1.05471159583814E-10  1.35159562705328E-02
 cg2d: Sum(rhs),rhsMax =   1.05511516190759E-10  1.35177148469178E-02
 cg2d: Sum(rhs),rhsMax =   1.05541242412244E-10  1.35194832960362E-02
 cg2d: Sum(rhs),rhsMax =   1.05570829855850E-10  1.35212620834832E-02
 cg2d: Sum(rhs),rhsMax =   1.05597836030924E-10  1.35230516535270E-02
 cg2d: Sum(rhs),rhsMax =   1.05645964199041E-10  1.35248524389000E-02
 cg2d: Sum(rhs),rhsMax =   1.05686320805987E-10  1.35266648440597E-02
 cg2d: Sum(rhs),rhsMax =   1.05710523667923E-10  1.35284892577103E-02
 cg2d: Sum(rhs),rhsMax =   1.05752157031347E-10  1.35303260413582E-02
 cg2d: Sum(rhs),rhsMax =   1.05787073545471E-10  1.35321755364610E-02
 cg2d: Sum(rhs),rhsMax =   1.05819963902576E-10  1.35340379754335E-02
 cg2d: Sum(rhs),rhsMax =   1.05860542554126E-10  1.35359123291617E-02
 cg2d: Sum(rhs),rhsMax =   1.05894654156558E-10  1.35377988324070E-02
 cg2d: Sum(rhs),rhsMax =   1.05940645145353E-10  1.35396977672540E-02
 cg2d: Sum(rhs),rhsMax =   1.05980280107332E-10  1.35416093611958E-02
 cg2d: Sum(rhs),rhsMax =   1.06010006328816E-10  1.35435338160020E-02
 cg2d: Sum(rhs),rhsMax =   1.06037956193461E-10  1.35454713128919E-02
 cg2d: Sum(rhs),rhsMax =   1.06071235128624E-10  1.35474219966376E-02
 cg2d: Sum(rhs),rhsMax =   1.06105818575841E-10  1.35493860341034E-02
 cg2d: Sum(rhs),rhsMax =   1.06124775633987E-10  1.35513635066406E-02
 cg2d: Sum(rhs),rhsMax =   1.06157777013394E-10  1.35533544977330E-02
 cg2d: Sum(rhs),rhsMax =   1.06185643611312E-10  1.35553590822586E-02
 cg2d: Sum(rhs),rhsMax =   1.06214204098620E-10  1.35573773087405E-02
 cg2d: Sum(rhs),rhsMax =   1.06253728038297E-10  1.35594091923693E-02
 cg2d: Sum(rhs),rhsMax =   1.06286340839645E-10  1.35614547032161E-02
 cg2d: Sum(rhs),rhsMax =   1.06317676884515E-10  1.35635138107801E-02
 cg2d: Sum(rhs),rhsMax =   1.06355202422748E-10  1.35655864619200E-02
 cg2d: Sum(rhs),rhsMax =   1.06385955600530E-10  1.35676725759283E-02
 cg2d: Sum(rhs),rhsMax =   1.06421371715015E-10  1.35697720478604E-02
 cg2d: Sum(rhs),rhsMax =   1.06442910041693E-10  1.35718847523947E-02
 cg2d: Sum(rhs),rhsMax =   1.06475994687827E-10  1.35740105432362E-02
 cg2d: Sum(rhs),rhsMax =   1.06492897833377E-10  1.35761492551120E-02
 cg2d: Sum(rhs),rhsMax =   1.06533254440322E-10  1.35783006945271E-02
 cg2d: Sum(rhs),rhsMax =   1.06553099676887E-10  1.35804646559529E-02
 cg2d: Sum(rhs),rhsMax =   1.06589737036700E-10  1.35826409124112E-02
 cg2d: Sum(rhs),rhsMax =   1.06625014373307E-10  1.35848292177896E-02
 cg2d: Sum(rhs),rhsMax =   1.06652964237952E-10  1.35870294721285E-02
 cg2d: Sum(rhs),rhsMax =   1.06697040092030E-10  1.35892416815323E-02
 cg2d: Sum(rhs),rhsMax =   1.06729569626651E-10  1.35914655388997E-02
 cg2d: Sum(rhs),rhsMax =   1.06747055639289E-10  1.35937007379742E-02
 cg2d: Sum(rhs),rhsMax =   1.06772535257704E-10  1.35959469652079E-02
 cg2d: Sum(rhs),rhsMax =   1.06801317789618E-10  1.35982038860738E-02
 cg2d: Sum(rhs),rhsMax =   1.06841063773899E-10  1.36004711417479E-02
 cg2d: Sum(rhs),rhsMax =   1.06865655213895E-10  1.36027483609877E-02
 cg2d: Sum(rhs),rhsMax =   1.06880004846488E-10  1.36050351674306E-02
 cg2d: Sum(rhs),rhsMax =   1.06924219478444E-10  1.36073311761762E-02
 cg2d: Sum(rhs),rhsMax =   1.06938680133339E-10  1.36096359900013E-02
 cg2d: Sum(rhs),rhsMax =   1.06965519774960E-10  1.36119492058966E-02
 cg2d: Sum(rhs),rhsMax =   1.06995384774322E-10  1.36142704094389E-02
 cg2d: Sum(rhs),rhsMax =   1.07017172901180E-10  1.36165991819770E-02
 cg2d: Sum(rhs),rhsMax =   1.07057335219096E-10  1.36189350652374E-02
 cg2d: Sum(rhs),rhsMax =   1.07101993940262E-10  1.36212775303890E-02
 cg2d: Sum(rhs),rhsMax =   1.07134717763913E-10  1.36236261364972E-02
 cg2d: Sum(rhs),rhsMax =   1.07152092754248E-10  1.36259804501401E-02
 cg2d: Sum(rhs),rhsMax =   1.07190756271081E-10  1.36283400293016E-02
 cg2d: Sum(rhs),rhsMax =   1.07210601507646E-10  1.36307044323178E-02
 cg2d: Sum(rhs),rhsMax =   1.07244407798746E-10  1.36330732282560E-02
 cg2d: Sum(rhs),rhsMax =   1.07275244243255E-10  1.36354459761849E-02
 cg2d: Sum(rhs),rhsMax =   1.07305914154310E-10  1.36378222421418E-02
 cg2d: Sum(rhs),rhsMax =   1.07333364418594E-10  1.36402015542514E-02
 cg2d: Sum(rhs),rhsMax =   1.07367226220845E-10  1.36425834750639E-02
 cg2d: Sum(rhs),rhsMax =   1.07404057869687E-10  1.36449676282493E-02
 cg2d: Sum(rhs),rhsMax =   1.07424596995642E-10  1.36473535993835E-02
 cg2d: Sum(rhs),rhsMax =   1.07465619736402E-10  1.36497409487654E-02
 cg2d: Sum(rhs),rhsMax =   1.07492043044388E-10  1.36521292570913E-02
 cg2d: Sum(rhs),rhsMax =   1.07520242709214E-10  1.36545181128877E-02
 cg2d: Sum(rhs),rhsMax =   1.07547581951195E-10  1.36569071229496E-02
 cg2d: Sum(rhs),rhsMax =   1.07593822740171E-10  1.36592959006154E-02
 cg2d: Sum(rhs),rhsMax =   1.07623909784138E-10  1.36616840632288E-02
 cg2d: Sum(rhs),rhsMax =   1.07651637604178E-10  1.36640712399808E-02
 Computing Diagnostic #    26 "THETA   " (list#  1) Parms "SMR     MR      ", Count=     144
 Computing Diagnostic #    27 "SALT    " (list#  1) Parms "SMR     MR      ", Count=     144
 Computing Diagnostic #    30 "UVEL    " (list#  1) Parms "UUR     MR      ", Count=     144
             Vector  Mate for "UVEL    " :  Diagnostic #     31 "VVEL    " exists
 Computing Diagnostic #    32 "WVEL    " (list#  1) Parms "WM      LR      ", Count=     144
 Computing Diagnostic #    31 "VVEL    " (list#  1) Parms "VVR     MR      ", Count=     144
             Vector  Mate for "VVEL    " :  Diagnostic #     30 "UVEL    " exists
 Computing Diagnostic #   197 "BRGfwFlx" (list#  2) Parms "SM      MR      ", Count=     144
 Computing Diagnostic #   198 "BRGhtFlx" (list#  2) Parms "SM      MR      ", Count=     144
 Computing Diagnostic #   199 "BRGmltRt" (list#  2) Parms "SM      MR      ", Count=     144
 Computing Diagnostic #   201 "BRG_TauX" (list#  2) Parms "UU      MR      ", Count=    1728
 Computing Diagnostic #   202 "BRG_TauY" (list#  2) Parms "VV      MR      ", Count=    1728
 Computing Diagnostic #   203 "BRGhFacC" (list#  2) Parms "SM      MR      ", Count=    1728
 cg2d: Sum(rhs),rhsMax =   1.07657882608692E-10  1.36664570775607E-02
 cg2d: Sum(rhs),rhsMax =   1.07694853035412E-10  1.36688412225415E-02
 cg2d: Sum(rhs),rhsMax =   1.07728465037482E-10  1.36712233402346E-02
 cg2d: Sum(rhs),rhsMax =   1.07766545687227E-10  1.36736031006343E-02
 cg2d: Sum(rhs),rhsMax =   1.07809816629612E-10  1.36759801921906E-02
 cg2d: Sum(rhs),rhsMax =   1.07842984542472E-10  1.36783543107690E-02
 cg2d: Sum(rhs),rhsMax =   1.07860609332988E-10  1.36807251714069E-02
 cg2d: Sum(rhs),rhsMax =   1.07905601121061E-10  1.36830924909860E-02
 cg2d: Sum(rhs),rhsMax =   1.07935660409453E-10  1.36854559855294E-02
 cg2d: Sum(rhs),rhsMax =   1.07951009242768E-10  1.36878153825090E-02
 cg2d: Sum(rhs),rhsMax =   1.07982289776487E-10  1.36901704382215E-02
 cg2d: Sum(rhs),rhsMax =   1.08012321309303E-10  1.36925209159716E-02
 cg2d: Sum(rhs),rhsMax =   1.08043268776115E-10  1.36948665913363E-02
 cg2d: Sum(rhs),rhsMax =   1.08068748394530E-10  1.36972072423957E-02
 cg2d: Sum(rhs),rhsMax =   1.08101361195878E-10  1.36995426618135E-02
 cg2d: Sum(rhs),rhsMax =   1.08128284104225E-10  1.37018726504486E-02
 cg2d: Sum(rhs),rhsMax =   1.08151654298894E-10  1.37041970193684E-02
 cg2d: Sum(rhs),rhsMax =   1.08175551849499E-10  1.37065155892802E-02
 cg2d: Sum(rhs),rhsMax =   1.08211106741862E-10  1.37088281887506E-02
 cg2d: Sum(rhs),rhsMax =   1.08235143070345E-10  1.37111367946928E-02
 cg2d: Sum(rhs),rhsMax =   1.08272085741490E-10  1.37134391019609E-02
 cg2d: Sum(rhs),rhsMax =   1.08310777013898E-10  1.37157349335613E-02
 cg2d: Sum(rhs),rhsMax =   1.08335923565406E-10  1.37180241469606E-02
 cg2d: Sum(rhs),rhsMax =   1.08359682338133E-10  1.37203065932865E-02
 cg2d: Sum(rhs),rhsMax =   1.08373837681697E-10  1.37225821327115E-02
 cg2d: Sum(rhs),rhsMax =   1.08398207077087E-10  1.37248506328277E-02
 cg2d: Sum(rhs),rhsMax =   1.08415360022818E-10  1.37271119688750E-02
 cg2d: Sum(rhs),rhsMax =   1.08449610403127E-10  1.37293660207992E-02
 cg2d: Sum(rhs),rhsMax =   1.08471759352469E-10  1.37316126781115E-02
 cg2d: Sum(rhs),rhsMax =   1.08479170091158E-10  1.37338518347765E-02
 cg2d: Sum(rhs),rhsMax =   1.08510922469662E-10  1.37360862026293E-02
 cg2d: Sum(rhs),rhsMax =   1.08533848575121E-10  1.37383136043464E-02
 cg2d: Sum(rhs),rhsMax =   1.08562464573581E-10  1.37405333855137E-02
 cg2d: Sum(rhs),rhsMax =   1.08595937797773E-10  1.37427453279357E-02
 cg2d: Sum(rhs),rhsMax =   1.08629549799844E-10  1.37449492973891E-02
 cg2d: Sum(rhs),rhsMax =   1.08669989673515E-10  1.37471451876113E-02
 cg2d: Sum(rhs),rhsMax =   1.08707043366962E-10  1.37493329110092E-02
 cg2d: Sum(rhs),rhsMax =   1.08744069304834E-10  1.37515123892698E-02
 cg2d: Sum(rhs),rhsMax =   1.08781594843066E-10  1.37536835508635E-02
 cg2d: Sum(rhs),rhsMax =   1.08819425692630E-10  1.37558463348686E-02
 cg2d: Sum(rhs),rhsMax =   1.08858672076551E-10  1.37580006870655E-02
 cg2d: Sum(rhs),rhsMax =   1.08892062034016E-10  1.37601465586099E-02
 cg2d: Sum(rhs),rhsMax =   1.08912240337489E-10  1.37622839099993E-02
 cg2d: Sum(rhs),rhsMax =   1.08928005504438E-10  1.37644127031791E-02
 cg2d: Sum(rhs),rhsMax =   1.08953707167458E-10  1.37665329043266E-02
 cg2d: Sum(rhs),rhsMax =   1.08995007463975E-10  1.37686445082084E-02
 cg2d: Sum(rhs),rhsMax =   1.09027828432140E-10  1.37707475151642E-02
 cg2d: Sum(rhs),rhsMax =   1.09065270703645E-10  1.37728419499694E-02
 cg2d: Sum(rhs),rhsMax =   1.09105280365895E-10  1.37749278035099E-02
 cg2d: Sum(rhs),rhsMax =   1.09134631887109E-10  1.37770050902146E-02
 cg2d: Sum(rhs),rhsMax =   1.09178888152428E-10  1.37790738191315E-02
 cg2d: Sum(rhs),rhsMax =   1.09213152410526E-10  1.37811339662314E-02
 cg2d: Sum(rhs),rhsMax =   1.09247694224379E-10  1.37831855884064E-02
 cg2d: Sum(rhs),rhsMax =   1.09284345461980E-10  1.37852287565958E-02
 cg2d: Sum(rhs),rhsMax =   1.09319664431951E-10  1.37872635743418E-02
 cg2d: Sum(rhs),rhsMax =   1.09362394140611E-10  1.37892901202202E-02
 cg2d: Sum(rhs),rhsMax =   1.09410785986697E-10  1.37913085658881E-02
 cg2d: Sum(rhs),rhsMax =   1.09436043560507E-10  1.37933190312670E-02
 cg2d: Sum(rhs),rhsMax =   1.09476983034540E-10  1.37953216535658E-02
 cg2d: Sum(rhs),rhsMax =   1.09517631075029E-10  1.37973165938639E-02
 cg2d: Sum(rhs),rhsMax =   1.09561998362651E-10  1.37993040270508E-02
 cg2d: Sum(rhs),rhsMax =   1.09592640518130E-10  1.38012841722711E-02
 cg2d: Sum(rhs),rhsMax =   1.09648942703267E-10  1.38032571525456E-02
 cg2d: Sum(rhs),rhsMax =   1.09672104731118E-10  1.38052232136831E-02
 cg2d: Sum(rhs),rhsMax =   1.09699596628765E-10  1.38071826659037E-02
 cg2d: Sum(rhs),rhsMax =   1.09733264141987E-10  1.38091357652327E-02
 cg2d: Sum(rhs),rhsMax =   1.09761436051237E-10  1.38110827604167E-02
 cg2d: Sum(rhs),rhsMax =   1.09793146796378E-10  1.38130239323324E-02
 cg2d: Sum(rhs),rhsMax =   1.09830936012578E-10  1.38149595835213E-02
 cg2d: Sum(rhs),rhsMax =   1.09855249896817E-10  1.38168900445799E-02
 cg2d: Sum(rhs),rhsMax =   1.09882852816767E-10  1.38188156508066E-02
 cg2d: Sum(rhs),rhsMax =   1.09909151224663E-10  1.38207367573161E-02
 cg2d: Sum(rhs),rhsMax =   1.09952394411472E-10  1.38226537337260E-02
 cg2d: Sum(rhs),rhsMax =   1.09974349071784E-10  1.38245669647519E-02
 cg2d: Sum(rhs),rhsMax =   1.09991793451059E-10  1.38264768487726E-02
 cg2d: Sum(rhs),rhsMax =   1.10021908250602E-10  1.38283837964233E-02
 cg2d: Sum(rhs),rhsMax =   1.10055159430189E-10  1.38302881801582E-02
 cg2d: Sum(rhs),rhsMax =   1.10081957438446E-10  1.38321904892647E-02
 cg2d: Sum(rhs),rhsMax =   1.10126824326429E-10  1.38340911706923E-02
 cg2d: Sum(rhs),rhsMax =   1.10159978361501E-10  1.38359906786648E-02
 cg2d: Sum(rhs),rhsMax =   1.10189565805108E-10  1.38378894802944E-02
 cg2d: Sum(rhs),rhsMax =   1.10231476724287E-10  1.38397880485416E-02
 cg2d: Sum(rhs),rhsMax =   1.10268780217915E-10  1.38416868662228E-02
 cg2d: Sum(rhs),rhsMax =   1.10294662292176E-10  1.38435864187181E-02
 cg2d: Sum(rhs),rhsMax =   1.10321460300433E-10  1.38454871966486E-02
 cg2d: Sum(rhs),rhsMax =   1.10354766991172E-10  1.38473897045668E-02
 cg2d: Sum(rhs),rhsMax =   1.10389961061053E-10  1.38492944353786E-02
 cg2d: Sum(rhs),rhsMax =   1.10414233311928E-10  1.38512018889727E-02
 cg2d: Sum(rhs),rhsMax =   1.10439671296980E-10  1.38531125698825E-02
 cg2d: Sum(rhs),rhsMax =   1.10463110880588E-10  1.38550269792923E-02
 cg2d: Sum(rhs),rhsMax =   1.10509656980895E-10  1.38569456244600E-02
 cg2d: Sum(rhs),rhsMax =   1.10535719466398E-10  1.38588690054257E-02
 cg2d: Sum(rhs),rhsMax =   1.10560532950998E-10  1.38607976193640E-02
 cg2d: Sum(rhs),rhsMax =   1.10582487611310E-10  1.38627319480829E-02
 cg2d: Sum(rhs),rhsMax =   1.10621650728504E-10  1.38646724932401E-02
 cg2d: Sum(rhs),rhsMax =   1.10661105279242E-10  1.38666196827019E-02
 cg2d: Sum(rhs),rhsMax =   1.10689429844157E-10  1.38685740340386E-02
 cg2d: Sum(rhs),rhsMax =   1.10707942813093E-10  1.38705359914976E-02
 cg2d: Sum(rhs),rhsMax =   1.10746675718865E-10  1.38725059990632E-02
 cg2d: Sum(rhs),rhsMax =   1.10782799600528E-10  1.38744844786553E-02
 cg2d: Sum(rhs),rhsMax =   1.10822614973749E-10  1.38764718432263E-02
 cg2d: Sum(rhs),rhsMax =   1.10862638513787E-10  1.38784684935981E-02
 cg2d: Sum(rhs),rhsMax =   1.10884926241006E-10  1.38804748060080E-02
 cg2d: Sum(rhs),rhsMax =   1.10929543328808E-10  1.38824911162021E-02
 cg2d: Sum(rhs),rhsMax =   1.10945530540363E-10  1.38845177864952E-02
 cg2d: Sum(rhs),rhsMax =   1.10966180688621E-10  1.38865551572827E-02
 cg2d: Sum(rhs),rhsMax =   1.10993311763785E-10  1.38886035236137E-02
 cg2d: Sum(rhs),rhsMax =   1.11036443928292E-10  1.38906631402575E-02
 cg2d: Sum(rhs),rhsMax =   1.11061590479800E-10  1.38927342616475E-02
 cg2d: Sum(rhs),rhsMax =   1.11086390086612E-10  1.38948170994700E-02
 cg2d: Sum(rhs),rhsMax =   1.11123124590939E-10  1.38969119226288E-02
 cg2d: Sum(rhs),rhsMax =   1.11170114780457E-10  1.38990189043393E-02
 cg2d: Sum(rhs),rhsMax =   1.11210485265190E-10  1.39011381899094E-02
 cg2d: Sum(rhs),rhsMax =   1.11268522173802E-10  1.39032699183834E-02
 cg2d: Sum(rhs),rhsMax =   1.11298997795828E-10  1.39054142040650E-02
 cg2d: Sum(rhs),rhsMax =   1.11331110996815E-10  1.39075711296715E-02
 cg2d: Sum(rhs),rhsMax =   1.11353606890852E-10  1.39097407583274E-02
 cg2d: Sum(rhs),rhsMax =   1.11378462008815E-10  1.39119231275529E-02
 cg2d: Sum(rhs),rhsMax =   1.11418360648763E-10  1.39141182523174E-02
 cg2d: Sum(rhs),rhsMax =   1.11448586470608E-10  1.39163261218354E-02
 cg2d: Sum(rhs),rhsMax =   1.11483766662701E-10  1.39185467074911E-02
 cg2d: Sum(rhs),rhsMax =   1.11522707735290E-10  1.39207799535915E-02
 cg2d: Sum(rhs),rhsMax =   1.11542636238582E-10  1.39230257759444E-02
 cg2d: Sum(rhs),rhsMax =   1.11586004325481E-10  1.39252840744772E-02
 cg2d: Sum(rhs),rhsMax =   1.11610401476447E-10  1.39275547222390E-02
 cg2d: Sum(rhs),rhsMax =   1.11646192291204E-10  1.39298375750040E-02
 cg2d: Sum(rhs),rhsMax =   1.11677569969437E-10  1.39321324579437E-02
 cg2d: Sum(rhs),rhsMax =   1.11709017036610E-10  1.39344391853699E-02
 cg2d: Sum(rhs),rhsMax =   1.11736814245589E-10  1.39367575420208E-02
 cg2d: Sum(rhs),rhsMax =   1.11770800947930E-10  1.39390872995376E-02
 cg2d: Sum(rhs),rhsMax =   1.11797543445036E-10  1.39414282051312E-02
 cg2d: Sum(rhs),rhsMax =   1.11832765270492E-10  1.39437799948259E-02
 cg2d: Sum(rhs),rhsMax =   1.11867556884526E-10  1.39461423812647E-02
 cg2d: Sum(rhs),rhsMax =   1.11906442445964E-10  1.39485150653767E-02
 cg2d: Sum(rhs),rhsMax =   1.11929313040271E-10  1.39508980923436E-02
 cg2d: Sum(rhs),rhsMax =   1.11967268789925E-10  1.39532903891190E-02
 cg2d: Sum(rhs),rhsMax =   1.11995121510056E-10  1.39556921667756E-02
 cg2d: Sum(rhs),rhsMax =   1.12022460752037E-10  1.39581031289377E-02
 cg2d: Sum(rhs),rhsMax =   1.12055170697900E-10  1.39605228520480E-02
 cg2d: Sum(rhs),rhsMax =   1.12079803771259E-10  1.39629509659703E-02
 cg2d: Sum(rhs),rhsMax =   1.12104311944528E-10  1.39653871187906E-02
 cg2d: Sum(rhs),rhsMax =   1.12124795559332E-10  1.39678309479508E-02
 cg2d: Sum(rhs),rhsMax =   1.12137507612964E-10  1.39702820788598E-02
 cg2d: Sum(rhs),rhsMax =   1.12166817500814E-10  1.39727401202760E-02
 Computing Diagnostic #    26 "THETA   " (list#  1) Parms "SMR     MR      ", Count=     144
 Computing Diagnostic #    27 "SALT    " (list#  1) Parms "SMR     MR      ", Count=     144
 Computing Diagnostic #    30 "UVEL    " (list#  1) Parms "UUR     MR      ", Count=     144
             Vector  Mate for "UVEL    " :  Diagnostic #     31 "VVEL    " exists
 Computing Diagnostic #    32 "WVEL    " (list#  1) Parms "WM      LR      ", Count=     144
 Computing Diagnostic #    31 "VVEL    " (list#  1) Parms "VVR     MR      ", Count=     144
             Vector  Mate for "VVEL    " :  Diagnostic #     30 "UVEL    " exists
 Computing Diagnostic #   197 "BRGfwFlx" (list#  2) Parms "SM      MR      ", Count=     144
 Computing Diagnostic #   198 "BRGhtFlx" (list#  2) Parms "SM      MR      ", Count=     144
 Computing Diagnostic #   199 "BRGmltRt" (list#  2) Parms "SM      MR      ", Count=     144
 Computing Diagnostic #   201 "BRG_TauX" (list#  2) Parms "UU      MR      ", Count=    1728
 Computing Diagnostic #   202 "BRG_TauY" (list#  2) Parms "VV      MR      ", Count=    1728
 Computing Diagnostic #   203 "BRGhFacC" (list#  2) Parms "SM      MR      ", Count=    1728
 cg2d: Sum(rhs),rhsMax =   1.12183817790878E-10  1.39752047244868E-02
 cg2d: Sum(rhs),rhsMax =   1.12217540815251E-10  1.39776757593649E-02
 cg2d: Sum(rhs),rhsMax =   1.12243728200845E-10  1.39801528146671E-02
 cg2d: Sum(rhs),rhsMax =   1.12280601483050E-10  1.39826354472901E-02
 cg2d: Sum(rhs),rhsMax =   1.12298531584898E-10  1.39851232150732E-02
 cg2d: Sum(rhs),rhsMax =   1.12331255408549E-10  1.39876156920157E-02
 cg2d: Sum(rhs),rhsMax =   1.12365866611341E-10  1.39901123448868E-02
 cg2d: Sum(rhs),rhsMax =   1.12404585639325E-10  1.39926127822668E-02
 cg2d: Sum(rhs),rhsMax =   1.12421558173814E-10  1.39951165033753E-02
 cg2d: Sum(rhs),rhsMax =   1.12460943335613E-10  1.39976230167673E-02
 cg2d: Sum(rhs),rhsMax =   1.12474571323240E-10  1.40001318702981E-02
 cg2d: Sum(rhs),rhsMax =   1.12506587379713E-10  1.40026426018136E-02
 cg2d: Sum(rhs),rhsMax =   1.12530998408467E-10  1.40051547454878E-02
 cg2d: Sum(rhs),rhsMax =   1.12554021658440E-10  1.40076677429491E-02
 cg2d: Sum(rhs),rhsMax =   1.12583609102046E-10  1.40101810846777E-02
 cg2d: Sum(rhs),rhsMax =   1.12627934756304E-10  1.40126943467624E-02
 cg2d: Sum(rhs),rhsMax =   1.12662185136614E-10  1.40152070525159E-02
 cg2d: Sum(rhs),rhsMax =   1.12693687714938E-10  1.40177186694895E-02
 cg2d: Sum(rhs),rhsMax =   1.12719097944414E-10  1.40202286820248E-02
 cg2d: Sum(rhs),rhsMax =   1.12763492987611E-10  1.40227366146653E-02
 cg2d: Sum(rhs),rhsMax =   1.12784739880745E-10  1.40252420033048E-02
 cg2d: Sum(rhs),rhsMax =   1.12810594199431E-10  1.40277443672301E-02
 cg2d: Sum(rhs),rhsMax =   1.12828871245974E-10  1.40302432282932E-02
 cg2d: Sum(rhs),rhsMax =   1.12852838185518E-10  1.40327380777583E-02
 cg2d: Sum(rhs),rhsMax =   1.12886866521222E-10  1.40352284398019E-02
 cg2d: Sum(rhs),rhsMax =   1.12931622386903E-10  1.40377138655113E-02
 cg2d: Sum(rhs),rhsMax =   1.12946749175613E-10  1.40401938923652E-02
 cg2d: Sum(rhs),rhsMax =   1.12970355292674E-10  1.40426680569091E-02
 cg2d: Sum(rhs),rhsMax =   1.13000109269734E-10  1.40451359076724E-02
 cg2d: Sum(rhs),rhsMax =   1.13032458393114E-10  1.40475970029976E-02
 cg2d: Sum(rhs),rhsMax =   1.13054704486970E-10  1.40500509095239E-02
 cg2d: Sum(rhs),rhsMax =   1.13074785645928E-10  1.40524972086185E-02
 cg2d: Sum(rhs),rhsMax =   1.13096490506059E-10  1.40549354850641E-02
 cg2d: Sum(rhs),rhsMax =   1.13120846023662E-10  1.40573653114914E-02
 cg2d: Sum(rhs),rhsMax =   1.13137568757971E-10  1.40597862916457E-02
 cg2d: Sum(rhs),rhsMax =   1.13173581617332E-10  1.40621980446822E-02
 cg2d: Sum(rhs),rhsMax =   1.13198964091232E-10  1.40646002099740E-02
 cg2d: Sum(rhs),rhsMax =   1.13228440512536E-10  1.40669924292893E-02
 cg2d: Sum(rhs),rhsMax =   1.13264828072168E-10  1.40693743702563E-02
 cg2d: Sum(rhs),rhsMax =   1.13293596726294E-10  1.40717457032674E-02
 cg2d: Sum(rhs),rhsMax =   1.13309139848639E-10  1.40741061175934E-02
 cg2d: Sum(rhs),rhsMax =   1.13341488972019E-10  1.40764553155671E-02
 cg2d: Sum(rhs),rhsMax =   1.13359460707230E-10  1.40787930125813E-02
 cg2d: Sum(rhs),rhsMax =   1.13391754319458E-10  1.40811189118549E-02
 cg2d: Sum(rhs),rhsMax =   1.13411044444511E-10  1.40834327657337E-02
 cg2d: Sum(rhs),rhsMax =   1.13432915838096E-10  1.40857342999672E-02
 cg2d: Sum(rhs),rhsMax =   1.13466944173801E-10  1.40880231898087E-02
 cg2d: Sum(rhs),rhsMax =   1.13485096320254E-10  1.40902990807092E-02
 cg2d: Sum(rhs),rhsMax =   1.13511713917269E-10  1.40925617737431E-02
 cg2d: Sum(rhs),rhsMax =   1.13537609869319E-10  1.40948110889987E-02
 cg2d: Sum(rhs),rhsMax =   1.13569029180915E-10  1.40970468720320E-02
 cg2d: Sum(rhs),rhsMax =   1.13620501895895E-10  1.40992689879830E-02
 cg2d: Sum(rhs),rhsMax =   1.13646272947854E-10  1.41014773168274E-02
 cg2d: Sum(rhs),rhsMax =   1.13671128065818E-10  1.41036717639522E-02
 cg2d: Sum(rhs),rhsMax =   1.13709611171409E-10  1.41058522587922E-02
 cg2d: Sum(rhs),rhsMax =   1.13732398498989E-10  1.41080187540001E-02
 cg2d: Sum(rhs),rhsMax =   1.13767217868599E-10  1.41101712172489E-02
 cg2d: Sum(rhs),rhsMax =   1.13797540834959E-10  1.41123096673195E-02
 cg2d: Sum(rhs),rhsMax =   1.13819606517573E-10  1.41144341062096E-02
 cg2d: Sum(rhs),rhsMax =   1.13846945759555E-10  1.41165445234934E-02
 cg2d: Sum(rhs),rhsMax =   1.13864737083524E-10  1.41186409806695E-02
 cg2d: Sum(rhs),rhsMax =   1.13902429155210E-10  1.41207235686218E-02
 cg2d: Sum(rhs),rhsMax =   1.13927547951143E-10  1.41227924017732E-02
 cg2d: Sum(rhs),rhsMax =   1.13960396674884E-10  1.41248476174778E-02
 cg2d: Sum(rhs),rhsMax =   1.14000295314831E-10  1.41268893753832E-02
 cg2d: Sum(rhs),rhsMax =   1.14021861397084E-10  1.41289178531444E-02
 cg2d: Sum(rhs),rhsMax =   1.14055292987914E-10  1.41309332763155E-02
 cg2d: Sum(rhs),rhsMax =   1.14091056047094E-10  1.41329358563316E-02
 cg2d: Sum(rhs),rhsMax =   1.14129108941263E-10  1.41349258371370E-02
 cg2d: Sum(rhs),rhsMax =   1.14157600039633E-10  1.41369034911015E-02
 cg2d: Sum(rhs),rhsMax =   1.14178805299403E-10  1.41388691049038E-02
 cg2d: Sum(rhs),rhsMax =   1.14216039404091E-10  1.41408229847072E-02
 cg2d: Sum(rhs),rhsMax =   1.14261766714918E-10  1.41427654497472E-02
 cg2d: Sum(rhs),rhsMax =   1.14303774778612E-10  1.41446969263494E-02
 cg2d: Sum(rhs),rhsMax =   1.14343867707589E-10  1.41466177958927E-02
 cg2d: Sum(rhs),rhsMax =   1.14378673199411E-10  1.41485285075087E-02
 cg2d: Sum(rhs),rhsMax =   1.14414117069472E-10  1.41504295063552E-02
 cg2d: Sum(rhs),rhsMax =   1.14450462995741E-10  1.41523212263624E-02
 cg2d: Sum(rhs),rhsMax =   1.14482590074516E-10  1.41542041196045E-02
 cg2d: Sum(rhs),rhsMax =   1.14508597048868E-10  1.41560786539172E-02
 cg2d: Sum(rhs),rhsMax =   1.14542514362270E-10  1.41579452978201E-02
 cg2d: Sum(rhs),rhsMax =   1.14578138643573E-10  1.41598044869734E-02
 cg2d: Sum(rhs),rhsMax =   1.14602785594720E-10  1.41616566758944E-02
 cg2d: Sum(rhs),rhsMax =   1.14638437631598E-10  1.41635023391383E-02
 cg2d: Sum(rhs),rhsMax =   1.14675366424954E-10  1.41653419354589E-02
 cg2d: Sum(rhs),rhsMax =   1.14710005383323E-10  1.41671759157922E-02
 cg2d: Sum(rhs),rhsMax =   1.14737191969638E-10  1.41690047241122E-02
 cg2d: Sum(rhs),rhsMax =   1.14772275017216E-10  1.41708287955219E-02
 cg2d: Sum(rhs),rhsMax =   1.14791232075362E-10  1.41726485551511E-02
 cg2d: Sum(rhs),rhsMax =   1.14835696507498E-10  1.41744644160777E-02
 cg2d: Sum(rhs),rhsMax =   1.14855056021490E-10  1.41762767753227E-02
 cg2d: Sum(rhs),rhsMax =   1.14894496694440E-10  1.41780860203881E-02
 cg2d: Sum(rhs),rhsMax =   1.14918324856106E-10  1.41798925183023E-02
 cg2d: Sum(rhs),rhsMax =   1.14950077234610E-10  1.41816966202890E-02
 cg2d: Sum(rhs),rhsMax =   1.14971684950227E-10  1.41834986591078E-02
 cg2d: Sum(rhs),rhsMax =   1.15000925449138E-10  1.41852989493784E-02
 cg2d: Sum(rhs),rhsMax =   1.15024476055048E-10  1.41870977826779E-02
 cg2d: Sum(rhs),rhsMax =   1.15060114214138E-10  1.41888954330865E-02
 cg2d: Sum(rhs),rhsMax =   1.15090201258106E-10  1.41906921538213E-02
 cg2d: Sum(rhs),rhsMax =   1.15124923483201E-10  1.41924881650910E-02
 cg2d: Sum(rhs),rhsMax =   1.15151901902699E-10  1.41942836751252E-02
 cg2d: Sum(rhs),rhsMax =   1.15188275584543E-10  1.41960788892981E-02
 cg2d: Sum(rhs),rhsMax =   1.15210105344765E-10  1.41978739551400E-02
 cg2d: Sum(rhs),rhsMax =   1.15253931398662E-10  1.41996690065823E-02
 cg2d: Sum(rhs),rhsMax =   1.15293913305337E-10  1.42014641651800E-02
 cg2d: Sum(rhs),rhsMax =   1.15330411887271E-10  1.42032595273400E-02
 cg2d: Sum(rhs),rhsMax =   1.15353768204152E-10  1.42050551633777E-02
 cg2d: Sum(rhs),rhsMax =   1.15385978549654E-10  1.42068511267497E-02
 cg2d: Sum(rhs),rhsMax =   1.15414178214479E-10  1.42086474451253E-02
 cg2d: Sum(rhs),rhsMax =   1.15450912718806E-10  1.42104441469143E-02
 cg2d: Sum(rhs),rhsMax =   1.15482526319433E-10  1.42122411786997E-02
 cg2d: Sum(rhs),rhsMax =   1.15519607768455E-10  1.42140385471615E-02
 cg2d: Sum(rhs),rhsMax =   1.15555592872241E-10  1.42158362197217E-02
 cg2d: Sum(rhs),rhsMax =   1.15586221149933E-10  1.42176341272405E-02
 cg2d: Sum(rhs),rhsMax =   1.15632517450059E-10  1.42194321947309E-02
 cg2d: Sum(rhs),rhsMax =   1.15654930077369E-10  1.42212303357455E-02
 cg2d: Sum(rhs),rhsMax =   1.15704404390904E-10  1.42230284563699E-02
 cg2d: Sum(rhs),rhsMax =   1.15732035066429E-10  1.42248264476599E-02
 cg2d: Sum(rhs),rhsMax =   1.15774306808092E-10  1.42266241945747E-02
 cg2d: Sum(rhs),rhsMax =   1.15812345824473E-10  1.42284215745388E-02
 cg2d: Sum(rhs),rhsMax =   1.15845277814941E-10  1.42302184565577E-02
 cg2d: Sum(rhs),rhsMax =   1.15886800156062E-10  1.42320147088810E-02
 cg2d: Sum(rhs),rhsMax =   1.15922119126033E-10  1.42338101967659E-02
 cg2d: Sum(rhs),rhsMax =   1.15961115709773E-10  1.42356047836600E-02
 cg2d: Sum(rhs),rhsMax =   1.15973897152344E-10  1.42373984256105E-02
 cg2d: Sum(rhs),rhsMax =   1.15999140848366E-10  1.42391910110825E-02
 cg2d: Sum(rhs),rhsMax =   1.16034709618518E-10  1.42409824554798E-02
 cg2d: Sum(rhs),rhsMax =   1.16072054745509E-10  1.42427728058702E-02
 cg2d: Sum(rhs),rhsMax =   1.16104778569159E-10  1.42445619895445E-02
 cg2d: Sum(rhs),rhsMax =   1.16142900852267E-10  1.42463499549927E-02
 cg2d: Sum(rhs),rhsMax =   1.16177831244180E-10  1.42481366783753E-02
 cg2d: Sum(rhs),rhsMax =   1.16209167289050E-10  1.42499221326844E-02
 cg2d: Sum(rhs),rhsMax =   1.16236076319609E-10  1.42517063015257E-02
 cg2d: Sum(rhs),rhsMax =   1.16270729155765E-10  1.42534891704787E-02
 cg2d: Sum(rhs),rhsMax =   1.16311224540588E-10  1.42552707453115E-02
 cg2d: Sum(rhs),rhsMax =   1.16336468236611E-10  1.42570510465121E-02
 cg2d: Sum(rhs),rhsMax =   1.16345932887896E-10  1.42588300708224E-02
 cg2d: Sum(rhs),rhsMax =   1.16382931070191E-10  1.42606078391104E-02
 cg2d: Sum(rhs),rhsMax =   1.16418236162374E-10  1.42623843937435E-02
 cg2d: Sum(rhs),rhsMax =   1.16447670950315E-10  1.42641597842143E-02
 cg2d: Sum(rhs),rhsMax =   1.16483142575952E-10  1.42659340865209E-02
 cg2d: Sum(rhs),rhsMax =   1.16531007066101E-10  1.42677073682590E-02
 cg2d: Sum(rhs),rhsMax =   1.16576151509840E-10  1.42694797097511E-02
 cg2d: Sum(rhs),rhsMax =   1.16607432043558E-10  1.42712512103953E-02
(PID.TID 0000.0001)      cg2d_init_res =   5.03979618374015E-04
(PID.TID 0000.0001)      cg2d_iters(min,last) =      -1      41
(PID.TID 0000.0001)      cg2d_last_res =   8.70360570697180E-14
(PID.TID 0000.0001) // =======================================================
(PID.TID 0000.0001) // Begin MONITOR dynamic field statistics
(PID.TID 0000.0001) // =======================================================
(PID.TID 0000.0001) %MON time_tsnumber                =                  3456
(PID.TID 0000.0001) %MON time_secondsf                =   8.6400000000000E+04
(PID.TID 0000.0001) %MON dynstat_eta_max              =   4.9169539510839E-03
(PID.TID 0000.0001) %MON dynstat_eta_min              =  -2.4129122463254E-03
(PID.TID 0000.0001) %MON dynstat_eta_mean             =  -1.1148261494717E-14
(PID.TID 0000.0001) %MON dynstat_eta_sd               =   2.4421604836263E-03
(PID.TID 0000.0001) %MON dynstat_eta_del2             =   1.9885445202216E-05
(PID.TID 0000.0001) %MON dynstat_uvel_max             =   4.4346542178085E-02
(PID.TID 0000.0001) %MON dynstat_uvel_min             =  -2.5322077723820E-02
(PID.TID 0000.0001) %MON dynstat_uvel_mean            =  -5.2073375161793E-08
(PID.TID 0000.0001) %MON dynstat_uvel_sd              =   5.0778264462833E-03
(PID.TID 0000.0001) %MON dynstat_uvel_del2            =   1.0225770238621E-04
(PID.TID 0000.0001) %MON dynstat_vvel_max             =   1.5555592927571E-02
(PID.TID 0000.0001) %MON dynstat_vvel_min             =  -3.1834848855358E-02
(PID.TID 0000.0001) %MON dynstat_vvel_mean            =  -8.0919756365229E-03
(PID.TID 0000.0001) %MON dynstat_vvel_sd              =   1.1025464208982E-02
(PID.TID 0000.0001) %MON dynstat_vvel_del2            =   9.5320845509202E-05
(PID.TID 0000.0001) %MON dynstat_wvel_max             =   1.5480009671221E-03
(PID.TID 0000.0001) %MON dynstat_wvel_min             =  -1.3310978022660E-03
(PID.TID 0000.0001) %MON dynstat_wvel_mean            =   5.8589879522659E-21
(PID.TID 0000.0001) %MON dynstat_wvel_sd              =   1.3989286531803E-04
(PID.TID 0000.0001) %MON dynstat_wvel_del2            =   7.1656091443389E-06
(PID.TID 0000.0001) %MON dynstat_theta_max            =   2.6931451552427E+00
(PID.TID 0000.0001) %MON dynstat_theta_min            =   3.6541368361259E-01
(PID.TID 0000.0001) %MON dynstat_theta_mean           =   2.2519975046202E+00
(PID.TID 0000.0001) %MON dynstat_theta_sd             =   4.3600491123512E-01
(PID.TID 0000.0001) %MON dynstat_theta_del2           =   1.2289693972338E-03
(PID.TID 0000.0001) %MON dynstat_salt_max             =   3.4699999991205E+01
(PID.TID 0000.0001) %MON dynstat_salt_min             =   3.3094302000623E+01
(PID.TID 0000.0001) %MON dynstat_salt_mean            =   3.4366442318504E+01
(PID.TID 0000.0001) %MON dynstat_salt_sd              =   3.1688032037986E-01
(PID.TID 0000.0001) %MON dynstat_salt_del2            =   1.8664754543072E-04
(PID.TID 0000.0001) %MON advcfl_uvel_max              =   2.2173271089043E-03
(PID.TID 0000.0001) %MON advcfl_vvel_max              =   1.5917424427679E-03
(PID.TID 0000.0001) %MON advcfl_wvel_max              =   6.8112042575169E-04
(PID.TID 0000.0001) %MON advcfl_W_hf_max              =   1.7809970677900E-03
(PID.TID 0000.0001) %MON pe_b_mean                    =   4.9761455153111E-08
(PID.TID 0000.0001) %MON ke_max                       =   8.8601993730472E-04
(PID.TID 0000.0001) %MON ke_mean                      =   9.6462787587829E-05
(PID.TID 0000.0001) %MON ke_vol                       =   3.2921708585402E+10
(PID.TID 0000.0001) // =======================================================
(PID.TID 0000.0001) // End MONITOR dynamic field statistics
(PID.TID 0000.0001) // =======================================================
(PID.TID 0000.0001) // =======================================================
(PID.TID 0000.0001) // Begin OBCS MONITOR field statistics
(PID.TID 0000.0001) // =======================================================
(PID.TID 0000.0001) %MON obc_E_uVel_max               =   0.0000000000000E+00
(PID.TID 0000.0001) %MON obc_E_uVel_min               =   0.0000000000000E+00
(PID.TID 0000.0001) %MON obc_E_uVel_mean              =   0.0000000000000E+00
(PID.TID 0000.0001) %MON obc_E_uVel_sd                =   0.0000000000000E+00
(PID.TID 0000.0001) %MON obc_E_uVel_Int               =   0.0000000000000E+00
(PID.TID 0000.0001) %MON obc_N_vVel_max               =  -3.6115799844846E-05
(PID.TID 0000.0001) %MON obc_N_vVel_min               =  -3.0000000000000E-02
(PID.TID 0000.0001) %MON obc_N_vVel_mean              =  -1.3225455303334E-02
(PID.TID 0000.0001) %MON obc_N_vVel_sd                =   1.1350864292742E-02
(PID.TID 0000.0001) %MON obc_N_vVel_Int               =  -5.9514548865004E+04
(PID.TID 0000.0001) %MON obc_S_vVel_max               =  -3.6115799844846E-05
(PID.TID 0000.0001) %MON obc_S_vVel_min               =  -3.0000000000000E-02
(PID.TID 0000.0001) %MON obc_S_vVel_mean              =  -1.3225455303334E-02
(PID.TID 0000.0001) %MON obc_S_vVel_sd                =   1.1350864292742E-02
(PID.TID 0000.0001) %MON obc_S_vVel_Int               =  -5.9514548865004E+04
(PID.TID 0000.0001) // =======================================================
(PID.TID 0000.0001) // End OBCS MONITOR field statistics
(PID.TID 0000.0001) // =======================================================
 Computing Diagnostic #    26 "THETA   " (list#  1) Parms "SMR     MR      ", Count=     144
 Computing Diagnostic #    27 "SALT    " (list#  1) Parms "SMR     MR      ", Count=     144
 Computing Diagnostic #    30 "UVEL    " (list#  1) Parms "UUR     MR      ", Count=     144
             Vector  Mate for "UVEL    " :  Diagnostic #     31 "VVEL    " exists
 Computing Diagnostic #    32 "WVEL    " (list#  1) Parms "WM      LR      ", Count=     144
 Computing Diagnostic #    31 "VVEL    " (list#  1) Parms "VVR     MR      ", Count=     144
             Vector  Mate for "VVEL    " :  Diagnostic #     30 "UVEL    " exists
 Computing Diagnostic #   197 "BRGfwFlx" (list#  2) Parms "SM      MR      ", Count=     144
 Computing Diagnostic #   198 "BRGhtFlx" (list#  2) Parms "SM      MR      ", Count=     144
 Computing Diagnostic #   199 "BRGmltRt" (list#  2) Parms "SM      MR      ", Count=     144
 Computing Diagnostic #   201 "BRG_TauX" (list#  2) Parms "UU      MR      ", Count=    1728
 Computing Diagnostic #   202 "BRG_TauY" (list#  2) Parms "VV      MR      ", Count=    1728
 Computing Diagnostic #   203 "BRGhFacC" (list#  2) Parms "SM      MR      ", Count=    1728
(PID.TID 0000.0001) %CHECKPOINT      3456 0000003456
 cg2d: Sum(rhs),rhsMax =   1.16641404868112E-10  1.42730219800704E-02
 cg2d: Sum(rhs),rhsMax =   1.16668272265308E-10  1.42747921437805E-02
 cg2d: Sum(rhs),rhsMax =   1.16699039320878E-10  1.42765618350940E-02
 cg2d: Sum(rhs),rhsMax =   1.16719425791167E-10  1.42783312211848E-02
 cg2d: Sum(rhs),rhsMax =   1.16757797874456E-10  1.42801004404960E-02
 cg2d: Sum(rhs),rhsMax =   1.16790521698107E-10  1.42818696457680E-02
 cg2d: Sum(rhs),rhsMax =   1.16816889494942E-10  1.42836390426359E-02
 cg2d: Sum(rhs),rhsMax =   1.16859313892270E-10  1.42854088360088E-02
 cg2d: Sum(rhs),rhsMax =   1.16888762557998E-10  1.42871792242368E-02
 cg2d: Sum(rhs),rhsMax =   1.16923790094425E-10  1.42889504137352E-02
 cg2d: Sum(rhs),rhsMax =   1.16963216889587E-10  1.42907226247436E-02
 cg2d: Sum(rhs),rhsMax =   1.17011081379736E-10  1.42924960895581E-02
 cg2d: Sum(rhs),rhsMax =   1.17043583158782E-10  1.42942710453831E-02
 cg2d: Sum(rhs),rhsMax =   1.17080442563200E-10  1.42960477356585E-02
 cg2d: Sum(rhs),rhsMax =   1.17112528008612E-10  1.42978264126017E-02
 cg2d: Sum(rhs),rhsMax =   1.17158491241831E-10  1.42996073287442E-02
 cg2d: Sum(rhs),rhsMax =   1.17188134196589E-10  1.43013907442822E-02
 cg2d: Sum(rhs),rhsMax =   1.17220622097847E-10  1.43031769211487E-02
 cg2d: Sum(rhs),rhsMax =   1.17244283726059E-10  1.43049661197238E-02
 cg2d: Sum(rhs),rhsMax =   1.17275716915444E-10  1.43067586039203E-02
 cg2d: Sum(rhs),rhsMax =   1.17313769809613E-10  1.43085546354520E-02
 cg2d: Sum(rhs),rhsMax =   1.17343940120307E-10  1.43103544751311E-02
 cg2d: Sum(rhs),rhsMax =   1.17378204378404E-10  1.43121583808624E-02
 cg2d: Sum(rhs),rhsMax =   1.17409193478579E-10  1.43139666057107E-02
 cg2d: Sum(rhs),rhsMax =   1.17434714730358E-10  1.43157793927201E-02
 cg2d: Sum(rhs),rhsMax =   1.17466189553106E-10  1.43175969755845E-02
 cg2d: Sum(rhs),rhsMax =   1.17490683848587E-10  1.43194195879290E-02
 cg2d: Sum(rhs),rhsMax =   1.17531748222710E-10  1.43212474536005E-02
 cg2d: Sum(rhs),rhsMax =   1.17561085866136E-10  1.43230807850363E-02
 cg2d: Sum(rhs),rhsMax =   1.17607437677414E-10  1.43249197872726E-02
 cg2d: Sum(rhs),rhsMax =   1.17640105989913E-10  1.43267646481709E-02
 cg2d: Sum(rhs),rhsMax =   1.17678505828778E-10  1.43286155449040E-02
 cg2d: Sum(rhs),rhsMax =   1.17711007607824E-10  1.43304726360681E-02
 cg2d: Sum(rhs),rhsMax =   1.17738249705290E-10  1.43323360750484E-02
 cg2d: Sum(rhs),rhsMax =   1.17773527041898E-10  1.43342059807085E-02
 cg2d: Sum(rhs),rhsMax =   1.17811246869159E-10  1.43360824720482E-02
 cg2d: Sum(rhs),rhsMax =   1.17836976287755E-10  1.43379656405982E-02
 cg2d: Sum(rhs),rhsMax =   1.17870130322828E-10  1.43398555628340E-02
 cg2d: Sum(rhs),rhsMax =   1.17891960083050E-10  1.43417522955425E-02
 cg2d: Sum(rhs),rhsMax =   1.17944751187871E-10  1.43436558729709E-02
 cg2d: Sum(rhs),rhsMax =   1.17957324463625E-10  1.43455663009511E-02
 cg2d: Sum(rhs),rhsMax =   1.17991519332783E-10  1.43474834824244E-02
 cg2d: Sum(rhs),rhsMax =   1.18021467598872E-10  1.43494073471156E-02
 cg2d: Sum(rhs),rhsMax =   1.18049500730244E-10  1.43513378480540E-02
 cg2d: Sum(rhs),rhsMax =   1.18076187716198E-10  1.43532749266558E-02
 cg2d: Sum(rhs),rhsMax =   1.18093035350597E-10  1.43552184886292E-02
 cg2d: Sum(rhs),rhsMax =   1.18126064485580E-10  1.43571684038304E-02
 cg2d: Sum(rhs),rhsMax =   1.18157761352933E-10  1.43591245443110E-02
 cg2d: Sum(rhs),rhsMax =   1.18184531605614E-10  1.43610867864736E-02
 cg2d: Sum(rhs),rhsMax =   1.18214230071523E-10  1.43630549203170E-02
 cg2d: Sum(rhs),rhsMax =   1.18250811920184E-10  1.43650287505457E-02
 cg2d: Sum(rhs),rhsMax =   1.18298315587850E-10  1.43670080797143E-02
 cg2d: Sum(rhs),rhsMax =   1.18323933984144E-10  1.43689926740050E-02
 cg2d: Sum(rhs),rhsMax =   1.18349802180617E-10  1.43709818161853E-02
 cg2d: Sum(rhs),rhsMax =   1.18379278601921E-10  1.43729757149378E-02
 cg2d: Sum(rhs),rhsMax =   1.18412127325662E-10  1.43749741196437E-02
 cg2d: Sum(rhs),rhsMax =   1.18451859432156E-10  1.43769767321186E-02
 cg2d: Sum(rhs),rhsMax =   1.18462656351070E-10  1.43789832496383E-02
 cg2d: Sum(rhs),rhsMax =   1.18489024147905E-10  1.43809933548572E-02
 cg2d: Sum(rhs),rhsMax =   1.18517792802031E-10  1.43830067214208E-02
 cg2d: Sum(rhs),rhsMax =   1.18556234274259E-10  1.43850230661335E-02
 cg2d: Sum(rhs),rhsMax =   1.18581949815066E-10  1.43870421657249E-02
 cg2d: Sum(rhs),rhsMax =   1.18617851652125E-10  1.43890634691239E-02
 cg2d: Sum(rhs),rhsMax =   1.18634949086704E-10  1.43910865361753E-02
 cg2d: Sum(rhs),rhsMax =   1.18662066284081E-10  1.43931110578784E-02
 cg2d: Sum(rhs),rhsMax =   1.18689919004211E-10  1.43951367225142E-02
 cg2d: Sum(rhs),rhsMax =   1.18725473896575E-10  1.43971631790592E-02
 cg2d: Sum(rhs),rhsMax =   1.18765317025371E-10  1.43991900773818E-02
 cg2d: Sum(rhs),rhsMax =   1.18793336278955E-10  1.44012170646978E-02
 cg2d: Sum(rhs),rhsMax =   1.18817150562833E-10  1.44032437924662E-02
 cg2d: Sum(rhs),rhsMax =   1.18848292318674E-10  1.44052699165554E-02
 cg2d: Sum(rhs),rhsMax =   1.18881765542866E-10  1.44072950912122E-02
 cg2d: Sum(rhs),rhsMax =   1.18896892331577E-10  1.44093189864635E-02
 cg2d: Sum(rhs),rhsMax =   1.18921053560150E-10  1.44113412776002E-02
 cg2d: Sum(rhs),rhsMax =   1.18956081096577E-10  1.44133616544215E-02
 cg2d: Sum(rhs),rhsMax =   1.18979506802397E-10  1.44153798227074E-02
 cg2d: Sum(rhs),rhsMax =   1.19011661636748E-10  1.44173955026568E-02
 cg2d: Sum(rhs),rhsMax =   1.19047716129472E-10  1.44194084371181E-02
 cg2d: Sum(rhs),rhsMax =   1.19082771421475E-10  1.44214183868828E-02
 cg2d: Sum(rhs),rhsMax =   1.19121518205034E-10  1.44234251352366E-02
 cg2d: Sum(rhs),rhsMax =   1.19150106447918E-10  1.44254284890632E-02
 cg2d: Sum(rhs),rhsMax =   1.19186452374187E-10  1.44274282310109E-02
 cg2d: Sum(rhs),rhsMax =   1.19213944271834E-10  1.44294243377999E-02
 cg2d: Sum(rhs),rhsMax =   1.19245904817156E-10  1.44314165777057E-02
 cg2d: Sum(rhs),rhsMax =   1.19279169874531E-10  1.44334048113598E-02
 cg2d: Sum(rhs),rhsMax =   1.19305731960395E-10  1.44353889959757E-02
 cg2d: Sum(rhs),rhsMax =   1.19329240932942E-10  1.44373691244743E-02
 cg2d: Sum(rhs),rhsMax =   1.19362117412258E-10  1.44393451865048E-02
 cg2d: Sum(rhs),rhsMax =   1.19399018450039E-10  1.44413171659084E-02
 cg2d: Sum(rhs),rhsMax =   1.19435905610032E-10  1.44432850796051E-02
 cg2d: Sum(rhs),rhsMax =   1.19467352677205E-10  1.44452489731660E-02
 cg2d: Sum(rhs),rhsMax =   1.19498466677470E-10  1.44472089267356E-02
 cg2d: Sum(rhs),rhsMax =   1.19534479536831E-10  1.44491650474682E-02
 cg2d: Sum(rhs),rhsMax =   1.19562318379174E-10  1.44511174701264E-02
 cg2d: Sum(rhs),rhsMax =   1.19590462532848E-10  1.44530663550441E-02
 cg2d: Sum(rhs),rhsMax =   1.19628543182593E-10  1.44550118889279E-02
 cg2d: Sum(rhs),rhsMax =   1.19647056151528E-10  1.44569542826233E-02
 cg2d: Sum(rhs),rhsMax =   1.19677240340010E-10  1.44588937701096E-02
 cg2d: Sum(rhs),rhsMax =   1.19710102941539E-10  1.44608306103308E-02
 cg2d: Sum(rhs),rhsMax =   1.19755330652005E-10  1.44627650822447E-02
 cg2d: Sum(rhs),rhsMax =   1.19779547391730E-10  1.44646974833914E-02
 cg2d: Sum(rhs),rhsMax =   1.19812049170775E-10  1.44666281330828E-02
 cg2d: Sum(rhs),rhsMax =   1.19843038270950E-10  1.44685573643950E-02
 cg2d: Sum(rhs),rhsMax =   1.19882659355142E-10  1.44704855285860E-02
 cg2d: Sum(rhs),rhsMax =   1.19914134177890E-10  1.44724129905550E-02
 cg2d: Sum(rhs),rhsMax =   1.19942888954228E-10  1.44743401293816E-02
 cg2d: Sum(rhs),rhsMax =   1.19968493472733E-10  1.44762673343714E-02
 cg2d: Sum(rhs),rhsMax =   1.19988907698598E-10  1.44781950030188E-02
 cg2d: Sum(rhs),rhsMax =   1.20026016903196E-10  1.44801235442515E-02
 cg2d: Sum(rhs),rhsMax =   1.20059753805357E-10  1.44820533700154E-02
 cg2d: Sum(rhs),rhsMax =   1.20107521150992E-10  1.44839849006319E-02
 cg2d: Sum(rhs),rhsMax =   1.20146517734732E-10  1.44859185490233E-02
 cg2d: Sum(rhs),rhsMax =   1.20183710206057E-10  1.44878547391803E-02
 cg2d: Sum(rhs),rhsMax =   1.20216295251829E-10  1.44897938936519E-02
 cg2d: Sum(rhs),rhsMax =   1.20249796231597E-10  1.44917430011097E-02
 cg2d: Sum(rhs),rhsMax =   1.20281437587799E-10  1.44936958430143E-02
 cg2d: Sum(rhs),rhsMax =   1.20306320461339E-10  1.44956527382253E-02
 cg2d: Sum(rhs),rhsMax =   1.20346482779254E-10  1.44976140527707E-02
 cg2d: Sum(rhs),rhsMax =   1.20375862056044E-10  1.44995800962174E-02
 cg2d: Sum(rhs),rhsMax =   1.20422311011836E-10  1.45015511814662E-02
 cg2d: Sum(rhs),rhsMax =   1.20443252593638E-10  1.45035276188178E-02
 cg2d: Sum(rhs),rhsMax =   1.20473908626906E-10  1.45055096851270E-02
 cg2d: Sum(rhs),rhsMax =   1.20507409606674E-10  1.45074976522623E-02
 cg2d: Sum(rhs),rhsMax =   1.20542145709557E-10  1.45094917753074E-02
 cg2d: Sum(rhs),rhsMax =   1.20570761708017E-10  1.45114922942584E-02
 cg2d: Sum(rhs),rhsMax =   1.20608828479973E-10  1.45134994246926E-02
 cg2d: Sum(rhs),rhsMax =   1.20638110612248E-10  1.45155133667311E-02
 cg2d: Sum(rhs),rhsMax =   1.20661661218158E-10  1.45175342954088E-02
 cg2d: Sum(rhs),rhsMax =   1.20689722105105E-10  1.45195623687434E-02
 cg2d: Sum(rhs),rhsMax =   1.20717921769931E-10  1.45215977182928E-02
 cg2d: Sum(rhs),rhsMax =   1.20744816922702E-10  1.45236404521011E-02
 cg2d: Sum(rhs),rhsMax =   1.20769574896151E-10  1.45256909636369E-02
 cg2d: Sum(rhs),rhsMax =   1.20800328073933E-10  1.45277490345699E-02
 cg2d: Sum(rhs),rhsMax =   1.20827320371220E-10  1.45298147034125E-02
 cg2d: Sum(rhs),rhsMax =   1.20869286801550E-10  1.45318879250128E-02
 cg2d: Sum(rhs),rhsMax =   1.20885884635769E-10  1.45339686704770E-02
 cg2d: Sum(rhs),rhsMax =   1.20913903889353E-10  1.45360569160952E-02
 cg2d: Sum(rhs),rhsMax =   1.20941978654088E-10  1.45381526022388E-02
 cg2d: Sum(rhs),rhsMax =   1.20978282946993E-10  1.45402556401938E-02
 cg2d: Sum(rhs),rhsMax =   1.21017168508430E-10  1.45423659118245E-02
 cg2d: Sum(rhs),rhsMax =   1.21052293189372E-10  1.45444834822478E-02
 cg2d: Sum(rhs),rhsMax =   1.21093815530493E-10  1.45466079901124E-02
 cg2d: Sum(rhs),rhsMax =   1.21123125418343E-10  1.45487394641544E-02
 cg2d: Sum(rhs),rhsMax =   1.21161913835266E-10  1.45508777155576E-02
 Computing Diagnostic #    26 "THETA   " (list#  1) Parms "SMR     MR      ", Count=     144
 Computing Diagnostic #    27 "SALT    " (list#  1) Parms "SMR     MR      ", Count=     144
 Computing Diagnostic #    30 "UVEL    " (list#  1) Parms "UUR     MR      ", Count=     144
             Vector  Mate for "UVEL    " :  Diagnostic #     31 "VVEL    " exists
 Computing Diagnostic #    32 "WVEL    " (list#  1) Parms "WM      LR      ", Count=     144
 Computing Diagnostic #    31 "VVEL    " (list#  1) Parms "VVR     MR      ", Count=     144
             Vector  Mate for "VVEL    " :  Diagnostic #     30 "UVEL    " exists
 Computing Diagnostic #   197 "BRGfwFlx" (list#  2) Parms "SM      MR      ", Count=     144
 Computing Diagnostic #   198 "BRGhtFlx" (list#  2) Parms "SM      MR      ", Count=     144
 Computing Diagnostic #   199 "BRGmltRt" (list#  2) Parms "SM      MR      ", Count=     144
 Computing Diagnostic #   201 "BRG_TauX" (list#  2) Parms "UU      MR      ", Count=    1728
 Computing Diagnostic #   202 "BRG_TauY" (list#  2) Parms "VV      MR      ", Count=    1728
 Computing Diagnostic #   203 "BRGhFacC" (list#  2) Parms "SM      MR      ", Count=    1728
 cg2d: Sum(rhs),rhsMax =   1.21188628576796E-10  1.45530224953002E-02
 cg2d: Sum(rhs),rhsMax =   1.21225016136428E-10  1.45551735501048E-02
 cg2d: Sum(rhs),rhsMax =   1.21248122653128E-10  1.45573306181423E-02
 cg2d: Sum(rhs),rhsMax =   1.21281887310865E-10  1.45594934300832E-02
 cg2d: Sum(rhs),rhsMax =   1.21288007415288E-10  1.45616616946263E-02
 cg2d: Sum(rhs),rhsMax =   1.21317067502957E-10  1.45638351068193E-02
 cg2d: Sum(rhs),rhsMax =   1.21336149461193E-10  1.45660133379940E-02
 cg2d: Sum(rhs),rhsMax =   1.21363905036809E-10  1.45681960476644E-02
 cg2d: Sum(rhs),rhsMax =   1.21404344910481E-10  1.45703828840167E-02
 cg2d: Sum(rhs),rhsMax =   1.21429005739415E-10  1.45725734840707E-02
 cg2d: Sum(rhs),rhsMax =   1.21458204604963E-10  1.45747674753024E-02
 cg2d: Sum(rhs),rhsMax =   1.21489124316199E-10  1.45769644771790E-02
 cg2d: Sum(rhs),rhsMax =   1.21526025353980E-10  1.45791641060159E-02
 cg2d: Sum(rhs),rhsMax =   1.21559554089323E-10  1.45813659719679E-02
 cg2d: Sum(rhs),rhsMax =   1.21594193047692E-10  1.45835696849394E-02
 cg2d: Sum(rhs),rhsMax =   1.21623489057754E-10  1.45857748531201E-02
 cg2d: Sum(rhs),rhsMax =   1.21643306538743E-10  1.45879810843904E-02
 cg2d: Sum(rhs),rhsMax =   1.21680138187585E-10  1.45901879934809E-02
 cg2d: Sum(rhs),rhsMax =   1.21709753386767E-10  1.45923951971978E-02
 cg2d: Sum(rhs),rhsMax =   1.21737619984685E-10  1.45946023209838E-02
 cg2d: Sum(rhs),rhsMax =   1.21762752658405E-10  1.45968089977774E-02
 cg2d: Sum(rhs),rhsMax =   1.21790647011899E-10  1.45990148708248E-02
 cg2d: Sum(rhs),rhsMax =   1.21815821318982E-10  1.46012195950331E-02
 cg2d: Sum(rhs),rhsMax =   1.21826049248597E-10  1.46034228389619E-02
 cg2d: Sum(rhs),rhsMax =   1.21847032463762E-10  1.46056242632620E-02
 cg2d: Sum(rhs),rhsMax =   1.21866919333691E-10  1.46078235798469E-02
 cg2d: Sum(rhs),rhsMax =   1.21879520365020E-10  1.46100205285422E-02
 cg2d: Sum(rhs),rhsMax =   1.21911716832734E-10  1.46122148421485E-02
 cg2d: Sum(rhs),rhsMax =   1.21924428886366E-10  1.46144062680701E-02
 cg2d: Sum(rhs),rhsMax =   1.21958040888437E-10  1.46165945798465E-02
 cg2d: Sum(rhs),rhsMax =   1.21988419365948E-10  1.46187795766968E-02
 cg2d: Sum(rhs),rhsMax =   1.22021948101292E-10  1.46209610842359E-02
 cg2d: Sum(rhs),rhsMax =   1.22046858730407E-10  1.46231389475728E-02
 cg2d: Sum(rhs),rhsMax =   1.22078402942094E-10  1.46253130331569E-02
 cg2d: Sum(rhs),rhsMax =   1.22110085931659E-10  1.46274832411866E-02
 cg2d: Sum(rhs),rhsMax =   1.22149831915941E-10  1.46296494953946E-02
 cg2d: Sum(rhs),rhsMax =   1.22189813822615E-10  1.46318117429394E-02
 cg2d: Sum(rhs),rhsMax =   1.22212032160895E-10  1.46339699633986E-02
 cg2d: Sum(rhs),rhsMax =   1.22241675115653E-10  1.46361241555794E-02
 cg2d: Sum(rhs),rhsMax =   1.22257787227298E-10  1.46382743516062E-02
 cg2d: Sum(rhs),rhsMax =   1.22283252967925E-10  1.46404206048180E-02
 cg2d: Sum(rhs),rhsMax =   1.22317045381237E-10  1.46425629789914E-02
 cg2d: Sum(rhs),rhsMax =   1.22342566633016E-10  1.46447016359292E-02
 cg2d: Sum(rhs),rhsMax =   1.22375096167637E-10  1.46468366614052E-02
 cg2d: Sum(rhs),rhsMax =   1.22398632895759E-10  1.46489682050991E-02
 cg2d: Sum(rhs),rhsMax =   1.22428692184151E-10  1.46510964688907E-02
 cg2d: Sum(rhs),rhsMax =   1.22463233998005E-10  1.46531539160933E-02
 cg2d: Sum(rhs),rhsMax =   1.22494958620933E-10  1.46552088718809E-02
 cg2d: Sum(rhs),rhsMax =   1.22521603973524E-10  1.46572623269982E-02
 cg2d: Sum(rhs),rhsMax =   1.22541130020970E-10  1.46593144747893E-02
 cg2d: Sum(rhs),rhsMax =   1.22578100447690E-10  1.46613660559547E-02
 cg2d: Sum(rhs),rhsMax =   1.22591853335408E-10  1.46634176952714E-02
 cg2d: Sum(rhs),rhsMax =   1.22616916620188E-10  1.46654700086988E-02
 cg2d: Sum(rhs),rhsMax =   1.22645435474134E-10  1.46675236349980E-02
 cg2d: Sum(rhs),rhsMax =   1.22673510238869E-10  1.46695792014222E-02
 cg2d: Sum(rhs),rhsMax =   1.22712437433670E-10  1.46716373223426E-02
 cg2d: Sum(rhs),rhsMax =   1.22735821506126E-10  1.46736987083011E-02
 cg2d: Sum(rhs),rhsMax =   1.22755278164632E-10  1.46757639275199E-02
 cg2d: Sum(rhs),rhsMax =   1.22779869604628E-10  1.46778335865694E-02
 cg2d: Sum(rhs),rhsMax =   1.22796883772480E-10  1.46799083189530E-02
 cg2d: Sum(rhs),rhsMax =   1.22833104798659E-10  1.46819887324188E-02
 cg2d: Sum(rhs),rhsMax =   1.22868507035356E-10  1.46840754067067E-02
 cg2d: Sum(rhs),rhsMax =   1.22897914067721E-10  1.46861689023599E-02
 cg2d: Sum(rhs),rhsMax =   1.22937562907488E-10  1.46882697657612E-02
 cg2d: Sum(rhs),rhsMax =   1.22963361715023E-10  1.46903785236097E-02
 cg2d: Sum(rhs),rhsMax =   1.22989826656372E-10  1.46924956707237E-02
 cg2d: Sum(rhs),rhsMax =   1.23013807473704E-10  1.46946216809753E-02
 cg2d: Sum(rhs),rhsMax =   1.23046781097536E-10  1.46967569981600E-02
 cg2d: Sum(rhs),rhsMax =   1.23090981851703E-10  1.46989020399725E-02
 cg2d: Sum(rhs),rhsMax =   1.23115059813550E-10  1.47010571879395E-02
 cg2d: Sum(rhs),rhsMax =   1.23146590147449E-10  1.47032227989003E-02
 cg2d: Sum(rhs),rhsMax =   1.23181784217330E-10  1.47053985814124E-02
 cg2d: Sum(rhs),rhsMax =   1.23212301472719E-10  1.47075840022280E-02
 cg2d: Sum(rhs),rhsMax =   1.23243207306167E-10  1.47097793005872E-02
 cg2d: Sum(rhs),rhsMax =   1.23280205488463E-10  1.47119847118063E-02
 cg2d: Sum(rhs),rhsMax =   1.23304200183583E-10  1.47142004525363E-02
 cg2d: Sum(rhs),rhsMax =   1.23344126579106E-10  1.47164266930122E-02
 cg2d: Sum(rhs),rhsMax =   1.23382817851514E-10  1.47186635158618E-02
 cg2d: Sum(rhs),rhsMax =   1.23407853380719E-10  1.47209109543950E-02
 cg2d: Sum(rhs),rhsMax =   1.23437343679811E-10  1.47231690568365E-02
 cg2d: Sum(rhs),rhsMax =   1.23451970868160E-10  1.47254378604941E-02
 cg2d: Sum(rhs),rhsMax =   1.23475715763099E-10  1.47277173430025E-02
 cg2d: Sum(rhs),rhsMax =   1.23498822279799E-10  1.47300074310092E-02
 cg2d: Sum(rhs),rhsMax =   1.23527285622593E-10  1.47323080503372E-02
 cg2d: Sum(rhs),rhsMax =   1.23553264841370E-10  1.47346191132580E-02
 cg2d: Sum(rhs),rhsMax =   1.23577675870123E-10  1.47369405133880E-02
 cg2d: Sum(rhs),rhsMax =   1.23605611856981E-10  1.47392718286802E-02
 cg2d: Sum(rhs),rhsMax =   1.23635809923250E-10  1.47416128945568E-02
 cg2d: Sum(rhs),rhsMax =   1.23651922034895E-10  1.47439634853601E-02
 cg2d: Sum(rhs),rhsMax =   1.23688267961164E-10  1.47463233081385E-02
 cg2d: Sum(rhs),rhsMax =   1.23708751575968E-10  1.47486920375345E-02
 cg2d: Sum(rhs),rhsMax =   1.23737284307701E-10  1.47510693209124E-02
 cg2d: Sum(rhs),rhsMax =   1.23759502645981E-10  1.47534547732384E-02
 cg2d: Sum(rhs),rhsMax =   1.23786703110085E-10  1.47558479752888E-02
 cg2d: Sum(rhs),rhsMax =   1.23821869424390E-10  1.47582484821257E-02
 cg2d: Sum(rhs),rhsMax =   1.23831056519919E-10  1.47606558214338E-02
 cg2d: Sum(rhs),rhsMax =   1.23852872402352E-10  1.47630695941722E-02
 cg2d: Sum(rhs),rhsMax =   1.23881058189390E-10  1.47654892143149E-02
 cg2d: Sum(rhs),rhsMax =   1.23919013939044E-10  1.47679140759015E-02
 cg2d: Sum(rhs),rhsMax =   1.23927673678637E-10  1.47703436135171E-02
 cg2d: Sum(rhs),rhsMax =   1.23960813835922E-10  1.47727772842598E-02
 cg2d: Sum(rhs),rhsMax =   1.23992968670272E-10  1.47752145347356E-02
 cg2d: Sum(rhs),rhsMax =   1.24025331671440E-10  1.47776547970955E-02
 cg2d: Sum(rhs),rhsMax =   1.24037585758074E-10  1.47800974893486E-02
 cg2d: Sum(rhs),rhsMax =   1.24087864983302E-10  1.47825420211647E-02
 cg2d: Sum(rhs),rhsMax =   1.24107668586504E-10  1.47849877953373E-02
 cg2d: Sum(rhs),rhsMax =   1.24131455114806E-10  1.47874342127534E-02
 cg2d: Sum(rhs),rhsMax =   1.24149981961530E-10  1.47898806750303E-02
 cg2d: Sum(rhs),rhsMax =   1.24172408466627E-10  1.47923265867635E-02
 cg2d: Sum(rhs),rhsMax =   1.24196403161747E-10  1.47947713647957E-02
 cg2d: Sum(rhs),rhsMax =   1.24221299913074E-10  1.47972144352551E-02
 cg2d: Sum(rhs),rhsMax =   1.24255036815235E-10  1.47996552390434E-02
 cg2d: Sum(rhs),rhsMax =   1.24285304270444E-10  1.48020932389517E-02
 cg2d: Sum(rhs),rhsMax =   1.24322857564252E-10  1.48045279263074E-02
 cg2d: Sum(rhs),rhsMax =   1.24351320907046E-10  1.48069587880669E-02
 cg2d: Sum(rhs),rhsMax =   1.24380658550471E-10  1.48093853423550E-02
 cg2d: Sum(rhs),rhsMax =   1.24401988710332E-10  1.48118071073418E-02
 cg2d: Sum(rhs),rhsMax =   1.24427856906806E-10  1.48142237195438E-02
 cg2d: Sum(rhs),rhsMax =   1.24446342120166E-10  1.48166348213480E-02
 cg2d: Sum(rhs),rhsMax =   1.24469490270229E-10  1.48190400318898E-02
 cg2d: Sum(rhs),rhsMax =   1.24487531394379E-10  1.48214376979432E-02
 cg2d: Sum(rhs),rhsMax =   1.24511789767467E-10  1.48238288657154E-02
 cg2d: Sum(rhs),rhsMax =   1.24528914957622E-10  1.48262133029873E-02
 cg2d: Sum(rhs),rhsMax =   1.24552951286105E-10  1.48285908023731E-02
 cg2d: Sum(rhs),rhsMax =   1.24564997205923E-10  1.48309612070343E-02
 cg2d: Sum(rhs),rhsMax =   1.24594806694134E-10  1.48333243972091E-02
 cg2d: Sum(rhs),rhsMax =   1.24604826456931E-10  1.48356802917770E-02
 cg2d: Sum(rhs),rhsMax =   1.24644530807849E-10  1.48380287617609E-02
 cg2d: Sum(rhs),rhsMax =   1.24679447321974E-10  1.48403697863709E-02
 cg2d: Sum(rhs),rhsMax =   1.24691479364003E-10  1.48427034096758E-02
 cg2d: Sum(rhs),rhsMax =   1.24723731342868E-10  1.48450297122664E-02
 cg2d: Sum(rhs),rhsMax =   1.24746393770359E-10  1.48473488188556E-02
 cg2d: Sum(rhs),rhsMax =   1.24763352427060E-10  1.48496608846973E-02
 cg2d: Sum(rhs),rhsMax =   1.24787694066875E-10  1.48519661033727E-02
 cg2d: Sum(rhs),rhsMax =   1.24829951930749E-10  1.48542647043326E-02
 cg2d: Sum(rhs),rhsMax =   1.24852933547359E-10  1.48565569465570E-02
 cg2d: Sum(rhs),rhsMax =   1.24879079299589E-10  1.48588431172471E-02
 cg2d: Sum(rhs),rhsMax =   1.24911497811908E-10  1.48611237880155E-02
 cg2d: Sum(rhs),rhsMax =   1.24937560297411E-10  1.48633990399882E-02
 cg2d: Sum(rhs),rhsMax =   1.24962831749009E-10  1.48656692500166E-02
 cg2d: Sum(rhs),rhsMax =   1.25006408002726E-10  1.48679348093124E-02
 cg2d: Sum(rhs),rhsMax =   1.25045390708678E-10  1.48701961143058E-02
 cg2d: Sum(rhs),rhsMax =   1.25065263700819E-10  1.48724535761520E-02
 cg2d: Sum(rhs),rhsMax =   1.25079058221900E-10  1.48747076199233E-02
 Computing Diagnostic #    26 "THETA   " (list#  1) Parms "SMR     MR      ", Count=     144
 Computing Diagnostic #    27 "SALT    " (list#  1) Parms "SMR     MR      ", Count=     144
 Computing Diagnostic #    30 "UVEL    " (list#  1) Parms "UUR     MR      ", Count=     144
             Vector  Mate for "UVEL    " :  Diagnostic #     31 "VVEL    " exists
 Computing Diagnostic #    32 "WVEL    " (list#  1) Parms "WM      LR      ", Count=     144
 Computing Diagnostic #    31 "VVEL    " (list#  1) Parms "VVR     MR      ", Count=     144
             Vector  Mate for "VVEL    " :  Diagnostic #     30 "UVEL    " exists
 Computing Diagnostic #   197 "BRGfwFlx" (list#  2) Parms "SM      MR      ", Count=     144
 Computing Diagnostic #   198 "BRGhtFlx" (list#  2) Parms "SM      MR      ", Count=     144
 Computing Diagnostic #   199 "BRGmltRt" (list#  2) Parms "SM      MR      ", Count=     144
 Computing Diagnostic #   201 "BRG_TauX" (list#  2) Parms "UU      MR      ", Count=    1728
 Computing Diagnostic #   202 "BRG_TauY" (list#  2) Parms "VV      MR      ", Count=    1728
 Computing Diagnostic #   203 "BRGhFacC" (list#  2) Parms "SM      MR      ", Count=    1728
 cg2d: Sum(rhs),rhsMax =   1.25102372905417E-10  1.48769638402436E-02
 cg2d: Sum(rhs),rhsMax =   1.25139884565861E-10  1.48792176440969E-02
 cg2d: Sum(rhs),rhsMax =   1.25164281716827E-10  1.48814691777546E-02
 cg2d: Sum(rhs),rhsMax =   1.25195256939215E-10  1.48837189260287E-02
 cg2d: Sum(rhs),rhsMax =   1.25224233760157E-10  1.48859672980481E-02
 cg2d: Sum(rhs),rhsMax =   1.25244190019025E-10  1.48882146933066E-02
 cg2d: Sum(rhs),rhsMax =   1.25271792938975E-10  1.48904614777112E-02
 cg2d: Sum(rhs),rhsMax =   1.25295954167548E-10  1.48927080250265E-02
 cg2d: Sum(rhs),rhsMax =   1.25322821564744E-10  1.48949546811126E-02
 cg2d: Sum(rhs),rhsMax =   1.25339849610384E-10  1.48972017659327E-02
 cg2d: Sum(rhs),rhsMax =   1.25358348701532E-10  1.48994495747044E-02
 cg2d: Sum(rhs),rhsMax =   1.25384091997915E-10  1.49016983736731E-02
 cg2d: Sum(rhs),rhsMax =   1.25418828100798E-10  1.49039483962278E-02
 cg2d: Sum(rhs),rhsMax =   1.25450122512305E-10  1.49061998438860E-02
 cg2d: Sum(rhs),rhsMax =   1.25482568780200E-10  1.49084528695879E-02
 cg2d: Sum(rhs),rhsMax =   1.25503579750941E-10  1.49107076047082E-02
 cg2d: Sum(rhs),rhsMax =   1.25530197347956E-10  1.49129641257583E-02
 cg2d: Sum(rhs),rhsMax =   1.25556190444520E-10  1.49152224587549E-02
 cg2d: Sum(rhs),rhsMax =   1.25569693532057E-10  1.49174825882151E-02
 cg2d: Sum(rhs),rhsMax =   1.25599156075573E-10  1.49197444512980E-02
 cg2d: Sum(rhs),rhsMax =   1.25632226843919E-10  1.49220079384825E-02
 cg2d: Sum(rhs),rhsMax =   1.25650240212494E-10  1.49242728853936E-02
 cg2d: Sum(rhs),rhsMax =   1.25679355811315E-10  1.49265390840412E-02
 cg2d: Sum(rhs),rhsMax =   1.25715202137222E-10  1.49288062411044E-02
 cg2d: Sum(rhs),rhsMax =   1.25737975587015E-10  1.49310740692599E-02
 cg2d: Sum(rhs),rhsMax =   1.25755378332926E-10  1.49333422446369E-02
 cg2d: Sum(rhs),rhsMax =   1.25781662863034E-10  1.49355930193513E-02
 cg2d: Sum(rhs),rhsMax =   1.25819327179144E-10  1.49378426020475E-02
 cg2d: Sum(rhs),rhsMax =   1.25843016562932E-10  1.49400914490179E-02
 cg2d: Sum(rhs),rhsMax =   1.25863500177736E-10  1.49423388259843E-02
 cg2d: Sum(rhs),rhsMax =   1.25896806868475E-10  1.49445841537690E-02
 cg2d: Sum(rhs),rhsMax =   1.25915750048833E-10  1.49468268307950E-02
 cg2d: Sum(rhs),rhsMax =   1.25962060226747E-10  1.49490662076076E-02
 cg2d: Sum(rhs),rhsMax =   1.25982613230491E-10  1.49513015898652E-02
 cg2d: Sum(rhs),rhsMax =   1.26009244705294E-10  1.49535322365085E-02
 cg2d: Sum(rhs),rhsMax =   1.26037361103393E-10  1.49557573619938E-02
 cg2d: Sum(rhs),rhsMax =   1.26068572248172E-10  1.49579761464049E-02
 cg2d: Sum(rhs),rhsMax =   1.26086918683654E-10  1.49601877536721E-02
 cg2d: Sum(rhs),rhsMax =   1.26087723595347E-10  1.49623912476936E-02
 cg2d: Sum(rhs),rhsMax =   1.26119586996154E-10  1.49645857429796E-02
 cg2d: Sum(rhs),rhsMax =   1.26143179235427E-10  1.49667703305654E-02
 cg2d: Sum(rhs),rhsMax =   1.26176014081381E-10  1.49689440341982E-02
 cg2d: Sum(rhs),rhsMax =   1.26196997296546E-10  1.49711058682176E-02
 cg2d: Sum(rhs),rhsMax =   1.26221491592027E-10  1.49732548451504E-02
 cg2d: Sum(rhs),rhsMax =   1.26248123066830E-10  1.49753898878218E-02
 cg2d: Sum(rhs),rhsMax =   1.26277932555041E-10  1.49775099902814E-02
 cg2d: Sum(rhs),rhsMax =   1.26297125535579E-10  1.49796141471648E-02
 cg2d: Sum(rhs),rhsMax =   1.26311114345690E-10  1.49817013613100E-02
 cg2d: Sum(rhs),rhsMax =   1.26342505901711E-10  1.49837706404390E-02
 cg2d: Sum(rhs),rhsMax =   1.26371288433624E-10  1.49858210100735E-02
 cg2d: Sum(rhs),rhsMax =   1.26404497979848E-10  1.49878515500444E-02
 cg2d: Sum(rhs),rhsMax =   1.26424246071899E-10  1.49898613134683E-02
 cg2d: Sum(rhs),rhsMax =   1.26451099591307E-10  1.49918494460727E-02
 cg2d: Sum(rhs),rhsMax =   1.26489915763806E-10  1.49938150887450E-02
 cg2d: Sum(rhs),rhsMax =   1.26510246722944E-10  1.49957574203794E-02
 cg2d: Sum(rhs),rhsMax =   1.26528745814092E-10  1.49976756723914E-02
 cg2d: Sum(rhs),rhsMax =   1.26552268664426E-10  1.49995691199982E-02
 cg2d: Sum(rhs),rhsMax =   1.26593235894035E-10  1.50014370849812E-02
 cg2d: Sum(rhs),rhsMax =   1.26630914087933E-10  1.50032789407146E-02
 cg2d: Sum(rhs),rhsMax =   1.26657226373617E-10  1.50050941131833E-02
 cg2d: Sum(rhs),rhsMax =   1.26691726554107E-10  1.50068820984364E-02
 cg2d: Sum(rhs),rhsMax =   1.26710239523042E-10  1.50086424521741E-02
 cg2d: Sum(rhs),rhsMax =   1.26746960149582E-10  1.50103747978817E-02
 cg2d: Sum(rhs),rhsMax =   1.26778129660998E-10  1.50120788224607E-02
 cg2d: Sum(rhs),rhsMax =   1.26806093403431E-10  1.50137542841491E-02
 cg2d: Sum(rhs),rhsMax =   1.26847990444823E-10  1.50154010147046E-02
 cg2d: Sum(rhs),rhsMax =   1.26882573892040E-10  1.50170189316547E-02
 cg2d: Sum(rhs),rhsMax =   1.26919988407970E-10  1.50186080267894E-02
 cg2d: Sum(rhs),rhsMax =   1.26955848611665E-10  1.50201683702210E-02
 cg2d: Sum(rhs),rhsMax =   1.26977525716221E-10  1.50217001380323E-02
 cg2d: Sum(rhs),rhsMax =   1.27017132922624E-10  1.50232034212661E-02
 cg2d: Sum(rhs),rhsMax =   1.27050703291332E-10  1.50246786661939E-02
 cg2d: Sum(rhs),rhsMax =   1.27079638478911E-10  1.50261262401144E-02
 cg2d: Sum(rhs),rhsMax =   1.27107838143736E-10  1.50275465798795E-02
 cg2d: Sum(rhs),rhsMax =   1.27135718619442E-10  1.50289402231993E-02
 cg2d: Sum(rhs),rhsMax =   1.27163085616999E-10  1.50303077921990E-02
 cg2d: Sum(rhs),rhsMax =   1.27206190025930E-10  1.50316499811951E-02
 cg2d: Sum(rhs),rhsMax =   1.27234486835270E-10  1.50329675611507E-02
 cg2d: Sum(rhs),rhsMax =   1.27259328075446E-10  1.50342613762490E-02
 cg2d: Sum(rhs),rhsMax =   1.27287000384335E-10  1.50355323386967E-02
 cg2d: Sum(rhs),rhsMax =   1.27321653220491E-10  1.50367814336657E-02
 cg2d: Sum(rhs),rhsMax =   1.27359151003148E-10  1.50380097077743E-02
 cg2d: Sum(rhs),rhsMax =   1.27398189220251E-10  1.50392182699604E-02
 cg2d: Sum(rhs),rhsMax =   1.27434465757581E-10  1.50404082870739E-02
 cg2d: Sum(rhs),rhsMax =   1.27470020649945E-10  1.50415809754707E-02
 cg2d: Sum(rhs),rhsMax =   1.27510460523617E-10  1.50427376051916E-02
 cg2d: Sum(rhs),rhsMax =   1.27546376238463E-10  1.50438794827704E-02
 cg2d: Sum(rhs),rhsMax =   1.27581417652678E-10  1.50450070223744E-02
 cg2d: Sum(rhs),rhsMax =   1.27631183399757E-10  1.50461225246437E-02
 cg2d: Sum(rhs),rhsMax =   1.27669222416138E-10  1.50472274541917E-02
 cg2d: Sum(rhs),rhsMax =   1.27698615570715E-10  1.50483232564869E-02
 cg2d: Sum(rhs),rhsMax =   1.27730631627188E-10  1.50494113932231E-02
 cg2d: Sum(rhs),rhsMax =   1.27757388002081E-10  1.50504933425890E-02
 cg2d: Sum(rhs),rhsMax =   1.27780536152144E-10  1.50515705913036E-02
 cg2d: Sum(rhs),rhsMax =   1.27836533025949E-10  1.50526651429462E-02
 cg2d: Sum(rhs),rhsMax =   1.27873309163640E-10  1.50538512017088E-02
 cg2d: Sum(rhs),rhsMax =   1.27907490155010E-10  1.50550356040539E-02
 cg2d: Sum(rhs),rhsMax =   1.27938493132973E-10  1.50562186977337E-02
 cg2d: Sum(rhs),rhsMax =   1.27972507590890E-10  1.50574012080956E-02
 cg2d: Sum(rhs),rhsMax =   1.28012642153230E-10  1.50585834566832E-02
 cg2d: Sum(rhs),rhsMax =   1.28035373969659E-10  1.50597659248279E-02
 cg2d: Sum(rhs),rhsMax =   1.28071206417779E-10  1.50609490412896E-02
 cg2d: Sum(rhs),rhsMax =   1.28112007113934E-10  1.50621333046728E-02
 cg2d: Sum(rhs),rhsMax =   1.28136320998173E-10  1.50633192259958E-02
 cg2d: Sum(rhs),rhsMax =   1.28190236203807E-10  1.50645072853388E-02
 cg2d: Sum(rhs),rhsMax =   1.28219143635810E-10  1.50656979664258E-02
 cg2d: Sum(rhs),rhsMax =   1.28245275510253E-10  1.50668917577686E-02
 cg2d: Sum(rhs),rhsMax =   1.28283064726453E-10  1.50680891582276E-02
 cg2d: Sum(rhs),rhsMax =   1.28311597458186E-10  1.50692906627930E-02
 cg2d: Sum(rhs),rhsMax =   1.28348429107028E-10  1.50704967607320E-02
 cg2d: Sum(rhs),rhsMax =   1.28389063269729E-10  1.50717079359822E-02
 cg2d: Sum(rhs),rhsMax =   1.28428254142499E-10  1.50729247041710E-02
 cg2d: Sum(rhs),rhsMax =   1.28455079906331E-10  1.50741475801282E-02
 cg2d: Sum(rhs),rhsMax =   1.28494576090432E-10  1.50753770686327E-02
 cg2d: Sum(rhs),rhsMax =   1.28531171816881E-10  1.50766136702262E-02
 cg2d: Sum(rhs),rhsMax =   1.28563049095476E-10  1.50778578809504E-02
 cg2d: Sum(rhs),rhsMax =   1.28587723802198E-10  1.50791101630800E-02
 cg2d: Sum(rhs),rhsMax =   1.28622293371627E-10  1.50803710397733E-02
 cg2d: Sum(rhs),rhsMax =   1.28666424736856E-10  1.50816491929646E-02
 cg2d: Sum(rhs),rhsMax =   1.28717203562445E-10  1.50829628342571E-02
 cg2d: Sum(rhs),rhsMax =   1.28750052286186E-10  1.50842864647329E-02
 cg2d: Sum(rhs),rhsMax =   1.28784538588889E-10  1.50856206328171E-02
 cg2d: Sum(rhs),rhsMax =   1.28823049450055E-10  1.50869658412024E-02
 cg2d: Sum(rhs),rhsMax =   1.28862115422734E-10  1.50883224350894E-02
 cg2d: Sum(rhs),rhsMax =   1.28902610807557E-10  1.50896907977282E-02
 cg2d: Sum(rhs),rhsMax =   1.28940122468002E-10  1.50910713069419E-02
 cg2d: Sum(rhs),rhsMax =   1.28967544976710E-10  1.50924643232387E-02
 cg2d: Sum(rhs),rhsMax =   1.29004237847674E-10  1.50938701852133E-02
 cg2d: Sum(rhs),rhsMax =   1.29029731343877E-10  1.50952892090987E-02
 cg2d: Sum(rhs),rhsMax =   1.29068561394163E-10  1.50967216796599E-02
 cg2d: Sum(rhs),rhsMax =   1.29100785617453E-10  1.50981678686698E-02
 cg2d: Sum(rhs),rhsMax =   1.29140073634737E-10  1.50996280104764E-02
 cg2d: Sum(rhs),rhsMax =   1.29172048057846E-10  1.51011023083262E-02
 cg2d: Sum(rhs),rhsMax =   1.29206687016215E-10  1.51025909449007E-02
 cg2d: Sum(rhs),rhsMax =   1.29243490909481E-10  1.51040940697192E-02
 cg2d: Sum(rhs),rhsMax =   1.29282418104282E-10  1.51056118038424E-02
 cg2d: Sum(rhs),rhsMax =   1.29315738672808E-10  1.51071442341050E-02
 cg2d: Sum(rhs),rhsMax =   1.29347324517859E-10  1.51086914079212E-02
 cg2d: Sum(rhs),rhsMax =   1.29377911162187E-10  1.51102533456271E-02
 cg2d: Sum(rhs),rhsMax =   1.29414756688817E-10  1.51118300328292E-02
 cg2d: Sum(rhs),rhsMax =   1.29446800500865E-10  1.51134214191868E-02
 cg2d: Sum(rhs),rhsMax =   1.29476346311108E-10  1.51150274154139E-02
 cg2d: Sum(rhs),rhsMax =   1.29518673563922E-10  1.51166478908861E-02
 cg2d: Sum(rhs),rhsMax =   1.29547275684594E-10  1.51182826851609E-02
 Computing Diagnostic #    26 "THETA   " (list#  1) Parms "SMR     MR      ", Count=     144
 Computing Diagnostic #    27 "SALT    " (list#  1) Parms "SMR     MR      ", Count=     144
 Computing Diagnostic #    30 "UVEL    " (list#  1) Parms "UUR     MR      ", Count=     144
             Vector  Mate for "UVEL    " :  Diagnostic #     31 "VVEL    " exists
 Computing Diagnostic #    32 "WVEL    " (list#  1) Parms "WM      LR      ", Count=     144
 Computing Diagnostic #    31 "VVEL    " (list#  1) Parms "VVR     MR      ", Count=     144
             Vector  Mate for "VVEL    " :  Diagnostic #     30 "UVEL    " exists
 Computing Diagnostic #   197 "BRGfwFlx" (list#  2) Parms "SM      MR      ", Count=     144
 Computing Diagnostic #   198 "BRGhtFlx" (list#  2) Parms "SM      MR      ", Count=     144
 Computing Diagnostic #   199 "BRGmltRt" (list#  2) Parms "SM      MR      ", Count=     144
 Computing Diagnostic #   201 "BRG_TauX" (list#  2) Parms "UU      MR      ", Count=    1728
 Computing Diagnostic #   202 "BRG_TauY" (list#  2) Parms "VV      MR      ", Count=    1728
 Computing Diagnostic #   203 "BRGhFacC" (list#  2) Parms "SM      MR      ", Count=    1728
 cg2d: Sum(rhs),rhsMax =   1.29566066209286E-10  1.51199308571343E-02
 cg2d: Sum(rhs),rhsMax =   1.29588242914203E-10  1.51215929478066E-02
 cg2d: Sum(rhs),rhsMax =   1.29636523737986E-10  1.51232687030757E-02
 cg2d: Sum(rhs),rhsMax =   1.29673521920282E-10  1.51249578165587E-02
 cg2d: Sum(rhs),rhsMax =   1.29690799766102E-10  1.51266599609992E-02
 cg2d: Sum(rhs),rhsMax =   1.29708868645828E-10  1.51283747761916E-02
 cg2d: Sum(rhs),rhsMax =   1.29743951693406E-10  1.51301018706155E-02
 cg2d: Sum(rhs),rhsMax =   1.29767127599045E-10  1.51318408165014E-02
 cg2d: Sum(rhs),rhsMax =   1.29791843939131E-10  1.51335911580171E-02
 cg2d: Sum(rhs),rhsMax =   1.29820834637862E-10  1.51353524030605E-02
 cg2d: Sum(rhs),rhsMax =   1.29864521913881E-10  1.51371240406997E-02
 cg2d: Sum(rhs),rhsMax =   1.29894248135365E-10  1.51389055286741E-02
 cg2d: Sum(rhs),rhsMax =   1.29924015990213E-10  1.51406962995878E-02
 cg2d: Sum(rhs),rhsMax =   1.29944444093866E-10  1.51424957679577E-02
 cg2d: Sum(rhs),rhsMax =   1.29988866892639E-10  1.51443033237742E-02
 cg2d: Sum(rhs),rhsMax =   1.30001995279905E-10  1.51461183321481E-02
 cg2d: Sum(rhs),rhsMax =   1.30042282497911E-10  1.51479401532344E-02
 cg2d: Sum(rhs),rhsMax =   1.30081431737317E-10  1.51497681389015E-02
 cg2d: Sum(rhs),rhsMax =   1.30112101648372E-10  1.51516016220368E-02
 cg2d: Sum(rhs),rhsMax =   1.30138497200782E-10  1.51534399227222E-02
 cg2d: Sum(rhs),rhsMax =   1.30161145750485E-10  1.51552823512919E-02
 cg2d: Sum(rhs),rhsMax =   1.30191385450118E-10  1.51571282167932E-02
 cg2d: Sum(rhs),rhsMax =   1.30228106076657E-10  1.51589768317847E-02
 cg2d: Sum(rhs),rhsMax =   1.30266908371368E-10  1.51608275057484E-02
 cg2d: Sum(rhs),rhsMax =   1.30292540645449E-10  1.51626795526726E-02
 cg2d: Sum(rhs),rhsMax =   1.30326416325488E-10  1.51645333865452E-02
 cg2d: Sum(rhs),rhsMax =   1.30361652028732E-10  1.51663872733323E-02
 cg2d: Sum(rhs),rhsMax =   1.30381636043175E-10  1.51682404909198E-02
 cg2d: Sum(rhs),rhsMax =   1.30410904297662E-10  1.51700924017066E-02
 cg2d: Sum(rhs),rhsMax =   1.30453467472869E-10  1.51719423706710E-02
 cg2d: Sum(rhs),rhsMax =   1.30482610827265E-10  1.51737897885931E-02
 cg2d: Sum(rhs),rhsMax =   1.30514835050555E-10  1.51756340642750E-02
 cg2d: Sum(rhs),rhsMax =   1.30546823351452E-10  1.51774746101383E-02
 cg2d: Sum(rhs),rhsMax =   1.30582850088601E-10  1.51793108696531E-02
 cg2d: Sum(rhs),rhsMax =   1.30615324112071E-10  1.51811423235291E-02
 cg2d: Sum(rhs),rhsMax =   1.30650906760010E-10  1.51829684846381E-02
 cg2d: Sum(rhs),rhsMax =   1.30679203569350E-10  1.51847888996974E-02
 cg2d: Sum(rhs),rhsMax =   1.30697994094042E-10  1.51866031378810E-02
 cg2d: Sum(rhs),rhsMax =   1.30742680570783E-10  1.51884108071091E-02
 cg2d: Sum(rhs),rhsMax =   1.30761623751141E-10  1.51902115541331E-02
 cg2d: Sum(rhs),rhsMax =   1.30807004117273E-10  1.51920050542150E-02
 cg2d: Sum(rhs),rhsMax =   1.30836216860608E-10  1.51937910277206E-02
 cg2d: Sum(rhs),rhsMax =   1.30863431202499E-10  1.51955692324555E-02
 cg2d: Sum(rhs),rhsMax =   1.30898070160868E-10  1.51973394636389E-02
 cg2d: Sum(rhs),rhsMax =   1.30923105690073E-10  1.51991015587194E-02
 cg2d: Sum(rhs),rhsMax =   1.30955607469119E-10  1.52008553960891E-02
 cg2d: Sum(rhs),rhsMax =   1.30976868240040E-10  1.52026008912019E-02
 cg2d: Sum(rhs),rhsMax =   1.31020097549062E-10  1.52043380061379E-02
 cg2d: Sum(rhs),rhsMax =   1.31035751693709E-10  1.52060667398556E-02
 cg2d: Sum(rhs),rhsMax =   1.31066477115915E-10  1.52077871332079E-02
 cg2d: Sum(rhs),rhsMax =   1.31108304768368E-10  1.52094992536877E-02
 cg2d: Sum(rhs),rhsMax =   1.31132729674910E-10  1.52112032240792E-02
 cg2d: Sum(rhs),rhsMax =   1.31169103356754E-10  1.52128991999741E-02
 cg2d: Sum(rhs),rhsMax =   1.31192265384605E-10  1.52145873686229E-02
 cg2d: Sum(rhs),rhsMax =   1.31223448773810E-10  1.52162679509360E-02
 cg2d: Sum(rhs),rhsMax =   1.31250871282518E-10  1.52179412100242E-02
 cg2d: Sum(rhs),rhsMax =   1.31277821946441E-10  1.52196074320326E-02
 cg2d: Sum(rhs),rhsMax =   1.31305799566661E-10  1.52212665869791E-02
 cg2d: Sum(rhs),rhsMax =   1.31334831898755E-10  1.52229193773410E-02
 cg2d: Sum(rhs),rhsMax =   1.31360852750895E-10  1.52245661808975E-02
 cg2d: Sum(rhs),rhsMax =   1.31392632884975E-10  1.52262073981114E-02
 cg2d: Sum(rhs),rhsMax =   1.31438165906772E-10  1.52278434515801E-02
 cg2d: Sum(rhs),rhsMax =   1.31460634045233E-10  1.52294747841741E-02
 cg2d: Sum(rhs),rhsMax =   1.31476940445907E-10  1.52311018537029E-02
 cg2d: Sum(rhs),rhsMax =   1.31509511613892E-10  1.52327250041276E-02
 cg2d: Sum(rhs),rhsMax =   1.31525720870052E-10  1.52343446893587E-02
 cg2d: Sum(rhs),rhsMax =   1.31546634696278E-10  1.52359614059589E-02
 cg2d: Sum(rhs),rhsMax =   1.31575181305799E-10  1.52375756619541E-02
 cg2d: Sum(rhs),rhsMax =   1.31591557095412E-10  1.52391879691367E-02
 cg2d: Sum(rhs),rhsMax =   1.31636646027999E-10  1.52407989980159E-02
 cg2d: Sum(rhs),rhsMax =   1.31661292979146E-10  1.52424091581459E-02
 cg2d: Sum(rhs),rhsMax =   1.31695085392458E-10  1.52440191370255E-02
 cg2d: Sum(rhs),rhsMax =   1.31733762787078E-10  1.52456297312492E-02
 cg2d: Sum(rhs),rhsMax =   1.31765487410007E-10  1.52472411539272E-02
 cg2d: Sum(rhs),rhsMax =   1.31799418601197E-10  1.52488539006691E-02
 cg2d: Sum(rhs),rhsMax =   1.31829380745074E-10  1.52504684570089E-02
 cg2d: Sum(rhs),rhsMax =   1.31862062935362E-10  1.52520852800395E-02
 cg2d: Sum(rhs),rhsMax =   1.31883490239737E-10  1.52537048101693E-02
 cg2d: Sum(rhs),rhsMax =   1.31913258094585E-10  1.52553274703950E-02
 cg2d: Sum(rhs),rhsMax =   1.31944566383879E-10  1.52569536573313E-02
 cg2d: Sum(rhs),rhsMax =   1.31980801287845E-10  1.52585837362130E-02
 cg2d: Sum(rhs),rhsMax =   1.31999106089964E-10  1.52602180479107E-02
 cg2d: Sum(rhs),rhsMax =   1.32030816835105E-10  1.52618568980205E-02
 cg2d: Sum(rhs),rhsMax =   1.32073393888099E-10  1.52635005592320E-02
 cg2d: Sum(rhs),rhsMax =   1.32099303717936E-10  1.52651492670726E-02
 cg2d: Sum(rhs),rhsMax =   1.32126767860008E-10  1.52668032253131E-02
 cg2d: Sum(rhs),rhsMax =   1.32158978205510E-10  1.52684625956898E-02
 cg2d: Sum(rhs),rhsMax =   1.32192090607219E-10  1.52701275055448E-02
 cg2d: Sum(rhs),rhsMax =   1.32224606264053E-10  1.52717980437360E-02
 cg2d: Sum(rhs),rhsMax =   1.32255498219713E-10  1.52734742553845E-02
 cg2d: Sum(rhs),rhsMax =   1.32275135289461E-10  1.52751561515031E-02
 cg2d: Sum(rhs),rhsMax =   1.32317698464668E-10  1.52768436980745E-02
 cg2d: Sum(rhs),rhsMax =   1.32355015836083E-10  1.52785368352896E-02
 cg2d: Sum(rhs),rhsMax =   1.32382119155672E-10  1.52802354090016E-02
 cg2d: Sum(rhs),rhsMax =   1.32413288667088E-10  1.52819393247582E-02
 cg2d: Sum(rhs),rhsMax =   1.32446192901980E-10  1.52836483859328E-02
 cg2d: Sum(rhs),rhsMax =   1.32484218040574E-10  1.52853623634840E-02
 cg2d: Sum(rhs),rhsMax =   1.32532748664538E-10  1.52870809977818E-02
 cg2d: Sum(rhs),rhsMax =   1.32563182653200E-10  1.52888039982515E-02
 cg2d: Sum(rhs),rhsMax =   1.32583805045883E-10  1.52905310413559E-02
 cg2d: Sum(rhs),rhsMax =   1.32609340175449E-10  1.52922617724337E-02
 cg2d: Sum(rhs),rhsMax =   1.32652833162439E-10  1.52939958083435E-02
 cg2d: Sum(rhs),rhsMax =   1.32681365894172E-10  1.52957327370487E-02
 cg2d: Sum(rhs),rhsMax =   1.32720681667031E-10  1.52974721232837E-02
 cg2d: Sum(rhs),rhsMax =   1.32757901893932E-10  1.52992135113468E-02
 cg2d: Sum(rhs),rhsMax =   1.32791402873700E-10  1.53009564209468E-02
 cg2d: Sum(rhs),rhsMax =   1.32822086662543E-10  1.53027003577334E-02
 cg2d: Sum(rhs),rhsMax =   1.32864746982264E-10  1.53044448085193E-02
 cg2d: Sum(rhs),rhsMax =   1.32890490278648E-10  1.53061892451824E-02
 cg2d: Sum(rhs),rhsMax =   1.32930402796383E-10  1.53079330051091E-02
 cg2d: Sum(rhs),rhsMax =   1.32968358546037E-10  1.53096754459442E-02
 cg2d: Sum(rhs),rhsMax =   1.32990590762105E-10  1.53114162279510E-02
 cg2d: Sum(rhs),rhsMax =   1.33021177406434E-10  1.53131547976037E-02
 cg2d: Sum(rhs),rhsMax =   1.33049918304984E-10  1.53148906037892E-02
 cg2d: Sum(rhs),rhsMax =   1.33079158803895E-10  1.53166231005965E-02
 cg2d: Sum(rhs),rhsMax =   1.33110758526733E-10  1.53183517452786E-02
 cg2d: Sum(rhs),rhsMax =   1.33151836778644E-10  1.53200760090949E-02
 cg2d: Sum(rhs),rhsMax =   1.33189098638908E-10  1.53217953729889E-02
 cg2d: Sum(rhs),rhsMax =   1.33223862497367E-10  1.53235093289156E-02
 cg2d: Sum(rhs),rhsMax =   1.33257294088196E-10  1.53252173968155E-02
 cg2d: Sum(rhs),rhsMax =   1.33295763315999E-10  1.53269190641788E-02
 cg2d: Sum(rhs),rhsMax =   1.33323144191344E-10  1.53286139223602E-02
 cg2d: Sum(rhs),rhsMax =   1.33354410847275E-10  1.53303015807427E-02
 cg2d: Sum(rhs),rhsMax =   1.33387509371197E-10  1.53319816334084E-02
 cg2d: Sum(rhs),rhsMax =   1.33414820857602E-10  1.53336536976314E-02
 cg2d: Sum(rhs),rhsMax =   1.33457522810687E-10  1.53353174431709E-02
 cg2d: Sum(rhs),rhsMax =   1.33494881815466E-10  1.53369725454523E-02
 cg2d: Sum(rhs),rhsMax =   1.33532865320696E-10  1.53386187386938E-02
 cg2d: Sum(rhs),rhsMax =   1.33569669213962E-10  1.53402557948352E-02
 cg2d: Sum(rhs),rhsMax =   1.33606306573775E-10  1.53418835049518E-02
 cg2d: Sum(rhs),rhsMax =   1.33639627142301E-10  1.53435017029493E-02
 cg2d: Sum(rhs),rhsMax =   1.33669075808029E-10  1.53451102573581E-02
 cg2d: Sum(rhs),rhsMax =   1.33694846859989E-10  1.53467090748099E-02
 cg2d: Sum(rhs),rhsMax =   1.33713151662107E-10  1.53482981046447E-02
 cg2d: Sum(rhs),rhsMax =   1.33745362007609E-10  1.53498773362318E-02
 cg2d: Sum(rhs),rhsMax =   1.33784650024893E-10  1.53514467945698E-02
 cg2d: Sum(rhs),rhsMax =   1.33807478985837E-10  1.53530065521876E-02
 cg2d: Sum(rhs),rhsMax =   1.33843422456259E-10  1.53545567034246E-02
 cg2d: Sum(rhs),rhsMax =   1.33877381403025E-10  1.53560973616721E-02
 cg2d: Sum(rhs),rhsMax =   1.33921207456922E-10  1.53576287555707E-02
 cg2d: Sum(rhs),rhsMax =   1.33947172797910E-10  1.53591510908405E-02
 cg2d: Sum(rhs),rhsMax =   1.33989208617180E-10  1.53606646036241E-02
 cg2d: Sum(rhs),rhsMax =   1.34026970077805E-10  1.53621695768707E-02
 cg2d: Sum(rhs),rhsMax =   1.34067798529536E-10  1.53636663258921E-02
 Computing Diagnostic #    26 "THETA   " (list#  1) Parms "SMR     MR      ", Count=     144
 Computing Diagnostic #    27 "SALT    " (list#  1) Parms "SMR     MR      ", Count=     144
 Computing Diagnostic #    30 "UVEL    " (list#  1) Parms "UUR     MR      ", Count=     144
             Vector  Mate for "UVEL    " :  Diagnostic #     31 "VVEL    " exists
 Computing Diagnostic #    32 "WVEL    " (list#  1) Parms "WM      LR      ", Count=     144
 Computing Diagnostic #    31 "VVEL    " (list#  1) Parms "VVR     MR      ", Count=     144
             Vector  Mate for "VVEL    " :  Diagnostic #     30 "UVEL    " exists
 Computing Diagnostic #   197 "BRGfwFlx" (list#  2) Parms "SM      MR      ", Count=     144
 Computing Diagnostic #   198 "BRGhtFlx" (list#  2) Parms "SM      MR      ", Count=     144
 Computing Diagnostic #   199 "BRGmltRt" (list#  2) Parms "SM      MR      ", Count=     144
 Computing Diagnostic #   201 "BRG_TauX" (list#  2) Parms "UU      MR      ", Count=    1728
 Computing Diagnostic #   202 "BRG_TauY" (list#  2) Parms "VV      MR      ", Count=    1728
 Computing Diagnostic #   203 "BRGhFacC" (list#  2) Parms "SM      MR      ", Count=    1728
 cg2d: Sum(rhs),rhsMax =   1.34103367299687E-10  1.53651551935869E-02
 cg2d: Sum(rhs),rhsMax =   1.34134883755799E-10  1.53666365502858E-02
 cg2d: Sum(rhs),rhsMax =   1.34156935560625E-10  1.53681107940906E-02
 cg2d: Sum(rhs),rhsMax =   1.34199484858044E-10  1.53695783331460E-02
 cg2d: Sum(rhs),rhsMax =   1.34232458481875E-10  1.53710396404214E-02
 cg2d: Sum(rhs),rhsMax =   1.34280059294056E-10  1.53724951377086E-02
 cg2d: Sum(rhs),rhsMax =   1.34320110589670E-10  1.53739453019543E-02
 cg2d: Sum(rhs),rhsMax =   1.34357247549843E-10  1.53753906207053E-02
 cg2d: Sum(rhs),rhsMax =   1.34396924145186E-10  1.53768316035522E-02
 cg2d: Sum(rhs),rhsMax =   1.34432548426489E-10  1.53782687515809E-02
 cg2d: Sum(rhs),rhsMax =   1.34468602919213E-10  1.53797025900068E-02
 cg2d: Sum(rhs),rhsMax =   1.34503116977491E-10  1.53811336472332E-02
 cg2d: Sum(rhs),rhsMax =   1.34541586205295E-10  1.53825624568948E-02
 cg2d: Sum(rhs),rhsMax =   1.34574337784521E-10  1.53839895531567E-02
 cg2d: Sum(rhs),rhsMax =   1.34613584168441E-10  1.53854154714262E-02
 cg2d: Sum(rhs),rhsMax =   1.34646363503244E-10  1.53868406675280E-02
 cg2d: Sum(rhs),rhsMax =   1.34684985386713E-10  1.53882656888167E-02
 cg2d: Sum(rhs),rhsMax =   1.34714711608197E-10  1.53896910994435E-02
 cg2d: Sum(rhs),rhsMax =   1.34742425550449E-10  1.53911174104265E-02
 cg2d: Sum(rhs),rhsMax =   1.34770514192972E-10  1.53925450869391E-02
 cg2d: Sum(rhs),rhsMax =   1.34813812890933E-10  1.53939745829770E-02
 cg2d: Sum(rhs),rhsMax =   1.34844871380047E-10  1.53954063446389E-02
 cg2d: Sum(rhs),rhsMax =   1.34880787094893E-10  1.53968408067040E-02
 cg2d: Sum(rhs),rhsMax =   1.34925612349512E-10  1.53982783417157E-02
 cg2d: Sum(rhs),rhsMax =   1.34954492025940E-10  1.53997194328604E-02
 cg2d: Sum(rhs),rhsMax =   1.34991656741690E-10  1.54011643643370E-02
 cg2d: Sum(rhs),rhsMax =   1.35039521231839E-10  1.54026134614167E-02
 cg2d: Sum(rhs),rhsMax =   1.35062086514814E-10  1.54040670441001E-02
 cg2d: Sum(rhs),rhsMax =   1.35103220277877E-10  1.54055253850162E-02
 cg2d: Sum(rhs),rhsMax =   1.35122565914081E-10  1.54069887220046E-02
 cg2d: Sum(rhs),rhsMax =   1.35150654556604E-10  1.54084572596640E-02
 cg2d: Sum(rhs),rhsMax =   1.35175301507751E-10  1.54099311716970E-02
 cg2d: Sum(rhs),rhsMax =   1.35216463026389E-10  1.54114105952023E-02
 cg2d: Sum(rhs),rhsMax =   1.35254363264892E-10  1.54128954700931E-02
 cg2d: Sum(rhs),rhsMax =   1.35279745738792E-10  1.54143860270195E-02
 cg2d: Sum(rhs),rhsMax =   1.35322683614270E-10  1.54158823984792E-02
 cg2d: Sum(rhs),rhsMax =   1.35358696473631E-10  1.54173845481895E-02
 cg2d: Sum(rhs),rhsMax =   1.35396013845046E-10  1.54188923902622E-02
 cg2d: Sum(rhs),rhsMax =   1.35420702429556E-10  1.54204058475734E-02
 cg2d: Sum(rhs),rhsMax =   1.35454245042688E-10  1.54219248159538E-02
 cg2d: Sum(rhs),rhsMax =   1.35480959784218E-10  1.54234491522293E-02
 cg2d: Sum(rhs),rhsMax =   1.35507910448140E-10  1.54249786902199E-02
 cg2d: Sum(rhs),rhsMax =   1.35553124280818E-10  1.54265132299979E-02
 cg2d: Sum(rhs),rhsMax =   1.35586181171377E-10  1.54280525479498E-02
 cg2d: Sum(rhs),rhsMax =   1.35621416874621E-10  1.54295963928196E-02
 cg2d: Sum(rhs),rhsMax =   1.35653030475247E-10  1.54311444854286E-02
 cg2d: Sum(rhs),rhsMax =   1.35678315804633E-10  1.54326965252743E-02
 cg2d: Sum(rhs),rhsMax =   1.35715841342865E-10  1.54342521851782E-02
 cg2d: Sum(rhs),rhsMax =   1.35757211028320E-10  1.54358111158256E-02
 cg2d: Sum(rhs),rhsMax =   1.35779554266691E-10  1.54373729476251E-02
 cg2d: Sum(rhs),rhsMax =   1.35818439828128E-10  1.54389372897415E-02
 cg2d: Sum(rhs),rhsMax =   1.35854494320853E-10  1.54405037377980E-02
 cg2d: Sum(rhs),rhsMax =   1.35885552809967E-10  1.54420718713133E-02
 cg2d: Sum(rhs),rhsMax =   1.35902705755697E-10  1.54436414914391E-02
 cg2d: Sum(rhs),rhsMax =   1.35937733292124E-10  1.54452123240417E-02
 cg2d: Sum(rhs),rhsMax =   1.35979463800062E-10  1.54467838916497E-02
 cg2d: Sum(rhs),rhsMax =   1.36007621831524E-10  1.54483557495540E-02
 cg2d: Sum(rhs),rhsMax =   1.36051614418875E-10  1.54499274454728E-02
 cg2d: Sum(rhs),rhsMax =   1.36090902436159E-10  1.54514984857883E-02
 cg2d: Sum(rhs),rhsMax =   1.36135019923600E-10  1.54530684086900E-02
 cg2d: Sum(rhs),rhsMax =   1.36177083498445E-10  1.54546367760913E-02
 cg2d: Sum(rhs),rhsMax =   1.36218175628144E-10  1.54562031340647E-02
 cg2d: Sum(rhs),rhsMax =   1.36254632576716E-10  1.54577670228211E-02
 cg2d: Sum(rhs),rhsMax =   1.36278585638472E-10  1.54593279945445E-02
 cg2d: Sum(rhs),rhsMax =   1.36300068453998E-10  1.54608856171377E-02
 cg2d: Sum(rhs),rhsMax =   1.36327810151826E-10  1.54624394787327E-02
 cg2d: Sum(rhs),rhsMax =   1.36351624435704E-10  1.54639891782585E-02
 cg2d: Sum(rhs),rhsMax =   1.36378727755293E-10  1.54655343313982E-02
 cg2d: Sum(rhs),rhsMax =   1.36412062201607E-10  1.54670745712055E-02
 cg2d: Sum(rhs),rhsMax =   1.36451655530223E-10  1.54686095345605E-02
 cg2d: Sum(rhs),rhsMax =   1.36487224300375E-10  1.54701388991818E-02
 cg2d: Sum(rhs),rhsMax =   1.36525471483573E-10  1.54716623449986E-02
 cg2d: Sum(rhs),rhsMax =   1.36557112839775E-10  1.54731795856271E-02
 cg2d: Sum(rhs),rhsMax =   1.36594374700039E-10  1.54746903652869E-02
 cg2d: Sum(rhs),rhsMax =   1.36631914116059E-10  1.54761944510727E-02
 cg2d: Sum(rhs),rhsMax =   1.36664041194834E-10  1.54777446866495E-02
 cg2d: Sum(rhs),rhsMax =   1.36689964902459E-10  1.54793073793357E-02
 cg2d: Sum(rhs),rhsMax =   1.36718150689497E-10  1.54808621153328E-02
 cg2d: Sum(rhs),rhsMax =   1.36759992219737E-10  1.54824083089416E-02
 cg2d: Sum(rhs),rhsMax =   1.36775563097657E-10  1.54839454621050E-02
 cg2d: Sum(rhs),rhsMax =   1.36814337636793E-10  1.54854730747497E-02
 cg2d: Sum(rhs),rhsMax =   1.36843869569248E-10  1.54869907437757E-02
 cg2d: Sum(rhs),rhsMax =   1.36882213896961E-10  1.54884981174477E-02
 cg2d: Sum(rhs),rhsMax =   1.36902392200433E-10  1.54899948794058E-02
 cg2d: Sum(rhs),rhsMax =   1.36943387185617E-10  1.54914807625644E-02
 cg2d: Sum(rhs),rhsMax =   1.36975916720239E-10  1.54929555464614E-02
 cg2d: Sum(rhs),rhsMax =   1.37012512446688E-10  1.54944190554967E-02
 cg2d: Sum(rhs),rhsMax =   1.37050551463069E-10  1.54958711725084E-02
 cg2d: Sum(rhs),rhsMax =   1.37086966778277E-10  1.54973118209928E-02
 cg2d: Sum(rhs),rhsMax =   1.37118885690235E-10  1.54987409643454E-02
 cg2d: Sum(rhs),rhsMax =   1.37165889757540E-10  1.55001586147890E-02
 cg2d: Sum(rhs),rhsMax =   1.37179045900382E-10  1.55015648393559E-02
 cg2d: Sum(rhs),rhsMax =   1.37201305872026E-10  1.55029597439180E-02
 cg2d: Sum(rhs),rhsMax =   1.37235889319243E-10  1.55043434808178E-02
 cg2d: Sum(rhs),rhsMax =   1.37264255517522E-10  1.55057162435848E-02
 cg2d: Sum(rhs),rhsMax =   1.37295258495485E-10  1.55070782635938E-02
 cg2d: Sum(rhs),rhsMax =   1.37327663130016E-10  1.55084298212194E-02
 cg2d: Sum(rhs),rhsMax =   1.37356542806444E-10  1.55097712152942E-02
 cg2d: Sum(rhs),rhsMax =   1.37394359778220E-10  1.55111027968187E-02
 cg2d: Sum(rhs),rhsMax =   1.37446748427195E-10  1.55124249512744E-02
 cg2d: Sum(rhs),rhsMax =   1.37477362827099E-10  1.55137380834645E-02
 cg2d: Sum(rhs),rhsMax =   1.37505951069983E-10  1.55150426372223E-02
 cg2d: Sum(rhs),rhsMax =   1.37549638346002E-10  1.55163390818287E-02
 cg2d: Sum(rhs),rhsMax =   1.37573730185636E-10  1.55176279110140E-02
 cg2d: Sum(rhs),rhsMax =   1.37619068918404E-10  1.55189096390867E-02
 cg2d: Sum(rhs),rhsMax =   1.37652764187202E-10  1.55201848006381E-02
 cg2d: Sum(rhs),rhsMax =   1.37684461054555E-10  1.55214539479522E-02
 cg2d: Sum(rhs),rhsMax =   1.37705583047598E-10  1.55227176506618E-02
 cg2d: Sum(rhs),rhsMax =   1.37732394933643E-10  1.55239764888560E-02
 cg2d: Sum(rhs),rhsMax =   1.37775485464786E-10  1.55252310557790E-02
 cg2d: Sum(rhs),rhsMax =   1.37807182332139E-10  1.55264819519441E-02
 cg2d: Sum(rhs),rhsMax =   1.37846817294118E-10  1.55277297796491E-02
 cg2d: Sum(rhs),rhsMax =   1.37870798111450E-10  1.55289751483131E-02
 cg2d: Sum(rhs),rhsMax =   1.37900524332935E-10  1.55302186661720E-02
 cg2d: Sum(rhs),rhsMax =   1.37933553467917E-10  1.55314609388824E-02
 cg2d: Sum(rhs),rhsMax =   1.37969607960642E-10  1.55327025679811E-02
 cg2d: Sum(rhs),rhsMax =   1.38004732641583E-10  1.55339441505889E-02
 cg2d: Sum(rhs),rhsMax =   1.38043493302931E-10  1.55351862702294E-02
 cg2d: Sum(rhs),rhsMax =   1.38085862189108E-10  1.55364295055855E-02
 cg2d: Sum(rhs),rhsMax =   1.38111591607704E-10  1.55376744188715E-02
 cg2d: Sum(rhs),rhsMax =   1.38152059236951E-10  1.55389215607973E-02
 cg2d: Sum(rhs),rhsMax =   1.38177427833064E-10  1.55401714647348E-02
 cg2d: Sum(rhs),rhsMax =   1.38222683299105E-10  1.55414246468101E-02
 cg2d: Sum(rhs),rhsMax =   1.38258973714223E-10  1.55426816034080E-02
 cg2d: Sum(rhs),rhsMax =   1.38289033002614E-10  1.55439428148849E-02
 cg2d: Sum(rhs),rhsMax =   1.38335634614073E-10  1.55452087333956E-02
 cg2d: Sum(rhs),rhsMax =   1.38359643186980E-10  1.55464797864906E-02
 cg2d: Sum(rhs),rhsMax =   1.38390285342460E-10  1.55477563910829E-02
 cg2d: Sum(rhs),rhsMax =   1.38418845829769E-10  1.55490389298374E-02
 cg2d: Sum(rhs),rhsMax =   1.38459466114682E-10  1.55503277620648E-02
 cg2d: Sum(rhs),rhsMax =   1.38486749845512E-10  1.55516232158562E-02
 cg2d: Sum(rhs),rhsMax =   1.38528466475663E-10  1.55529255999863E-02
 cg2d: Sum(rhs),rhsMax =   1.38565103835475E-10  1.55542351930431E-02
 cg2d: Sum(rhs),rhsMax =   1.38598549304092E-10  1.55555522415001E-02
 cg2d: Sum(rhs),rhsMax =   1.38634520530090E-10  1.55568769630133E-02
 cg2d: Sum(rhs),rhsMax =   1.38653255543630E-10  1.55582095523955E-02
 cg2d: Sum(rhs),rhsMax =   1.38687686335182E-10  1.55595501764885E-02
 cg2d: Sum(rhs),rhsMax =   1.38723074694092E-10  1.55608989749060E-02
 cg2d: Sum(rhs),rhsMax =   1.38746319988670E-10  1.55622560584794E-02
 cg2d: Sum(rhs),rhsMax =   1.38776684588393E-10  1.55636215102353E-02
 cg2d: Sum(rhs),rhsMax =   1.38806591221119E-10  1.55649953855808E-02
 cg2d: Sum(rhs),rhsMax =   1.38844574726349E-10  1.55663915197062E-02
 cg2d: Sum(rhs),rhsMax =   1.38879671651715E-10  1.55677960291363E-02
 cg2d: Sum(rhs),rhsMax =   1.38925065895634E-10  1.55692087404753E-02
 Computing Diagnostic #    26 "THETA   " (list#  1) Parms "SMR     MR      ", Count=     144
 Computing Diagnostic #    27 "SALT    " (list#  1) Parms "SMR     MR      ", Count=     144
 Computing Diagnostic #    30 "UVEL    " (list#  1) Parms "UUR     MR      ", Count=     144
             Vector  Mate for "UVEL    " :  Diagnostic #     31 "VVEL    " exists
 Computing Diagnostic #    32 "WVEL    " (list#  1) Parms "WM      LR      ", Count=     144
 Computing Diagnostic #    31 "VVEL    " (list#  1) Parms "VVR     MR      ", Count=     144
             Vector  Mate for "VVEL    " :  Diagnostic #     30 "UVEL    " exists
 Computing Diagnostic #   197 "BRGfwFlx" (list#  2) Parms "SM      MR      ", Count=     144
 Computing Diagnostic #   198 "BRGhtFlx" (list#  2) Parms "SM      MR      ", Count=     144
 Computing Diagnostic #   199 "BRGmltRt" (list#  2) Parms "SM      MR      ", Count=     144
 Computing Diagnostic #   201 "BRG_TauX" (list#  2) Parms "UU      MR      ", Count=    1728
 Computing Diagnostic #   202 "BRG_TauY" (list#  2) Parms "VV      MR      ", Count=    1728
 Computing Diagnostic #   203 "BRGhFacC" (list#  2) Parms "SM      MR      ", Count=    1728
 cg2d: Sum(rhs),rhsMax =   1.38956207651475E-10  1.55706296093289E-02
 cg2d: Sum(rhs),rhsMax =   1.38980202346595E-10  1.55720584755670E-02
 cg2d: Sum(rhs),rhsMax =   1.39021530398686E-10  1.55734951943307E-02
 cg2d: Sum(rhs),rhsMax =   1.39057237946716E-10  1.55749395954459E-02
 cg2d: Sum(rhs),rhsMax =   1.39101841156730E-10  1.55763914792907E-02
 cg2d: Sum(rhs),rhsMax =   1.39132996790359E-10  1.55778506222986E-02
 cg2d: Sum(rhs),rhsMax =   1.39167039003851E-10  1.55793167931385E-02
 cg2d: Sum(rhs),rhsMax =   1.39192962711476E-10  1.55807897443217E-02
 cg2d: Sum(rhs),rhsMax =   1.39223896300500E-10  1.55822692162326E-02
 cg2d: Sum(rhs),rhsMax =   1.39253636399772E-10  1.55837549328021E-02
 cg2d: Sum(rhs),rhsMax =   1.39286304712272E-10  1.55852466070629E-02
 cg2d: Sum(rhs),rhsMax =   1.39323760861565E-10  1.55867439421289E-02
 cg2d: Sum(rhs),rhsMax =   1.39346478800206E-10  1.55882466227410E-02
 cg2d: Sum(rhs),rhsMax =   1.39387196229634E-10  1.55897543307891E-02
 cg2d: Sum(rhs),rhsMax =   1.39418004918568E-10  1.55912667442337E-02
 cg2d: Sum(rhs),rhsMax =   1.39443387392468E-10  1.55927835304536E-02
 cg2d: Sum(rhs),rhsMax =   1.39473696481041E-10  1.55943043488087E-02
 cg2d: Sum(rhs),rhsMax =   1.39513650632139E-10  1.55958288617558E-02
 cg2d: Sum(rhs),rhsMax =   1.39556630140980E-10  1.55973567268702E-02
 cg2d: Sum(rhs),rhsMax =   1.39599581894245E-10  1.55988876030157E-02
 cg2d: Sum(rhs),rhsMax =   1.39645295327284E-10  1.56004211470223E-02
 cg2d: Sum(rhs),rhsMax =   1.39680961241950E-10  1.56019226625405E-02
 cg2d: Sum(rhs),rhsMax =   1.39719125158422E-10  1.56034228278204E-02
 cg2d: Sum(rhs),rhsMax =   1.39750752636836E-10  1.56049245913500E-02
 cg2d: Sum(rhs),rhsMax =   1.39785974462292E-10  1.56064274779715E-02
 cg2d: Sum(rhs),rhsMax =   1.39805667043191E-10  1.56079312336906E-02
 cg2d: Sum(rhs),rhsMax =   1.39839737012259E-10  1.56094355802742E-02
 cg2d: Sum(rhs),rhsMax =   1.39874584137445E-10  1.56109402539404E-02
 cg2d: Sum(rhs),rhsMax =   1.39910333318838E-10  1.56124449618013E-02
 cg2d: Sum(rhs),rhsMax =   1.39938866050571E-10  1.56139494334717E-02
 cg2d: Sum(rhs),rhsMax =   1.39974531965237E-10  1.56154534092701E-02
 cg2d: Sum(rhs),rhsMax =   1.40006520266134E-10  1.56169566377919E-02
 cg2d: Sum(rhs),rhsMax =   1.40044434382425E-10  1.56184588717109E-02
 cg2d: Sum(rhs),rhsMax =   1.40065750664498E-10  1.56199598779641E-02
 cg2d: Sum(rhs),rhsMax =   1.40113920465978E-10  1.56214594317220E-02
 cg2d: Sum(rhs),rhsMax =   1.40139899684755E-10  1.56229573334641E-02
 cg2d: Sum(rhs),rhsMax =   1.40189318487138E-10  1.56244579013104E-02
 cg2d: Sum(rhs),rhsMax =   1.40221667610518E-10  1.56259563583651E-02
 cg2d: Sum(rhs),rhsMax =   1.40247716218234E-10  1.56274524705682E-02
 cg2d: Sum(rhs),rhsMax =   1.40288294869784E-10  1.56289460320281E-02
 cg2d: Sum(rhs),rhsMax =   1.40324238340206E-10  1.56304368294423E-02
 cg2d: Sum(rhs),rhsMax =   1.40357059308371E-10  1.56319246689089E-02
 cg2d: Sum(rhs),rhsMax =   1.40398359604887E-10  1.56334093802403E-02
 cg2d: Sum(rhs),rhsMax =   1.40443073837204E-10  1.56348907847959E-02
 cg2d: Sum(rhs),rhsMax =   1.40477601773270E-10  1.56363687733909E-02
 cg2d: Sum(rhs),rhsMax =   1.40506828394393E-10  1.56378431798090E-02
 cg2d: Sum(rhs),rhsMax =   1.40565670214698E-10  1.56393138817398E-02
 cg2d: Sum(rhs),rhsMax =   1.40597089526295E-10  1.56407807872596E-02
 cg2d: Sum(rhs),rhsMax =   1.40618516830671E-10  1.56422438060779E-02
 cg2d: Sum(rhs),rhsMax =   1.40647840596309E-10  1.56437028815111E-02
 cg2d: Sum(rhs),rhsMax =   1.40682562821404E-10  1.56451579515008E-02
 cg2d: Sum(rhs),rhsMax =   1.40707945295304E-10  1.56466089339894E-02
 cg2d: Sum(rhs),rhsMax =   1.40748190879947E-10  1.56480558068359E-02
 cg2d: Sum(rhs),rhsMax =   1.40778028123734E-10  1.56494985709553E-02
 cg2d: Sum(rhs),rhsMax =   1.40801897918763E-10  1.56509372412438E-02
 cg2d: Sum(rhs),rhsMax =   1.40832068229457E-10  1.56523717798407E-02
 cg2d: Sum(rhs),rhsMax =   1.40861489139610E-10  1.56538023387931E-02
 cg2d: Sum(rhs),rhsMax =   1.40899653056081E-10  1.56552289754993E-02
 cg2d: Sum(rhs),rhsMax =   1.40945824456118E-10  1.56566517544974E-02
 cg2d: Sum(rhs),rhsMax =   1.40978520524193E-10  1.56580707830633E-02
 cg2d: Sum(rhs),rhsMax =   1.41006942233624E-10  1.56594861861973E-02
 cg2d: Sum(rhs),rhsMax =   1.41053418944992E-10  1.56608980946377E-02
 cg2d: Sum(rhs),rhsMax =   1.41073069892528E-10  1.56623066538777E-02
 cg2d: Sum(rhs),rhsMax =   1.41101921813380E-10  1.56637120333726E-02
 cg2d: Sum(rhs),rhsMax =   1.41140085729852E-10  1.56651144165176E-02
 cg2d: Sum(rhs),rhsMax =   1.41172587508898E-10  1.56665140089925E-02
 cg2d: Sum(rhs),rhsMax =   1.41199191228125E-10  1.56679110297884E-02
 cg2d: Sum(rhs),rhsMax =   1.41231457084778E-10  1.56693057161328E-02
 cg2d: Sum(rhs),rhsMax =   1.41271980225177E-10  1.56706983162969E-02
 cg2d: Sum(rhs),rhsMax =   1.41313141743815E-10  1.56720890959373E-02
 cg2d: Sum(rhs),rhsMax =   1.41343159398843E-10  1.56734783332466E-02
 cg2d: Sum(rhs),rhsMax =   1.41382613949581E-10  1.56748663195422E-02
 cg2d: Sum(rhs),rhsMax =   1.41416170440500E-10  1.56762533413222E-02
 cg2d: Sum(rhs),rhsMax =   1.41442330070518E-10  1.56776397213035E-02
 cg2d: Sum(rhs),rhsMax =   1.41471140358007E-10  1.56790257960691E-02
 cg2d: Sum(rhs),rhsMax =   1.41512149220979E-10  1.56804118955531E-02
 cg2d: Sum(rhs),rhsMax =   1.41546011023230E-10  1.56817983595361E-02
 cg2d: Sum(rhs),rhsMax =   1.41579928336633E-10  1.56831855425737E-02
 cg2d: Sum(rhs),rhsMax =   1.41605588366289E-10  1.56845738010696E-02
 cg2d: Sum(rhs),rhsMax =   1.41641684492377E-10  1.56859635098146E-02
 cg2d: Sum(rhs),rhsMax =   1.41668204944878E-10  1.56873550432345E-02
 cg2d: Sum(rhs),rhsMax =   1.41695988276069E-10  1.56887487813968E-02
 cg2d: Sum(rhs),rhsMax =   1.41737913073037E-10  1.56901451052720E-02
 cg2d: Sum(rhs),rhsMax =   1.41773537354339E-10  1.56915444008946E-02
 cg2d: Sum(rhs),rhsMax =   1.41800168829143E-10  1.56929470588104E-02
 cg2d: Sum(rhs),rhsMax =   1.41838679690309E-10  1.56943534632215E-02
 cg2d: Sum(rhs),rhsMax =   1.41874817449761E-10  1.56957639934180E-02
 cg2d: Sum(rhs),rhsMax =   1.41910275197610E-10  1.56971790630408E-02
 cg2d: Sum(rhs),rhsMax =   1.41944817011463E-10  1.56985990502874E-02
 cg2d: Sum(rhs),rhsMax =   1.41959471955388E-10  1.57000243339997E-02
 cg2d: Sum(rhs),rhsMax =   1.42010750381338E-10  1.57014552911563E-02
 cg2d: Sum(rhs),rhsMax =   1.42053646623452E-10  1.57028922930767E-02
 cg2d: Sum(rhs),rhsMax =   1.42087216992159E-10  1.57043357050070E-02
 cg2d: Sum(rhs),rhsMax =   1.42130168745425E-10  1.57057858825301E-02
 cg2d: Sum(rhs),rhsMax =   1.42170913930428E-10  1.57072431731521E-02
 cg2d: Sum(rhs),rhsMax =   1.42212880360759E-10  1.57087079136859E-02
 cg2d: Sum(rhs),rhsMax =   1.42240538791860E-10  1.57101804284576E-02
 cg2d: Sum(rhs),rhsMax =   1.42275594083863E-10  1.57116610281766E-02
 cg2d: Sum(rhs),rhsMax =   1.42314451889725E-10  1.57131500134124E-02
 cg2d: Sum(rhs),rhsMax =   1.42353961951613E-10  1.57146476658128E-02
 cg2d: Sum(rhs),rhsMax =   1.42375305989262E-10  1.57161542523915E-02
 cg2d: Sum(rhs),rhsMax =   1.42417633242076E-10  1.57176684987749E-02
 cg2d: Sum(rhs),rhsMax =   1.42452064033627E-10  1.57191898429300E-02
 cg2d: Sum(rhs),rhsMax =   1.42475309328205E-10  1.57207185319554E-02
 cg2d: Sum(rhs),rhsMax =   1.42516068390997E-10  1.57222548001435E-02
 cg2d: Sum(rhs),rhsMax =   1.42558964633110E-10  1.57237988976333E-02
 cg2d: Sum(rhs),rhsMax =   1.42592992968815E-10  1.57253510224267E-02
 cg2d: Sum(rhs),rhsMax =   1.42627770705062E-10  1.57269113957056E-02
 cg2d: Sum(rhs),rhsMax =   1.42661035762437E-10  1.57284802273743E-02
 cg2d: Sum(rhs),rhsMax =   1.42678466263924E-10  1.57300577088138E-02
 cg2d: Sum(rhs),rhsMax =   1.42707040629020E-10  1.57316440248849E-02
 cg2d: Sum(rhs),rhsMax =   1.42727954455246E-10  1.57332393470909E-02
 cg2d: Sum(rhs),rhsMax =   1.42769213118399E-10  1.57348438287001E-02
 cg2d: Sum(rhs),rhsMax =   1.42812650594237E-10  1.57364576094663E-02
 cg2d: Sum(rhs),rhsMax =   1.42841849459785E-10  1.57380808104224E-02
 cg2d: Sum(rhs),rhsMax =   1.42867620511744E-10  1.57397154440875E-02
 cg2d: Sum(rhs),rhsMax =   1.42882233822306E-10  1.57413626181755E-02
 cg2d: Sum(rhs),rhsMax =   1.42912251477334E-10  1.57430194030536E-02
 cg2d: Sum(rhs),rhsMax =   1.42944517333987E-10  1.57446857759586E-02
 cg2d: Sum(rhs),rhsMax =   1.42985859263867E-10  1.57463617329424E-02
 cg2d: Sum(rhs),rhsMax =   1.43008327402327E-10  1.57480472344238E-02
 cg2d: Sum(rhs),rhsMax =   1.43047088063675E-10  1.57497422200602E-02
 cg2d: Sum(rhs),rhsMax =   1.43080935988138E-10  1.57514466074396E-02
 cg2d: Sum(rhs),rhsMax =   1.43121792195444E-10  1.57531602958734E-02
 cg2d: Sum(rhs),rhsMax =   1.43153017218012E-10  1.57548831807569E-02
 cg2d: Sum(rhs),rhsMax =   1.43181119738323E-10  1.57566150965356E-02
 cg2d: Sum(rhs),rhsMax =   1.43194386903467E-10  1.57583558691891E-02
 cg2d: Sum(rhs),rhsMax =   1.43221282056238E-10  1.57601134262396E-02
 cg2d: Sum(rhs),rhsMax =   1.43253298112711E-10  1.57618797295635E-02
 cg2d: Sum(rhs),rhsMax =   1.43290254661643E-10  1.57636539852001E-02
 cg2d: Sum(rhs),rhsMax =   1.43314776712700E-10  1.57654360146410E-02
 cg2d: Sum(rhs),rhsMax =   1.43340825320415E-10  1.57672255108659E-02
 cg2d: Sum(rhs),rhsMax =   1.43370676441990E-10  1.57690221131805E-02
 cg2d: Sum(rhs),rhsMax =   1.43398307117515E-10  1.57708254497017E-02
 cg2d: Sum(rhs),rhsMax =   1.43434000787757E-10  1.57726351146375E-02
 cg2d: Sum(rhs),rhsMax =   1.43471290403596E-10  1.57744507234561E-02
 cg2d: Sum(rhs),rhsMax =   1.43496020621470E-10  1.57762718673898E-02
 cg2d: Sum(rhs),rhsMax =   1.43510883732212E-10  1.57780981032360E-02
 cg2d: Sum(rhs),rhsMax =   1.43531284080289E-10  1.57799290307326E-02
 cg2d: Sum(rhs),rhsMax =   1.43561107446288E-10  1.57817642334679E-02
 cg2d: Sum(rhs),rhsMax =   1.43585754397435E-10  1.57836032591347E-02
 cg2d: Sum(rhs),rhsMax =   1.43635991989299E-10  1.57854456483815E-02
 cg2d: Sum(rhs),rhsMax =   1.43653172690605E-10  1.57872909399062E-02
 cg2d: Sum(rhs),rhsMax =   1.43675696340217E-10  1.57891386709423E-02
(PID.TID 0000.0001)      cg2d_init_res =   4.06141057751880E-04
(PID.TID 0000.0001)      cg2d_iters(min,last) =      -1      41
(PID.TID 0000.0001)      cg2d_last_res =   7.61403470110498E-14
(PID.TID 0000.0001) // =======================================================
(PID.TID 0000.0001) // Begin MONITOR dynamic field statistics
(PID.TID 0000.0001) // =======================================================
(PID.TID 0000.0001) %MON time_tsnumber                =                  4320
(PID.TID 0000.0001) %MON time_secondsf                =   1.0800000000000E+05
(PID.TID 0000.0001) %MON dynstat_eta_max              =   5.2387392779475E-03
(PID.TID 0000.0001) %MON dynstat_eta_min              =  -2.5373680598409E-03
(PID.TID 0000.0001) %MON dynstat_eta_mean             =  -1.5194874624548E-14
(PID.TID 0000.0001) %MON dynstat_eta_sd               =   2.6048334942976E-03
(PID.TID 0000.0001) %MON dynstat_eta_del2             =   2.1665644311408E-05
(PID.TID 0000.0001) %MON dynstat_uvel_max             =   4.6748316904148E-02
(PID.TID 0000.0001) %MON dynstat_uvel_min             =  -2.8257117233001E-02
(PID.TID 0000.0001) %MON dynstat_uvel_mean            =  -3.6065981550825E-08
(PID.TID 0000.0001) %MON dynstat_uvel_sd              =   5.3867575106136E-03
(PID.TID 0000.0001) %MON dynstat_uvel_del2            =   1.0477652505389E-04
(PID.TID 0000.0001) %MON dynstat_vvel_max             =   1.6588022124890E-02
(PID.TID 0000.0001) %MON dynstat_vvel_min             =  -3.1964666084709E-02
(PID.TID 0000.0001) %MON dynstat_vvel_mean            =  -8.0919758872042E-03
(PID.TID 0000.0001) %MON dynstat_vvel_sd              =   1.1101186633825E-02
(PID.TID 0000.0001) %MON dynstat_vvel_del2            =   9.5073565301310E-05
(PID.TID 0000.0001) %MON dynstat_wvel_max             =   1.5566555628673E-03
(PID.TID 0000.0001) %MON dynstat_wvel_min             =  -1.2037141780391E-03
(PID.TID 0000.0001) %MON dynstat_wvel_mean            =  -3.5663517595943E-20
(PID.TID 0000.0001) %MON dynstat_wvel_sd              =   1.3696058561846E-04
(PID.TID 0000.0001) %MON dynstat_wvel_del2            =   6.7965052780673E-06
(PID.TID 0000.0001) %MON dynstat_theta_max            =   2.6931451611665E+00
(PID.TID 0000.0001) %MON dynstat_theta_min            =   2.4441290240379E-01
(PID.TID 0000.0001) %MON dynstat_theta_mean           =   2.2487796216802E+00
(PID.TID 0000.0001) %MON dynstat_theta_sd             =   4.4454883072766E-01
(PID.TID 0000.0001) %MON dynstat_theta_del2           =   1.2952360058445E-03
(PID.TID 0000.0001) %MON dynstat_salt_max             =   3.4699999999810E+01
(PID.TID 0000.0001) %MON dynstat_salt_min             =   3.3077244200760E+01
(PID.TID 0000.0001) %MON dynstat_salt_mean            =   3.4365996138070E+01
(PID.TID 0000.0001) %MON dynstat_salt_sd              =   3.1805064992619E-01
(PID.TID 0000.0001) %MON dynstat_salt_del2            =   1.9249856542072E-04
(PID.TID 0000.0001) %MON advcfl_uvel_max              =   2.3374158452074E-03
(PID.TID 0000.0001) %MON advcfl_vvel_max              =   1.5982333042354E-03
(PID.TID 0000.0001) %MON advcfl_wvel_max              =   6.8492844788079E-04
(PID.TID 0000.0001) %MON advcfl_W_hf_max              =   1.8318958194810E-03
(PID.TID 0000.0001) %MON pe_b_mean                    =   5.6611492879653E-08
(PID.TID 0000.0001) %MON ke_max                       =   9.9458572798345E-04
(PID.TID 0000.0001) %MON ke_mean                      =   9.8913086886967E-05
(PID.TID 0000.0001) %MON ke_vol                       =   3.2921708585402E+10
(PID.TID 0000.0001) // =======================================================
(PID.TID 0000.0001) // End MONITOR dynamic field statistics
(PID.TID 0000.0001) // =======================================================
(PID.TID 0000.0001) // =======================================================
(PID.TID 0000.0001) // Begin OBCS MONITOR field statistics
(PID.TID 0000.0001) // =======================================================
(PID.TID 0000.0001) %MON obc_E_uVel_max               =   0.0000000000000E+00
(PID.TID 0000.0001) %MON obc_E_uVel_min               =   0.0000000000000E+00
(PID.TID 0000.0001) %MON obc_E_uVel_mean              =   0.0000000000000E+00
(PID.TID 0000.0001) %MON obc_E_uVel_sd                =   0.0000000000000E+00
(PID.TID 0000.0001) %MON obc_E_uVel_Int               =   0.0000000000000E+00
(PID.TID 0000.0001) %MON obc_N_vVel_max               =  -3.6115799844846E-05
(PID.TID 0000.0001) %MON obc_N_vVel_min               =  -3.0000000000000E-02
(PID.TID 0000.0001) %MON obc_N_vVel_mean              =  -1.3225455303334E-02
(PID.TID 0000.0001) %MON obc_N_vVel_sd                =   1.1350864292742E-02
(PID.TID 0000.0001) %MON obc_N_vVel_Int               =  -5.9514548865004E+04
(PID.TID 0000.0001) %MON obc_S_vVel_max               =  -3.6115799844846E-05
(PID.TID 0000.0001) %MON obc_S_vVel_min               =  -3.0000000000000E-02
(PID.TID 0000.0001) %MON obc_S_vVel_mean              =  -1.3225455303334E-02
(PID.TID 0000.0001) %MON obc_S_vVel_sd                =   1.1350864292742E-02
(PID.TID 0000.0001) %MON obc_S_vVel_Int               =  -5.9514548865004E+04
(PID.TID 0000.0001) // =======================================================
(PID.TID 0000.0001) // End OBCS MONITOR field statistics
(PID.TID 0000.0001) // =======================================================
 Computing Diagnostic #    26 "THETA   " (list#  1) Parms "SMR     MR      ", Count=     144
 Computing Diagnostic #    27 "SALT    " (list#  1) Parms "SMR     MR      ", Count=     144
 Computing Diagnostic #    30 "UVEL    " (list#  1) Parms "UUR     MR      ", Count=     144
             Vector  Mate for "UVEL    " :  Diagnostic #     31 "VVEL    " exists
 Computing Diagnostic #    32 "WVEL    " (list#  1) Parms "WM      LR      ", Count=     144
 Computing Diagnostic #    31 "VVEL    " (list#  1) Parms "VVR     MR      ", Count=     144
             Vector  Mate for "VVEL    " :  Diagnostic #     30 "UVEL    " exists
 Computing Diagnostic #   197 "BRGfwFlx" (list#  2) Parms "SM      MR      ", Count=     144
 Computing Diagnostic #   198 "BRGhtFlx" (list#  2) Parms "SM      MR      ", Count=     144
 Computing Diagnostic #   199 "BRGmltRt" (list#  2) Parms "SM      MR      ", Count=     144
 Computing Diagnostic #   201 "BRG_TauX" (list#  2) Parms "UU      MR      ", Count=    1728
 Computing Diagnostic #   202 "BRG_TauY" (list#  2) Parms "VV      MR      ", Count=    1728
 Computing Diagnostic #   203 "BRGhFacC" (list#  2) Parms "SM      MR      ", Count=    1728
 cg2d: Sum(rhs),rhsMax =   1.43700065735608E-10  1.57909883733746E-02
 cg2d: Sum(rhs),rhsMax =   1.43721229362015E-10  1.57928395747012E-02
 cg2d: Sum(rhs),rhsMax =   1.43753661752122E-10  1.57946918077864E-02
 cg2d: Sum(rhs),rhsMax =   1.43798417617802E-10  1.57965446098523E-02
 cg2d: Sum(rhs),rhsMax =   1.43825992782176E-10  1.57983975175741E-02
 cg2d: Sum(rhs),rhsMax =   1.43857911694134E-10  1.58002500771140E-02
 cg2d: Sum(rhs),rhsMax =   1.43870734770069E-10  1.58021018394357E-02
 cg2d: Sum(rhs),rhsMax =   1.43910550143289E-10  1.58039523630316E-02
 cg2d: Sum(rhs),rhsMax =   1.43929049234437E-10  1.58058012161546E-02
 cg2d: Sum(rhs),rhsMax =   1.43964964949284E-10  1.58076479753467E-02
 cg2d: Sum(rhs),rhsMax =   1.43998285517810E-10  1.58094922324928E-02
 cg2d: Sum(rhs),rhsMax =   1.44018574843585E-10  1.58113335890365E-02
 cg2d: Sum(rhs),rhsMax =   1.44063830309626E-10  1.58131716637529E-02
 cg2d: Sum(rhs),rhsMax =   1.44089809528403E-10  1.58150060883480E-02
 cg2d: Sum(rhs),rhsMax =   1.44113970756976E-10  1.58168365120589E-02
 cg2d: Sum(rhs),rhsMax =   1.44149095437918E-10  1.58186626053966E-02
 cg2d: Sum(rhs),rhsMax =   1.44169579052722E-10  1.58204840549393E-02
 cg2d: Sum(rhs),rhsMax =   1.44201123264409E-10  1.58223005645954E-02
 cg2d: Sum(rhs),rhsMax =   1.44216555364451E-10  1.58241118623950E-02
 cg2d: Sum(rhs),rhsMax =   1.44248626932075E-10  1.58259176971865E-02
 cg2d: Sum(rhs),rhsMax =   1.44276882108052E-10  1.58277178448079E-02
 cg2d: Sum(rhs),rhsMax =   1.44321193884522E-10  1.58295120996294E-02
 cg2d: Sum(rhs),rhsMax =   1.44357817366547E-10  1.58313002737549E-02
 cg2d: Sum(rhs),rhsMax =   1.44370598809118E-10  1.58330861107849E-02
 cg2d: Sum(rhs),rhsMax =   1.44412592995025E-10  1.58348655368233E-02
 cg2d: Sum(rhs),rhsMax =   1.44452838579667E-10  1.58366383764885E-02
 cg2d: Sum(rhs),rhsMax =   1.44473225049957E-10  1.58384045169044E-02
 cg2d: Sum(rhs),rhsMax =   1.44501577370448E-10  1.58401638346558E-02
 cg2d: Sum(rhs),rhsMax =   1.44527320666832E-10  1.58419162509083E-02
 cg2d: Sum(rhs),rhsMax =   1.44562875559195E-10  1.58436616969827E-02
 cg2d: Sum(rhs),rhsMax =   1.44589007433638E-10  1.58454001376033E-02
 cg2d: Sum(rhs),rhsMax =   1.44626283171689E-10  1.58471315593320E-02
 cg2d: Sum(rhs),rhsMax =   1.44659062506491E-10  1.58488559744133E-02
 cg2d: Sum(rhs),rhsMax =   1.44690037728878E-10  1.58505734194349E-02
 cg2d: Sum(rhs),rhsMax =   1.44718778627428E-10  1.58522839517780E-02
 cg2d: Sum(rhs),rhsMax =   1.44740039398350E-10  1.58539876449188E-02
 cg2d: Sum(rhs),rhsMax =   1.44763118159474E-10  1.58556847545398E-02
 cg2d: Sum(rhs),rhsMax =   1.44798173451477E-10  1.58573746396903E-02
 cg2d: Sum(rhs),rhsMax =   1.44826262094000E-10  1.58590593161317E-02
 cg2d: Sum(rhs),rhsMax =   1.44863038231691E-10  1.58607389527996E-02
 cg2d: Sum(rhs),rhsMax =   1.44885423103425E-10  1.58624137174938E-02
 cg2d: Sum(rhs),rhsMax =   1.44910208832449E-10  1.58640838299738E-02
 cg2d: Sum(rhs),rhsMax =   1.44949316438492E-10  1.58657494977931E-02
 cg2d: Sum(rhs),rhsMax =   1.44969147797269E-10  1.58674109494652E-02
 cg2d: Sum(rhs),rhsMax =   1.44988784867017E-10  1.58690684281460E-02
 cg2d: Sum(rhs),rhsMax =   1.45009185215095E-10  1.58707221842028E-02
 cg2d: Sum(rhs),rhsMax =   1.45032152953917E-10  1.58723724776929E-02
 cg2d: Sum(rhs),rhsMax =   1.45053039024567E-10  1.58740195801486E-02
 cg2d: Sum(rhs),rhsMax =   1.45072606705376E-10  1.58756637648635E-02
 cg2d: Sum(rhs),rhsMax =   1.45113587812773E-10  1.58773053152843E-02
 cg2d: Sum(rhs),rhsMax =   1.45146616947756E-10  1.58789445367142E-02
 cg2d: Sum(rhs),rhsMax =   1.45185849453888E-10  1.58805816776080E-02
 cg2d: Sum(rhs),rhsMax =   1.45213285840384E-10  1.58822170764226E-02
 cg2d: Sum(rhs),rhsMax =   1.45262371575861E-10  1.58838510225618E-02
 cg2d: Sum(rhs),rhsMax =   1.45286171981951E-10  1.58854836037917E-02
 cg2d: Sum(rhs),rhsMax =   1.45311374044610E-10  1.58871153214319E-02
 cg2d: Sum(rhs),rhsMax =   1.45331441325780E-10  1.58887464713305E-02
 cg2d: Sum(rhs),rhsMax =   1.45369424831010E-10  1.58903773529215E-02
 cg2d: Sum(rhs),rhsMax =   1.45395639972179E-10  1.58920082573335E-02
 cg2d: Sum(rhs),rhsMax =   1.45427933584408E-10  1.58936309937532E-02
 cg2d: Sum(rhs),rhsMax =   1.45458436962009E-10  1.58952542765212E-02
 cg2d: Sum(rhs),rhsMax =   1.45501097281731E-10  1.58968784968729E-02
 cg2d: Sum(rhs),rhsMax =   1.45524509109762E-10  1.58985039174062E-02
 cg2d: Sum(rhs),rhsMax =   1.45542508600549E-10  1.59001308513522E-02
 cg2d: Sum(rhs),rhsMax =   1.45583212152189E-10  1.59017595832889E-02
 cg2d: Sum(rhs),rhsMax =   1.45606554591282E-10  1.59033903785347E-02
 cg2d: Sum(rhs),rhsMax =   1.45640360882382E-10  1.59050234869634E-02
 cg2d: Sum(rhs),rhsMax =   1.45682993446528E-10  1.59066591420927E-02
 cg2d: Sum(rhs),rhsMax =   1.45720338573518E-10  1.59082975737868E-02
 cg2d: Sum(rhs),rhsMax =   1.45735215562048E-10  1.59099389490763E-02
 cg2d: Sum(rhs),rhsMax =   1.45768758175180E-10  1.59115834665519E-02
 cg2d: Sum(rhs),rhsMax =   1.45795070460863E-10  1.59132312933086E-02
 cg2d: Sum(rhs),rhsMax =   1.45831124953588E-10  1.59148825902519E-02
 cg2d: Sum(rhs),rhsMax =   1.45871884016380E-10  1.59165374924596E-02
 cg2d: Sum(rhs),rhsMax =   1.45901665749015E-10  1.59181960791911E-02
 cg2d: Sum(rhs),rhsMax =   1.45929754391538E-10  1.59198583852035E-02
 cg2d: Sum(rhs),rhsMax =   1.45967210540832E-10  1.59215245528389E-02
 cg2d: Sum(rhs),rhsMax =   1.45980269539159E-10  1.59231946007446E-02
 cg2d: Sum(rhs),rhsMax =   1.46018974689355E-10  1.59248685409854E-02
 cg2d: Sum(rhs),rhsMax =   1.46039902393369E-10  1.59265463924469E-02
 cg2d: Sum(rhs),rhsMax =   1.46075290752279E-10  1.59282281466485E-02
 cg2d: Sum(rhs),rhsMax =   1.46112927312814E-10  1.59299137665172E-02
 cg2d: Sum(rhs),rhsMax =   1.46145859303282E-10  1.59316031995377E-02
 cg2d: Sum(rhs),rhsMax =   1.46165315961788E-10  1.59332963753599E-02
 cg2d: Sum(rhs),rhsMax =   1.46194820138668E-10  1.59349932077775E-02
 cg2d: Sum(rhs),rhsMax =   1.46230541564485E-10  1.59366935939919E-02
 cg2d: Sum(rhs),rhsMax =   1.46268358536261E-10  1.59383974067047E-02
 cg2d: Sum(rhs),rhsMax =   1.46315043414447E-10  1.59401045283722E-02
 cg2d: Sum(rhs),rhsMax =   1.46348266838459E-10  1.59418147894340E-02
 cg2d: Sum(rhs),rhsMax =   1.46384904198271E-10  1.59435280221275E-02
 cg2d: Sum(rhs),rhsMax =   1.46414894097724E-10  1.59452440493157E-02
 cg2d: Sum(rhs),rhsMax =   1.46448839166702E-10  1.59469626774373E-02
 cg2d: Sum(rhs),rhsMax =   1.46475581663807E-10  1.59486837137414E-02
 cg2d: Sum(rhs),rhsMax =   1.46502462938791E-10  1.59504069434099E-02
 cg2d: Sum(rhs),rhsMax =   1.46536546785647E-10  1.59521453740445E-02
 cg2d: Sum(rhs),rhsMax =   1.46559153701986E-10  1.59538854739241E-02
 cg2d: Sum(rhs),rhsMax =   1.46590836691551E-10  1.59556267931008E-02
 cg2d: Sum(rhs),rhsMax =   1.46612638696197E-10  1.59573690625297E-02
 cg2d: Sum(rhs),rhsMax =   1.46639395071091E-10  1.59591119132428E-02
 cg2d: Sum(rhs),rhsMax =   1.46678114099075E-10  1.59608550028968E-02
 cg2d: Sum(rhs),rhsMax =   1.46715778415185E-10  1.59625979599551E-02
 cg2d: Sum(rhs),rhsMax =   1.46745463003306E-10  1.59643404715782E-02
 cg2d: Sum(rhs),rhsMax =   1.46774606357702E-10  1.59660822004268E-02
 cg2d: Sum(rhs),rhsMax =   1.46811243717515E-10  1.59678227793593E-02
 cg2d: Sum(rhs),rhsMax =   1.46841108716877E-10  1.59695618659538E-02
 cg2d: Sum(rhs),rhsMax =   1.46883685769872E-10  1.59712991254144E-02
 cg2d: Sum(rhs),rhsMax =   1.46920531296502E-10  1.59730342258790E-02
 cg2d: Sum(rhs),rhsMax =   1.46954490243267E-10  1.59747668409823E-02
 cg2d: Sum(rhs),rhsMax =   1.46977152670758E-10  1.59764966469000E-02
 cg2d: Sum(rhs),rhsMax =   1.47006226636215E-10  1.59782233325183E-02
 cg2d: Sum(rhs),rhsMax =   1.47038103914809E-10  1.59799465968006E-02
 cg2d: Sum(rhs),rhsMax =   1.47061446353902E-10  1.59816661437001E-02
 cg2d: Sum(rhs),rhsMax =   1.47088938251549E-10  1.59833816910597E-02
 cg2d: Sum(rhs),rhsMax =   1.47118359161702E-10  1.59850929473251E-02
 cg2d: Sum(rhs),rhsMax =   1.47139175843414E-10  1.59867996594576E-02
 cg2d: Sum(rhs),rhsMax =   1.47172524167516E-10  1.59885016023453E-02
 cg2d: Sum(rhs),rhsMax =   1.47198753186473E-10  1.59901943648918E-02
 cg2d: Sum(rhs),rhsMax =   1.47231005165338E-10  1.59918686732331E-02
 cg2d: Sum(rhs),rhsMax =   1.47262826932781E-10  1.59935377364643E-02
 cg2d: Sum(rhs),rhsMax =   1.47292622543205E-10  1.59952015401173E-02
 cg2d: Sum(rhs),rhsMax =   1.47316617238324E-10  1.59968591031333E-02
 cg2d: Sum(rhs),rhsMax =   1.47347870016468E-10  1.59985113060530E-02
 cg2d: Sum(rhs),rhsMax =   1.47379677906123E-10  1.60001581384092E-02
 cg2d: Sum(rhs),rhsMax =   1.47398732108783E-10  1.60017995828133E-02
 cg2d: Sum(rhs),rhsMax =   1.47419548790495E-10  1.60034356365100E-02
 cg2d: Sum(rhs),rhsMax =   1.47448483978074E-10  1.60050663020095E-02
 cg2d: Sum(rhs),rhsMax =   1.47486536872243E-10  1.60066915824375E-02
 cg2d: Sum(rhs),rhsMax =   1.47512724257837E-10  1.60083114845947E-02
 cg2d: Sum(rhs),rhsMax =   1.47540202277696E-10  1.60099260204676E-02
 cg2d: Sum(rhs),rhsMax =   1.47563739005818E-10  1.60115352015166E-02
 cg2d: Sum(rhs),rhsMax =   1.47594228505632E-10  1.60131390381779E-02
 cg2d: Sum(rhs),rhsMax =   1.47631559754835E-10  1.60147375485192E-02
 cg2d: Sum(rhs),rhsMax =   1.47670931038846E-10  1.60163307395166E-02
 cg2d: Sum(rhs),rhsMax =   1.47685044749046E-10  1.60179186270830E-02
 cg2d: Sum(rhs),rhsMax =   1.47719655951839E-10  1.60195012254460E-02
 cg2d: Sum(rhs),rhsMax =   1.47750103818289E-10  1.60210785447477E-02
 cg2d: Sum(rhs),rhsMax =   1.47769421698918E-10  1.60226505892117E-02
 cg2d: Sum(rhs),rhsMax =   1.47796483385143E-10  1.60242173744694E-02
 cg2d: Sum(rhs),rhsMax =   1.47830067631638E-10  1.60257788928203E-02
 cg2d: Sum(rhs),rhsMax =   1.47860321209059E-10  1.60273351552910E-02
 cg2d: Sum(rhs),rhsMax =   1.47901482727697E-10  1.60288861515219E-02
 cg2d: Sum(rhs),rhsMax =   1.47929668514735E-10  1.60304318762664E-02
 cg2d: Sum(rhs),rhsMax =   1.47955328544391E-10  1.60319723173327E-02
 cg2d: Sum(rhs),rhsMax =   1.47970094510619E-10  1.60335074614192E-02
 Computing Diagnostic #    26 "THETA   " (list#  1) Parms "SMR     MR      ", Count=     144
 Computing Diagnostic #    27 "SALT    " (list#  1) Parms "SMR     MR      ", Count=     144
 Computing Diagnostic #    30 "UVEL    " (list#  1) Parms "UUR     MR      ", Count=     144
             Vector  Mate for "UVEL    " :  Diagnostic #     31 "VVEL    " exists
 Computing Diagnostic #    32 "WVEL    " (list#  1) Parms "WM      LR      ", Count=     144
 Computing Diagnostic #    31 "VVEL    " (list#  1) Parms "VVR     MR      ", Count=     144
             Vector  Mate for "VVEL    " :  Diagnostic #     30 "UVEL    " exists
 Computing Diagnostic #   197 "BRGfwFlx" (list#  2) Parms "SM      MR      ", Count=     144
 Computing Diagnostic #   198 "BRGhtFlx" (list#  2) Parms "SM      MR      ", Count=     144
 Computing Diagnostic #   199 "BRGmltRt" (list#  2) Parms "SM      MR      ", Count=     144
 Computing Diagnostic #   201 "BRG_TauX" (list#  2) Parms "UU      MR      ", Count=    1728
 Computing Diagnostic #   202 "BRG_TauY" (list#  2) Parms "VV      MR      ", Count=    1728
 Computing Diagnostic #   203 "BRGhFacC" (list#  2) Parms "SM      MR      ", Count=    1728
 cg2d: Sum(rhs),rhsMax =   1.47995241062127E-10  1.60350372912532E-02
 cg2d: Sum(rhs),rhsMax =   1.48021220280903E-10  1.60365617891440E-02
 cg2d: Sum(rhs),rhsMax =   1.48056109039452E-10  1.60380809343611E-02
 cg2d: Sum(rhs),rhsMax =   1.48102113906035E-10  1.60395947047724E-02
 cg2d: Sum(rhs),rhsMax =   1.48147064060744E-10  1.60411011490859E-02
 cg2d: Sum(rhs),rhsMax =   1.48180218095817E-10  1.60426016122277E-02
 cg2d: Sum(rhs),rhsMax =   1.48211040662538E-10  1.60440966290256E-02
 cg2d: Sum(rhs),rhsMax =   1.48234702290750E-10  1.60455861725200E-02
 cg2d: Sum(rhs),rhsMax =   1.48250217657520E-10  1.60470702234791E-02
 cg2d: Sum(rhs),rhsMax =   1.48273102129615E-10  1.60485487666136E-02
 cg2d: Sum(rhs),rhsMax =   1.48312168102294E-10  1.60500217867637E-02
 cg2d: Sum(rhs),rhsMax =   1.48355841500525E-10  1.60514892712874E-02
 cg2d: Sum(rhs),rhsMax =   1.48384943221558E-10  1.60529512104939E-02
 cg2d: Sum(rhs),rhsMax =   1.48421192003312E-10  1.60544076001232E-02
 cg2d: Sum(rhs),rhsMax =   1.48450945980372E-10  1.60558584399271E-02
 cg2d: Sum(rhs),rhsMax =   1.48487250273277E-10  1.60573037347690E-02
 cg2d: Sum(rhs),rhsMax =   1.48526246857017E-10  1.60587435002278E-02
 cg2d: Sum(rhs),rhsMax =   1.48533338406587E-10  1.60601777574990E-02
 cg2d: Sum(rhs),rhsMax =   1.48555959200714E-10  1.60616065352272E-02
 cg2d: Sum(rhs),rhsMax =   1.48599341165401E-10  1.60630298741913E-02
 cg2d: Sum(rhs),rhsMax =   1.48626874696411E-10  1.60644478238626E-02
 cg2d: Sum(rhs),rhsMax =   1.48665038612883E-10  1.60658604459441E-02
 cg2d: Sum(rhs),rhsMax =   1.48695764035089E-10  1.60672678113512E-02
 cg2d: Sum(rhs),rhsMax =   1.48716580716801E-10  1.60686700073866E-02
 cg2d: Sum(rhs),rhsMax =   1.48754883411151E-10  1.60700671302925E-02
 cg2d: Sum(rhs),rhsMax =   1.48783846354306E-10  1.60714592915247E-02
 cg2d: Sum(rhs),rhsMax =   1.48811504785407E-10  1.60728466180624E-02
 cg2d: Sum(rhs),rhsMax =   1.48847947856190E-10  1.60742292452776E-02
 cg2d: Sum(rhs),rhsMax =   1.48887097095596E-10  1.60756073299403E-02
 cg2d: Sum(rhs),rhsMax =   1.48919515607915E-10  1.60769810415337E-02
 cg2d: Sum(rhs),rhsMax =   1.48970044633323E-10  1.60783505612604E-02
 cg2d: Sum(rhs),rhsMax =   1.49002296612188E-10  1.60797160892157E-02
 cg2d: Sum(rhs),rhsMax =   1.49031606500039E-10  1.60810734306022E-02
 cg2d: Sum(rhs),rhsMax =   1.49071324728745E-10  1.60824217937148E-02
 cg2d: Sum(rhs),rhsMax =   1.49096110457769E-10  1.60837661088540E-02
 cg2d: Sum(rhs),rhsMax =   1.49145223948821E-10  1.60851074431227E-02
 cg2d: Sum(rhs),rhsMax =   1.49193171705697E-10  1.60864462083460E-02
 cg2d: Sum(rhs),rhsMax =   1.49215056977070E-10  1.60877827762335E-02
 cg2d: Sum(rhs),rhsMax =   1.49257661785640E-10  1.60891175106539E-02
 cg2d: Sum(rhs),rhsMax =   1.49287221473671E-10  1.60904507825360E-02
 cg2d: Sum(rhs),rhsMax =   1.49324566600662E-10  1.60917829710281E-02
 cg2d: Sum(rhs),rhsMax =   1.49368642454739E-10  1.60931144616888E-02
 cg2d: Sum(rhs),rhsMax =   1.49395162907240E-10  1.60944456467659E-02
 cg2d: Sum(rhs),rhsMax =   1.49448342590119E-10  1.60957769250971E-02
 cg2d: Sum(rhs),rhsMax =   1.49473947108625E-10  1.60971086963818E-02
 cg2d: Sum(rhs),rhsMax =   1.49521284242837E-10  1.60984413657197E-02
 cg2d: Sum(rhs),rhsMax =   1.49561391049602E-10  1.60997753367649E-02
 cg2d: Sum(rhs),rhsMax =   1.49583234687611E-10  1.61011110131696E-02
 cg2d: Sum(rhs),rhsMax =   1.49630002832524E-10  1.61024487966627E-02
 cg2d: Sum(rhs),rhsMax =   1.49665418947009E-10  1.61037890622641E-02
 cg2d: Sum(rhs),rhsMax =   1.49690329576124E-10  1.61051322462041E-02
 cg2d: Sum(rhs),rhsMax =   1.49730478016252E-10  1.61064787224751E-02
 cg2d: Sum(rhs),rhsMax =   1.49759621370649E-10  1.61078288611357E-02
 cg2d: Sum(rhs),rhsMax =   1.49799839199716E-10  1.61091830331448E-02
 cg2d: Sum(rhs),rhsMax =   1.49822501627206E-10  1.61105416037097E-02
 cg2d: Sum(rhs),rhsMax =   1.49856391185033E-10  1.61119049175413E-02
 cg2d: Sum(rhs),rhsMax =   1.49892931400331E-10  1.61132733097689E-02
 cg2d: Sum(rhs),rhsMax =   1.49929957338202E-10  1.61146470991005E-02
 cg2d: Sum(rhs),rhsMax =   1.49962625650701E-10  1.61160265892890E-02
 cg2d: Sum(rhs),rhsMax =   1.49990145303924E-10  1.61174120652335E-02
 cg2d: Sum(rhs),rhsMax =   1.50022994027665E-10  1.61188037866110E-02
 cg2d: Sum(rhs),rhsMax =   1.50054163539082E-10  1.61202020118299E-02
 cg2d: Sum(rhs),rhsMax =   1.50091952755282E-10  1.61215752375722E-02
 cg2d: Sum(rhs),rhsMax =   1.50129533804666E-10  1.61229558531240E-02
 cg2d: Sum(rhs),rhsMax =   1.50156664879830E-10  1.61243442639383E-02
 cg2d: Sum(rhs),rhsMax =   1.50190901382352E-10  1.61257407541126E-02
 cg2d: Sum(rhs),rhsMax =   1.50217449590428E-10  1.61271457897528E-02
 cg2d: Sum(rhs),rhsMax =   1.50255322073356E-10  1.61285597518204E-02
 cg2d: Sum(rhs),rhsMax =   1.50276804888883E-10  1.61299829705914E-02
 cg2d: Sum(rhs),rhsMax =   1.50316745162193E-10  1.61314157596893E-02
 cg2d: Sum(rhs),rhsMax =   1.50349635519298E-10  1.61328583706841E-02
 cg2d: Sum(rhs),rhsMax =   1.50381998520466E-10  1.61343110250505E-02
 cg2d: Sum(rhs),rhsMax =   1.50415763178202E-10  1.61357739060166E-02
 cg2d: Sum(rhs),rhsMax =   1.50436968437972E-10  1.61372471559237E-02
 cg2d: Sum(rhs),rhsMax =   1.50462101111692E-10  1.61387308723742E-02
 cg2d: Sum(rhs),rhsMax =   1.50500542583920E-10  1.61402251084772E-02
 cg2d: Sum(rhs),rhsMax =   1.50526618947211E-10  1.61417298739414E-02
 cg2d: Sum(rhs),rhsMax =   1.50558079892171E-10  1.61432451364551E-02
 cg2d: Sum(rhs),rhsMax =   1.50584544833521E-10  1.61447708244626E-02
 cg2d: Sum(rhs),rhsMax =   1.50622875283446E-10  1.61463068245854E-02
 cg2d: Sum(rhs),rhsMax =   1.50662912701272E-10  1.61478529813691E-02
 cg2d: Sum(rhs),rhsMax =   1.50686532696120E-10  1.61494090989175E-02
 cg2d: Sum(rhs),rhsMax =   1.50728957093449E-10  1.61509749522869E-02
 cg2d: Sum(rhs),rhsMax =   1.50771312101838E-10  1.61525502514249E-02
 cg2d: Sum(rhs),rhsMax =   1.50798346032488E-10  1.61541347011565E-02
 cg2d: Sum(rhs),rhsMax =   1.50843115775956E-10  1.61557278535686E-02
 cg2d: Sum(rhs),rhsMax =   1.50873827320375E-10  1.61573293349644E-02
 cg2d: Sum(rhs),rhsMax =   1.50904497231430E-10  1.61589387406784E-02
 cg2d: Sum(rhs),rhsMax =   1.50921289354677E-10  1.61605556387727E-02
 cg2d: Sum(rhs),rhsMax =   1.50954096445055E-10  1.61621795753354E-02
 cg2d: Sum(rhs),rhsMax =   1.50992870984190E-10  1.61638100681117E-02
 cg2d: Sum(rhs),rhsMax =   1.51002779724685E-10  1.61654466171395E-02
 cg2d: Sum(rhs),rhsMax =   1.51017073846127E-10  1.61670887030046E-02
 cg2d: Sum(rhs),rhsMax =   1.51046619656370E-10  1.61687357893852E-02
 cg2d: Sum(rhs),rhsMax =   1.51080273291804E-10  1.61703873256082E-02
 cg2d: Sum(rhs),rhsMax =   1.51100479350852E-10  1.61720427525630E-02
 cg2d: Sum(rhs),rhsMax =   1.51110429724710E-10  1.61737015019530E-02
 cg2d: Sum(rhs),rhsMax =   1.51128748404616E-10  1.61753629999179E-02
 cg2d: Sum(rhs),rhsMax =   1.51160042816123E-10  1.61770266702885E-02
 cg2d: Sum(rhs),rhsMax =   1.51193363384650E-10  1.61786919378477E-02
 cg2d: Sum(rhs),rhsMax =   1.51226350886269E-10  1.61803582307485E-02
 cg2d: Sum(rhs),rhsMax =   1.51250872937325E-10  1.61820249754508E-02
 cg2d: Sum(rhs),rhsMax =   1.51283374716371E-10  1.61836916161020E-02
 cg2d: Sum(rhs),rhsMax =   1.51327575470539E-10  1.61853576067389E-02
 cg2d: Sum(rhs),rhsMax =   1.51368986789358E-10  1.61870224098300E-02
 cg2d: Sum(rhs),rhsMax =   1.51405457615716E-10  1.61886855051671E-02
 cg2d: Sum(rhs),rhsMax =   1.51436363449164E-10  1.61903463904251E-02
 cg2d: Sum(rhs),rhsMax =   1.51457957286993E-10  1.61920045851500E-02
 cg2d: Sum(rhs),rhsMax =   1.51491902355971E-10  1.61936596297264E-02
 cg2d: Sum(rhs),rhsMax =   1.51534812475873E-10  1.61953110864704E-02
 cg2d: Sum(rhs),rhsMax =   1.51577347895504E-10  1.61969568291443E-02
 cg2d: Sum(rhs),rhsMax =   1.51599427455906E-10  1.61985981434135E-02
 cg2d: Sum(rhs),rhsMax =   1.51647527868448E-10  1.62002347760858E-02
 cg2d: Sum(rhs),rhsMax =   1.51692741701126E-10  1.62018663905370E-02
 cg2d: Sum(rhs),rhsMax =   1.51717513552363E-10  1.62034927021690E-02
 cg2d: Sum(rhs),rhsMax =   1.51758272615155E-10  1.62051134670256E-02
 cg2d: Sum(rhs),rhsMax =   1.51793896896457E-10  1.62067284655394E-02
 cg2d: Sum(rhs),rhsMax =   1.51837376005659E-10  1.62083375185563E-02
 cg2d: Sum(rhs),rhsMax =   1.51876053400279E-10  1.62099404900661E-02
 cg2d: Sum(rhs),rhsMax =   1.51903642442441E-10  1.62115372649714E-02
 cg2d: Sum(rhs),rhsMax =   1.51942708415120E-10  1.62131277800701E-02
 cg2d: Sum(rhs),rhsMax =   1.51961526695388E-10  1.62147119942457E-02
 cg2d: Sum(rhs),rhsMax =   1.51994403174704E-10  1.62162899006768E-02
 cg2d: Sum(rhs),rhsMax =   1.52018911347973E-10  1.62178614524946E-02
 cg2d: Sum(rhs),rhsMax =   1.52052356816590E-10  1.62194266525370E-02
 cg2d: Sum(rhs),rhsMax =   1.52078738491213E-10  1.62209855925994E-02
 cg2d: Sum(rhs),rhsMax =   1.52110962714502E-10  1.62225383946842E-02
 cg2d: Sum(rhs),rhsMax =   1.52139398301721E-10  1.62240852116352E-02
 cg2d: Sum(rhs),rhsMax =   1.52187901170109E-10  1.62256262247055E-02
 cg2d: Sum(rhs),rhsMax =   1.52209106429879E-10  1.62271616419315E-02
 cg2d: Sum(rhs),rhsMax =   1.52240844930596E-10  1.62286917009767E-02
 cg2d: Sum(rhs),rhsMax =   1.52279050480431E-10  1.62302166533571E-02
 cg2d: Sum(rhs),rhsMax =   1.52313467394194E-10  1.62317367822820E-02
 cg2d: Sum(rhs),rhsMax =   1.52329329705658E-10  1.62332523909027E-02
 cg2d: Sum(rhs),rhsMax =   1.52354878713012E-10  1.62347637965506E-02
 cg2d: Sum(rhs),rhsMax =   1.52380691398335E-10  1.62362713341950E-02
 cg2d: Sum(rhs),rhsMax =   1.52410403742032E-10  1.62377753544058E-02
 cg2d: Sum(rhs),rhsMax =   1.52435369882298E-10  1.62392762193330E-02
 cg2d: Sum(rhs),rhsMax =   1.52459642133174E-10  1.62407743033783E-02
 cg2d: Sum(rhs),rhsMax =   1.52487134030821E-10  1.62422699865833E-02
 cg2d: Sum(rhs),rhsMax =   1.52522536267519E-10  1.62437636592737E-02
 cg2d: Sum(rhs),rhsMax =   1.52556495214284E-10  1.62452557113112E-02
 cg2d: Sum(rhs),rhsMax =   1.52580198475860E-10  1.62467465415634E-02
 cg2d: Sum(rhs),rhsMax =   1.52608828352108E-10  1.62482365424754E-02
 Computing Diagnostic #    26 "THETA   " (list#  1) Parms "SMR     MR      ", Count=     144
 Computing Diagnostic #    27 "SALT    " (list#  1) Parms "SMR     MR      ", Count=     144
 Computing Diagnostic #    30 "UVEL    " (list#  1) Parms "UUR     MR      ", Count=     144
             Vector  Mate for "UVEL    " :  Diagnostic #     31 "VVEL    " exists
 Computing Diagnostic #    32 "WVEL    " (list#  1) Parms "WM      LR      ", Count=     144
 Computing Diagnostic #    31 "VVEL    " (list#  1) Parms "VVR     MR      ", Count=     144
             Vector  Mate for "VVEL    " :  Diagnostic #     30 "UVEL    " exists
 Computing Diagnostic #   197 "BRGfwFlx" (list#  2) Parms "SM      MR      ", Count=     144
 Computing Diagnostic #   198 "BRGhtFlx" (list#  2) Parms "SM      MR      ", Count=     144
 Computing Diagnostic #   199 "BRGmltRt" (list#  2) Parms "SM      MR      ", Count=     144
 Computing Diagnostic #   201 "BRG_TauX" (list#  2) Parms "UU      MR      ", Count=    1728
 Computing Diagnostic #   202 "BRG_TauY" (list#  2) Parms "VV      MR      ", Count=    1728
 Computing Diagnostic #   203 "BRGhFacC" (list#  2) Parms "SM      MR      ", Count=    1728
 cg2d: Sum(rhs),rhsMax =   1.52638082728807E-10  1.62497261096502E-02
 cg2d: Sum(rhs),rhsMax =   1.52655776908261E-10  1.62512156326767E-02
 cg2d: Sum(rhs),rhsMax =   1.52683990450875E-10  1.62527054976270E-02
 cg2d: Sum(rhs),rhsMax =   1.52714119128206E-10  1.62541960838054E-02
 cg2d: Sum(rhs),rhsMax =   1.52739598746621E-10  1.62556877627365E-02
 cg2d: Sum(rhs),rhsMax =   1.52761137073298E-10  1.62571808940927E-02
 cg2d: Sum(rhs),rhsMax =   1.52784368490089E-10  1.62586758214948E-02
 cg2d: Sum(rhs),rhsMax =   1.52822657306650E-10  1.62601728806060E-02
 cg2d: Sum(rhs),rhsMax =   1.52856213797570E-10  1.62616723913282E-02
 cg2d: Sum(rhs),rhsMax =   1.52894738536524E-10  1.62631746606902E-02
 cg2d: Sum(rhs),rhsMax =   1.52933124497601E-10  1.62646799751650E-02
 cg2d: Sum(rhs),rhsMax =   1.52970233702199E-10  1.62661886072984E-02
 cg2d: Sum(rhs),rhsMax =   1.53006843306436E-10  1.62677008066965E-02
 cg2d: Sum(rhs),rhsMax =   1.53041412875865E-10  1.62692168090945E-02
 cg2d: Sum(rhs),rhsMax =   1.53071902375679E-10  1.62707368279422E-02
 cg2d: Sum(rhs),rhsMax =   1.53083087872652E-10  1.62722610553609E-02
 cg2d: Sum(rhs),rhsMax =   1.53121779145060E-10  1.62737896650277E-02
 cg2d: Sum(rhs),rhsMax =   1.53156654025821E-10  1.62753228104027E-02
 cg2d: Sum(rhs),rhsMax =   1.53175708228481E-10  1.62768606225242E-02
 cg2d: Sum(rhs),rhsMax =   1.53207557751500E-10  1.62784032162241E-02
 cg2d: Sum(rhs),rhsMax =   1.53228166266395E-10  1.62799506819451E-02
 cg2d: Sum(rhs),rhsMax =   1.53261181523590E-10  1.62815030943415E-02
 cg2d: Sum(rhs),rhsMax =   1.53280527159794E-10  1.62830605032925E-02
 cg2d: Sum(rhs),rhsMax =   1.53308213346470E-10  1.62846229453209E-02
 cg2d: Sum(rhs),rhsMax =   1.53346238485064E-10  1.62861904372189E-02
 cg2d: Sum(rhs),rhsMax =   1.53373078126684E-10  1.62877629790531E-02
 cg2d: Sum(rhs),rhsMax =   1.53402582303563E-10  1.62893405538447E-02
 cg2d: Sum(rhs),rhsMax =   1.53422094473221E-10  1.62909231282705E-02
 cg2d: Sum(rhs),rhsMax =   1.53456497509197E-10  1.62925106566818E-02
 cg2d: Sum(rhs),rhsMax =   1.53493218135736E-10  1.62941030774204E-02
 cg2d: Sum(rhs),rhsMax =   1.53511897638126E-10  1.62957003169703E-02
 cg2d: Sum(rhs),rhsMax =   1.53543289194147E-10  1.62973022900364E-02
 cg2d: Sum(rhs),rhsMax =   1.53575818728768E-10  1.62989088993023E-02
 cg2d: Sum(rhs),rhsMax =   1.53594664764611E-10  1.63005200390636E-02
 cg2d: Sum(rhs),rhsMax =   1.53626958376840E-10  1.63021355975196E-02
 cg2d: Sum(rhs),rhsMax =   1.53654436396700E-10  1.63037554525614E-02
 cg2d: Sum(rhs),rhsMax =   1.53684440173940E-10  1.63053794787688E-02
 cg2d: Sum(rhs),rhsMax =   1.53701718019761E-10  1.63070075444299E-02
 cg2d: Sum(rhs),rhsMax =   1.53731347096731E-10  1.63086395160636E-02
 cg2d: Sum(rhs),rhsMax =   1.53763612953384E-10  1.63102752553484E-02
 cg2d: Sum(rhs),rhsMax =   1.53795601254281E-10  1.63119146233610E-02
 cg2d: Sum(rhs),rhsMax =   1.53812421133104E-10  1.63135574833827E-02
 cg2d: Sum(rhs),rhsMax =   1.53858453755262E-10  1.63152036925050E-02
 cg2d: Sum(rhs),rhsMax =   1.53884377462887E-10  1.63168531168660E-02
 cg2d: Sum(rhs),rhsMax =   1.53906790090197E-10  1.63185056210850E-02
 cg2d: Sum(rhs),rhsMax =   1.53942886216285E-10  1.63201610718937E-02
 cg2d: Sum(rhs),rhsMax =   1.53974208383367E-10  1.63218193364309E-02
 cg2d: Sum(rhs),rhsMax =   1.54010762476453E-10  1.63234802835997E-02
 cg2d: Sum(rhs),rhsMax =   1.54040585842452E-10  1.63251438046861E-02
 cg2d: Sum(rhs),rhsMax =   1.54075738278969E-10  1.63268097916415E-02
 cg2d: Sum(rhs),rhsMax =   1.54096055360320E-10  1.63284781300617E-02
 cg2d: Sum(rhs),rhsMax =   1.54123366846726E-10  1.63301487166502E-02
 cg2d: Sum(rhs),rhsMax =   1.54160365029021E-10  1.63318214607381E-02
 cg2d: Sum(rhs),rhsMax =   1.54185886280800E-10  1.63334962768790E-02
 cg2d: Sum(rhs),rhsMax =   1.54210019753798E-10  1.63351730866474E-02
 cg2d: Sum(rhs),rhsMax =   1.54232071558624E-10  1.63368518176297E-02
 cg2d: Sum(rhs),rhsMax =   1.54255247464263E-10  1.63385324024889E-02
 cg2d: Sum(rhs),rhsMax =   1.54299475974007E-10  1.63402147794419E-02
 cg2d: Sum(rhs),rhsMax =   1.54328577695040E-10  1.63418988950945E-02
 cg2d: Sum(rhs),rhsMax =   1.54351156855803E-10  1.63435846996275E-02
 cg2d: Sum(rhs),rhsMax =   1.54385740303020E-10  1.63452721512038E-02
 cg2d: Sum(rhs),rhsMax =   1.54412149733218E-10  1.63469612128797E-02
 cg2d: Sum(rhs),rhsMax =   1.54445942146531E-10  1.63486518500366E-02
 cg2d: Sum(rhs),rhsMax =   1.54487270198622E-10  1.63503440785895E-02
 cg2d: Sum(rhs),rhsMax =   1.54515775174779E-10  1.63520377966834E-02
 cg2d: Sum(rhs),rhsMax =   1.54526003104394E-10  1.63537329610309E-02
 cg2d: Sum(rhs),rhsMax =   1.54550594544389E-10  1.63554296684475E-02
 cg2d: Sum(rhs),rhsMax =   1.54579807287725E-10  1.63571278633566E-02
 cg2d: Sum(rhs),rhsMax =   1.54600651725012E-10  1.63588275405269E-02
 cg2d: Sum(rhs),rhsMax =   1.54628185256023E-10  1.63605286750395E-02
 cg2d: Sum(rhs),rhsMax =   1.54650667272271E-10  1.63622312596404E-02
 cg2d: Sum(rhs),rhsMax =   1.54674481556150E-10  1.63639353293599E-02
 cg2d: Sum(rhs),rhsMax =   1.54693133302963E-10  1.63656408653288E-02
 cg2d: Sum(rhs),rhsMax =   1.54727980428149E-10  1.63673478732101E-02
 cg2d: Sum(rhs),rhsMax =   1.54760398940468E-10  1.63690562921749E-02
 cg2d: Sum(rhs),rhsMax =   1.54802254348496E-10  1.63707661288866E-02
 cg2d: Sum(rhs),rhsMax =   1.54822848985603E-10  1.63724773835446E-02
 cg2d: Sum(rhs),rhsMax =   1.54848828204379E-10  1.63741899812279E-02
 cg2d: Sum(rhs),rhsMax =   1.54876458879905E-10  1.63759039063395E-02
 cg2d: Sum(rhs),rhsMax =   1.54911194982787E-10  1.63776191378407E-02
 cg2d: Sum(rhs),rhsMax =   1.54936771745717E-10  1.63793356190955E-02
 cg2d: Sum(rhs),rhsMax =   1.54958143538941E-10  1.63810532874188E-02
 cg2d: Sum(rhs),rhsMax =   1.54993226586519E-10  1.63827720753933E-02
 cg2d: Sum(rhs),rhsMax =   1.55020288272745E-10  1.63844919093679E-02
 cg2d: Sum(rhs),rhsMax =   1.55046475658338E-10  1.63862127077544E-02
 cg2d: Sum(rhs),rhsMax =   1.55090149056569E-10  1.63879343802350E-02
 cg2d: Sum(rhs),rhsMax =   1.55104526444738E-10  1.63896568253087E-02
 cg2d: Sum(rhs),rhsMax =   1.55143980995476E-10  1.63913799349215E-02
 cg2d: Sum(rhs),rhsMax =   1.55179299965447E-10  1.63931035890810E-02
 cg2d: Sum(rhs),rhsMax =   1.55213522590181E-10  1.63948276604297E-02
 cg2d: Sum(rhs),rhsMax =   1.55241652866067E-10  1.63965520142058E-02
 cg2d: Sum(rhs),rhsMax =   1.55265508783309E-10  1.63982765017479E-02
 cg2d: Sum(rhs),rhsMax =   1.55298496284928E-10  1.64000009746417E-02
 cg2d: Sum(rhs),rhsMax =   1.55324725303885E-10  1.64017252673575E-02
 cg2d: Sum(rhs),rhsMax =   1.55344084817877E-10  1.64034492132302E-02
 cg2d: Sum(rhs),rhsMax =   1.55361182252456E-10  1.64051726363882E-02
 cg2d: Sum(rhs),rhsMax =   1.55403995227843E-10  1.64068953532977E-02
 cg2d: Sum(rhs),rhsMax =   1.55433818593842E-10  1.64086171781691E-02
 cg2d: Sum(rhs),rhsMax =   1.55461546413882E-10  1.64103379176111E-02
 cg2d: Sum(rhs),rhsMax =   1.55493729003808E-10  1.64120573734253E-02
 cg2d: Sum(rhs),rhsMax =   1.55516835520508E-10  1.64137753476892E-02
 cg2d: Sum(rhs),rhsMax =   1.55543619650977E-10  1.64154916345839E-02
 cg2d: Sum(rhs),rhsMax =   1.55575816118692E-10  1.64172060302988E-02
 cg2d: Sum(rhs),rhsMax =   1.55591220463158E-10  1.64189183277005E-02
 cg2d: Sum(rhs),rhsMax =   1.55631799114708E-10  1.64206283217581E-02
 cg2d: Sum(rhs),rhsMax =   1.55663953949059E-10  1.64223358077701E-02
 cg2d: Sum(rhs),rhsMax =   1.55687213121425E-10  1.64240405825081E-02
 cg2d: Sum(rhs),rhsMax =   1.55700258241964E-10  1.64257424458649E-02
 cg2d: Sum(rhs),rhsMax =   1.55734647400152E-10  1.64274412000020E-02
 cg2d: Sum(rhs),rhsMax =   1.55768536957979E-10  1.64291366537822E-02
 cg2d: Sum(rhs),rhsMax =   1.55789603439871E-10  1.64308286219309E-02
 cg2d: Sum(rhs),rhsMax =   1.55829224524062E-10  1.64325169227029E-02
 cg2d: Sum(rhs),rhsMax =   1.55850943261981E-10  1.64342013875177E-02
 cg2d: Sum(rhs),rhsMax =   1.55879503749290E-10  1.64358818492932E-02
 cg2d: Sum(rhs),rhsMax =   1.55902082910053E-10  1.64375581547120E-02
 cg2d: Sum(rhs),rhsMax =   1.55929602563276E-10  1.64392301613329E-02
 cg2d: Sum(rhs),rhsMax =   1.55964144377130E-10  1.64408918287451E-02
 cg2d: Sum(rhs),rhsMax =   1.55982171623492E-10  1.64425489856886E-02
 cg2d: Sum(rhs),rhsMax =   1.56009136165203E-10  1.64442016029596E-02
 cg2d: Sum(rhs),rhsMax =   1.56037724408087E-10  1.64458496115461E-02
 cg2d: Sum(rhs),rhsMax =   1.56068158396749E-10  1.64474929688162E-02
 cg2d: Sum(rhs),rhsMax =   1.56096788272997E-10  1.64491315943006E-02
 cg2d: Sum(rhs),rhsMax =   1.56111720772678E-10  1.64507654703074E-02
 cg2d: Sum(rhs),rhsMax =   1.56134077888836E-10  1.64523946071345E-02
 cg2d: Sum(rhs),rhsMax =   1.56151758190504E-10  1.64540190503740E-02
 cg2d: Sum(rhs),rhsMax =   1.56181026444990E-10  1.64556388185663E-02
 cg2d: Sum(rhs),rhsMax =   1.56211932278438E-10  1.64572539507257E-02
 cg2d: Sum(rhs),rhsMax =   1.56237495163580E-10  1.64588645070653E-02
 cg2d: Sum(rhs),rhsMax =   1.56260449024614E-10  1.64604705596067E-02
 cg2d: Sum(rhs),rhsMax =   1.56303150977699E-10  1.64620721894515E-02
 cg2d: Sum(rhs),rhsMax =   1.56340815293809E-10  1.64636694852357E-02
 cg2d: Sum(rhs),rhsMax =   1.56363838543783E-10  1.64652625591577E-02
 cg2d: Sum(rhs),rhsMax =   1.56400531414747E-10  1.64668515034244E-02
 cg2d: Sum(rhs),rhsMax =   1.56427745756638E-10  1.64684364413508E-02
 cg2d: Sum(rhs),rhsMax =   1.56462981459882E-10  1.64700175166357E-02
 cg2d: Sum(rhs),rhsMax =   1.56487475755362E-10  1.64715948706647E-02
 cg2d: Sum(rhs),rhsMax =   1.56515897464793E-10  1.64731686468491E-02
 cg2d: Sum(rhs),rhsMax =   1.56540655438242E-10  1.64747389901868E-02
 cg2d: Sum(rhs),rhsMax =   1.56565135855935E-10  1.64763060557715E-02
 cg2d: Sum(rhs),rhsMax =   1.56595153510963E-10  1.64778700032790E-02
 cg2d: Sum(rhs),rhsMax =   1.56624449521026E-10  1.64794309969741E-02
 cg2d: Sum(rhs),rhsMax =   1.56659157868333E-10  1.64809892022776E-02
 cg2d: Sum(rhs),rhsMax =   1.56694143771396E-10  1.64825447875433E-02
 cg2d: Sum(rhs),rhsMax =   1.56715543320196E-10  1.64840979217832E-02
 Computing Diagnostic #    26 "THETA   " (list#  1) Parms "SMR     MR      ", Count=     144
 Computing Diagnostic #    27 "SALT    " (list#  1) Parms "SMR     MR      ", Count=     144
 Computing Diagnostic #    30 "UVEL    " (list#  1) Parms "UUR     MR      ", Count=     144
             Vector  Mate for "UVEL    " :  Diagnostic #     31 "VVEL    " exists
 Computing Diagnostic #    32 "WVEL    " (list#  1) Parms "WM      LR      ", Count=     144
 Computing Diagnostic #    31 "VVEL    " (list#  1) Parms "VVR     MR      ", Count=     144
             Vector  Mate for "VVEL    " :  Diagnostic #     30 "UVEL    " exists
 Computing Diagnostic #   197 "BRGfwFlx" (list#  2) Parms "SM      MR      ", Count=     144
 Computing Diagnostic #   198 "BRGhtFlx" (list#  2) Parms "SM      MR      ", Count=     144
 Computing Diagnostic #   199 "BRGmltRt" (list#  2) Parms "SM      MR      ", Count=     144
 Computing Diagnostic #   201 "BRG_TauX" (list#  2) Parms "UU      MR      ", Count=    1728
 Computing Diagnostic #   202 "BRG_TauY" (list#  2) Parms "VV      MR      ", Count=    1728
 Computing Diagnostic #   203 "BRGhFacC" (list#  2) Parms "SM      MR      ", Count=    1728
 cg2d: Sum(rhs),rhsMax =   1.56737747780689E-10  1.64856488005879E-02
 cg2d: Sum(rhs),rhsMax =   1.56774607185106E-10  1.64871975518698E-02
 cg2d: Sum(rhs),rhsMax =   1.56797810846321E-10  1.64887443330563E-02
 cg2d: Sum(rhs),rhsMax =   1.56833934727985E-10  1.64902893221443E-02
 cg2d: Sum(rhs),rhsMax =   1.56861468258995E-10  1.64918326760501E-02
 cg2d: Sum(rhs),rhsMax =   1.56889695679396E-10  1.64933745443360E-02
 cg2d: Sum(rhs),rhsMax =   1.56921531324627E-10  1.64949150738125E-02
 cg2d: Sum(rhs),rhsMax =   1.56948759544306E-10  1.64964544068004E-02
 cg2d: Sum(rhs),rhsMax =   1.56980081711389E-10  1.64979926762345E-02
 cg2d: Sum(rhs),rhsMax =   1.57013999024791E-10  1.64995300106377E-02
 cg2d: Sum(rhs),rhsMax =   1.57046056714627E-10  1.65010665205028E-02
 cg2d: Sum(rhs),rhsMax =   1.57080293217149E-10  1.65026023133082E-02
 cg2d: Sum(rhs),rhsMax =   1.57099958042473E-10  1.65041374842733E-02
 cg2d: Sum(rhs),rhsMax =   1.57116944454749E-10  1.65056721206227E-02
 cg2d: Sum(rhs),rhsMax =   1.57154608770860E-10  1.65072062968168E-02
 cg2d: Sum(rhs),rhsMax =   1.57180254922729E-10  1.65087400740894E-02
 cg2d: Sum(rhs),rhsMax =   1.57203278172702E-10  1.65102735076819E-02
 cg2d: Sum(rhs),rhsMax =   1.57232296627008E-10  1.65118066366014E-02
 cg2d: Sum(rhs),rhsMax =   1.57262772249034E-10  1.65133394960780E-02
 cg2d: Sum(rhs),rhsMax =   1.57302434966589E-10  1.65148720968184E-02
 cg2d: Sum(rhs),rhsMax =   1.57335228179178E-10  1.65164044379875E-02
 cg2d: Sum(rhs),rhsMax =   1.57368312825312E-10  1.65179365236364E-02
 cg2d: Sum(rhs),rhsMax =   1.57395776967384E-10  1.65194683361967E-02
 cg2d: Sum(rhs),rhsMax =   1.57418689195055E-10  1.65209998449333E-02
 cg2d: Sum(rhs),rhsMax =   1.57449941973198E-10  1.65225310074059E-02
 cg2d: Sum(rhs),rhsMax =   1.57483123763846E-10  1.65240617693430E-02
 cg2d: Sum(rhs),rhsMax =   1.57515209209258E-10  1.65255920666028E-02
 cg2d: Sum(rhs),rhsMax =   1.57553914359454E-10  1.65271218300732E-02
 cg2d: Sum(rhs),rhsMax =   1.57571622416697E-10  1.65286509779512E-02
 cg2d: Sum(rhs),rhsMax =   1.57599891470461E-10  1.65301794409685E-02
 cg2d: Sum(rhs),rhsMax =   1.57631060981878E-10  1.65317071198985E-02
 cg2d: Sum(rhs),rhsMax =   1.57656207533385E-10  1.65332339087495E-02
 cg2d: Sum(rhs),rhsMax =   1.57693358371347E-10  1.65347596936470E-02
 cg2d: Sum(rhs),rhsMax =   1.57714910575812E-10  1.65362844167627E-02
 cg2d: Sum(rhs),rhsMax =   1.57744345363753E-10  1.65378078625624E-02
 cg2d: Sum(rhs),rhsMax =   1.57757862329078E-10  1.65393299080976E-02
 cg2d: Sum(rhs),rhsMax =   1.57784937893091E-10  1.65408504415362E-02
 cg2d: Sum(rhs),rhsMax =   1.57822102608840E-10  1.65423693366811E-02
 cg2d: Sum(rhs),rhsMax =   1.57851093307571E-10  1.65438864549641E-02
 cg2d: Sum(rhs),rhsMax =   1.57879362361335E-10  1.65454016600630E-02
 cg2d: Sum(rhs),rhsMax =   1.57918900178800E-10  1.65469148161416E-02
 cg2d: Sum(rhs),rhsMax =   1.57960172719740E-10  1.65484257889205E-02
 cg2d: Sum(rhs),rhsMax =   1.57984930693189E-10  1.65499836632758E-02
 cg2d: Sum(rhs),rhsMax =   1.57996490890433E-10  1.65515002991061E-02
 cg2d: Sum(rhs),rhsMax =   1.58023968910292E-10  1.65529918606944E-02
 cg2d: Sum(rhs),rhsMax =   1.58044521914036E-10  1.65544747353791E-02
 cg2d: Sum(rhs),rhsMax =   1.58067781086402E-10  1.65559529861387E-02
 cg2d: Sum(rhs),rhsMax =   1.58095897484500E-10  1.65574277159810E-02
 cg2d: Sum(rhs),rhsMax =   1.58130217253749E-10  1.65588992613746E-02
 cg2d: Sum(rhs),rhsMax =   1.58160956553743E-10  1.65603677226819E-02
 cg2d: Sum(rhs),rhsMax =   1.58183952048141E-10  1.65618331384771E-02
 cg2d: Sum(rhs),rhsMax =   1.58211388434637E-10  1.65632955333358E-02
 cg2d: Sum(rhs),rhsMax =   1.58246124537520E-10  1.65647549354563E-02
 cg2d: Sum(rhs),rhsMax =   1.58286550533404E-10  1.65662113755743E-02
 cg2d: Sum(rhs),rhsMax =   1.58323201771005E-10  1.65676648896571E-02
 cg2d: Sum(rhs),rhsMax =   1.58371316061334E-10  1.65691155229433E-02
 cg2d: Sum(rhs),rhsMax =   1.58396212812661E-10  1.65705649390271E-02
 cg2d: Sum(rhs),rhsMax =   1.58444243836264E-10  1.65720172869623E-02
 cg2d: Sum(rhs),rhsMax =   1.58469834476982E-10  1.65734677984052E-02
 cg2d: Sum(rhs),rhsMax =   1.58493440594043E-10  1.65749156683445E-02
 cg2d: Sum(rhs),rhsMax =   1.58542581840670E-10  1.65763608453264E-02
 cg2d: Sum(rhs),rhsMax =   1.58565660601795E-10  1.65778033472237E-02
 cg2d: Sum(rhs),rhsMax =   1.58594429255920E-10  1.65792432068785E-02
 cg2d: Sum(rhs),rhsMax =   1.58623725265983E-10  1.65806804650479E-02
 cg2d: Sum(rhs),rhsMax =   1.58651494719386E-10  1.65821151681982E-02
 cg2d: Sum(rhs),rhsMax =   1.58686397355723E-10  1.65835474249306E-02
 cg2d: Sum(rhs),rhsMax =   1.58715152132061E-10  1.65849772607196E-02
 cg2d: Sum(rhs),rhsMax =   1.58732346711155E-10  1.65864047846303E-02
 cg2d: Sum(rhs),rhsMax =   1.58750720902212E-10  1.65878300837517E-02
 cg2d: Sum(rhs),rhsMax =   1.58792867743784E-10  1.65892532320374E-02
 cg2d: Sum(rhs),rhsMax =   1.58820345763644E-10  1.65906743446837E-02
 cg2d: Sum(rhs),rhsMax =   1.58855581466888E-10  1.65920934187221E-02
 cg2d: Sum(rhs),rhsMax =   1.58879034928283E-10  1.65935106678365E-02
 cg2d: Sum(rhs),rhsMax =   1.58909246872341E-10  1.65949261889063E-02
 cg2d: Sum(rhs),rhsMax =   1.58938390226737E-10  1.65963400335231E-02
 cg2d: Sum(rhs),rhsMax =   1.58969865049485E-10  1.65977523169601E-02
 cg2d: Sum(rhs),rhsMax =   1.59006086075664E-10  1.65991631799331E-02
 cg2d: Sum(rhs),rhsMax =   1.59037158442565E-10  1.66005727498635E-02
 cg2d: Sum(rhs),rhsMax =   1.59054325266084E-10  1.66019811489193E-02
 cg2d: Sum(rhs),rhsMax =   1.59086147033527E-10  1.66033884982341E-02
 cg2d: Sum(rhs),rhsMax =   1.59109739272800E-10  1.66047949208797E-02
 cg2d: Sum(rhs),rhsMax =   1.59137925059838E-10  1.66062005414727E-02
 cg2d: Sum(rhs),rhsMax =   1.59168261903986E-10  1.66076054844815E-02
 cg2d: Sum(rhs),rhsMax =   1.59191396176261E-10  1.66090098737572E-02
 cg2d: Sum(rhs),rhsMax =   1.59217777850884E-10  1.66104138339164E-02
 cg2d: Sum(rhs),rhsMax =   1.59240745589706E-10  1.66118174863944E-02
 cg2d: Sum(rhs),rhsMax =   1.59275051481167E-10  1.66132209537643E-02
 cg2d: Sum(rhs),rhsMax =   1.59308469194208E-10  1.66146243510172E-02
 cg2d: Sum(rhs),rhsMax =   1.59346896788648E-10  1.66160277932644E-02
 cg2d: Sum(rhs),rhsMax =   1.59387669729227E-10  1.66174313947886E-02
 cg2d: Sum(rhs),rhsMax =   1.59422725021230E-10  1.66188352648085E-02
 cg2d: Sum(rhs),rhsMax =   1.59458599102713E-10  1.66202395067076E-02
 cg2d: Sum(rhs),rhsMax =   1.59484744854943E-10  1.66216442794583E-02
 cg2d: Sum(rhs),rhsMax =   1.59515498032725E-10  1.66230496570966E-02
 cg2d: Sum(rhs),rhsMax =   1.59556604040212E-10  1.66244556577456E-02
 cg2d: Sum(rhs),rhsMax =   1.59576907243775E-10  1.66258623481045E-02
 cg2d: Sum(rhs),rhsMax =   1.59613294803407E-10  1.66272698366464E-02
 cg2d: Sum(rhs),rhsMax =   1.59654151010713E-10  1.66286782141332E-02
 cg2d: Sum(rhs),rhsMax =   1.59677160382898E-10  1.66300875398679E-02
 cg2d: Sum(rhs),rhsMax =   1.59716517789121E-10  1.66314978591277E-02
 cg2d: Sum(rhs),rhsMax =   1.59735807914174E-10  1.66329092115173E-02
 cg2d: Sum(rhs),rhsMax =   1.59764548812724E-10  1.66343216370160E-02
 cg2d: Sum(rhs),rhsMax =   1.59798771437458E-10  1.66357351738589E-02
 cg2d: Sum(rhs),rhsMax =   1.59836643920386E-10  1.66371498472810E-02
 cg2d: Sum(rhs),rhsMax =   1.59864524396092E-10  1.66385656850931E-02
 cg2d: Sum(rhs),rhsMax =   1.59904520180554E-10  1.66399827029443E-02
 cg2d: Sum(rhs),rhsMax =   1.59939381183527E-10  1.66414009072171E-02
 cg2d: Sum(rhs),rhsMax =   1.59961460743929E-10  1.66428202991437E-02
 cg2d: Sum(rhs),rhsMax =   1.59999666293764E-10  1.66442408734445E-02
 cg2d: Sum(rhs),rhsMax =   1.60025478979087E-10  1.66456626207098E-02
 cg2d: Sum(rhs),rhsMax =   1.60059146492308E-10  1.66470855245701E-02
 cg2d: Sum(rhs),rhsMax =   1.60094285051038E-10  1.66485095623428E-02
 cg2d: Sum(rhs),rhsMax =   1.60123470038798E-10  1.66499347080885E-02
 cg2d: Sum(rhs),rhsMax =   1.60164700946375E-10  1.66513609295111E-02
 cg2d: Sum(rhs),rhsMax =   1.60205737564922E-10  1.66527881919630E-02
 cg2d: Sum(rhs),rhsMax =   1.60238378121846E-10  1.66542164552129E-02
 cg2d: Sum(rhs),rhsMax =   1.60263594062293E-10  1.66556456765643E-02
 cg2d: Sum(rhs),rhsMax =   1.60302035534521E-10  1.66570758124953E-02
 cg2d: Sum(rhs),rhsMax =   1.60317495390139E-10  1.66585068114629E-02
 cg2d: Sum(rhs),rhsMax =   1.60358795686655E-10  1.66599386269211E-02
 cg2d: Sum(rhs),rhsMax =   1.60385427161458E-10  1.66613712039200E-02
 cg2d: Sum(rhs),rhsMax =   1.60423160866507E-10  1.66628044915648E-02
 cg2d: Sum(rhs),rhsMax =   1.60438468066459E-10  1.66642384374606E-02
 cg2d: Sum(rhs),rhsMax =   1.60465571386048E-10  1.66656729872087E-02
 cg2d: Sum(rhs),rhsMax =   1.60490620793041E-10  1.66671080914536E-02
 cg2d: Sum(rhs),rhsMax =   1.60521179681794E-10  1.66685436940902E-02
 cg2d: Sum(rhs),rhsMax =   1.60541704929962E-10  1.66699797461560E-02
 cg2d: Sum(rhs),rhsMax =   1.60576676955237E-10  1.66714162002855E-02
 cg2d: Sum(rhs),rhsMax =   1.60606902777083E-10  1.66728530080389E-02
 cg2d: Sum(rhs),rhsMax =   1.60636004498116E-10  1.66742901260475E-02
 cg2d: Sum(rhs),rhsMax =   1.60668006676801E-10  1.66757275116328E-02
 cg2d: Sum(rhs),rhsMax =   1.60710861285551E-10  1.66771651301389E-02
 cg2d: Sum(rhs),rhsMax =   1.60734550669339E-10  1.66786029549357E-02
 cg2d: Sum(rhs),rhsMax =   1.60766677748114E-10  1.66800409478576E-02
 cg2d: Sum(rhs),rhsMax =   1.60801094661878E-10  1.66814790735928E-02
 cg2d: Sum(rhs),rhsMax =   1.60832888673745E-10  1.66829172549202E-02
 cg2d: Sum(rhs),rhsMax =   1.60853941277850E-10  1.66843555245465E-02
 cg2d: Sum(rhs),rhsMax =   1.60880059274504E-10  1.66857939808080E-02
 cg2d: Sum(rhs),rhsMax =   1.60906801771610E-10  1.66872326519100E-02
 cg2d: Sum(rhs),rhsMax =   1.60945326510564E-10  1.66886714251239E-02
 cg2d: Sum(rhs),rhsMax =   1.60973456786451E-10  1.66901102200144E-02
 cg2d: Sum(rhs),rhsMax =   1.61011731725225E-10  1.66915490566681E-02
 cg2d: Sum(rhs),rhsMax =   1.61043706148334E-10  1.66929879793481E-02
 cg2d: Sum(rhs),rhsMax =   1.61078470006792E-10  1.66944270168654E-02
 Computing Diagnostic #    26 "THETA   " (list#  1) Parms "SMR     MR      ", Count=     144
 Computing Diagnostic #    27 "SALT    " (list#  1) Parms "SMR     MR      ", Count=     144
 Computing Diagnostic #    30 "UVEL    " (list#  1) Parms "UUR     MR      ", Count=     144
             Vector  Mate for "UVEL    " :  Diagnostic #     31 "VVEL    " exists
 Computing Diagnostic #    32 "WVEL    " (list#  1) Parms "WM      LR      ", Count=     144
 Computing Diagnostic #    31 "VVEL    " (list#  1) Parms "VVR     MR      ", Count=     144
             Vector  Mate for "VVEL    " :  Diagnostic #     30 "UVEL    " exists
 Computing Diagnostic #   197 "BRGfwFlx" (list#  2) Parms "SM      MR      ", Count=     144
 Computing Diagnostic #   198 "BRGhtFlx" (list#  2) Parms "SM      MR      ", Count=     144
 Computing Diagnostic #   199 "BRGmltRt" (list#  2) Parms "SM      MR      ", Count=     144
 Computing Diagnostic #   201 "BRG_TauX" (list#  2) Parms "UU      MR      ", Count=    1728
 Computing Diagnostic #   202 "BRG_TauY" (list#  2) Parms "VV      MR      ", Count=    1728
 Computing Diagnostic #   203 "BRGhFacC" (list#  2) Parms "SM      MR      ", Count=    1728
 cg2d: Sum(rhs),rhsMax =   1.61116869845657E-10  1.66958661902930E-02
 cg2d: Sum(rhs),rhsMax =   1.61149149580098E-10  1.66973055209444E-02
 cg2d: Sum(rhs),rhsMax =   1.61171812007588E-10  1.66987450367767E-02
 cg2d: Sum(rhs),rhsMax =   1.61206797910651E-10  1.67001847793735E-02
 cg2d: Sum(rhs),rhsMax =   1.61223534522748E-10  1.67016247913694E-02
 cg2d: Sum(rhs),rhsMax =   1.61254593011861E-10  1.67030651185015E-02
 cg2d: Sum(rhs),rhsMax =   1.61273341903190E-10  1.67045058096964E-02
 cg2d: Sum(rhs),rhsMax =   1.61293686740116E-10  1.67059469167650E-02
 cg2d: Sum(rhs),rhsMax =   1.61327701198033E-10  1.67073884904836E-02
 cg2d: Sum(rhs),rhsMax =   1.61366447981592E-10  1.67088305920164E-02
 cg2d: Sum(rhs),rhsMax =   1.61395355413596E-10  1.67102732799395E-02
 cg2d: Sum(rhs),rhsMax =   1.61416019439642E-10  1.67117166141808E-02
 cg2d: Sum(rhs),rhsMax =   1.61442831325687E-10  1.67131606575953E-02
 cg2d: Sum(rhs),rhsMax =   1.61477373139540E-10  1.67146054731288E-02
 cg2d: Sum(rhs),rhsMax =   1.61502200501928E-10  1.67160511239041E-02
 cg2d: Sum(rhs),rhsMax =   1.61539989718129E-10  1.67174976795110E-02
 cg2d: Sum(rhs),rhsMax =   1.61561847233926E-10  1.67189452131337E-02
 cg2d: Sum(rhs),rhsMax =   1.61597721315410E-10  1.67203937811628E-02
 cg2d: Sum(rhs),rhsMax =   1.61620758443171E-10  1.67218434500537E-02
 cg2d: Sum(rhs),rhsMax =   1.61651317331923E-10  1.67232942730420E-02
 cg2d: Sum(rhs),rhsMax =   1.61675728360677E-10  1.67247462918041E-02
 cg2d: Sum(rhs),rhsMax =   1.61703928025503E-10  1.67261996033775E-02
 cg2d: Sum(rhs),rhsMax =   1.61744881377324E-10  1.67276542326682E-02
 cg2d: Sum(rhs),rhsMax =   1.61757524042017E-10  1.67291102307059E-02
 cg2d: Sum(rhs),rhsMax =   1.61792565456231E-10  1.67305676505782E-02
 cg2d: Sum(rhs),rhsMax =   1.61828106470807E-10  1.67320265370997E-02
 cg2d: Sum(rhs),rhsMax =   1.61858595970621E-10  1.67334835824876E-02
 cg2d: Sum(rhs),rhsMax =   1.61886407057388E-10  1.67349403843650E-02
 cg2d: Sum(rhs),rhsMax =   1.61909333162846E-10  1.67363988621120E-02
 cg2d: Sum(rhs),rhsMax =   1.61929761266499E-10  1.67378590926309E-02
 cg2d: Sum(rhs),rhsMax =   1.61958613187352E-10  1.67393211542942E-02
 cg2d: Sum(rhs),rhsMax =   1.61990629243824E-10  1.67407851261448E-02
 cg2d: Sum(rhs),rhsMax =   1.62019203608921E-10  1.67422510739456E-02
 cg2d: Sum(rhs),rhsMax =   1.62039007212122E-10  1.67437190618014E-02
 cg2d: Sum(rhs),rhsMax =   1.62070176723539E-10  1.67451891465083E-02
 cg2d: Sum(rhs),rhsMax =   1.62108673706918E-10  1.67466613801621E-02
 cg2d: Sum(rhs),rhsMax =   1.62127450353822E-10  1.67481358034066E-02
 cg2d: Sum(rhs),rhsMax =   1.62154775718015E-10  1.67496124570485E-02
 cg2d: Sum(rhs),rhsMax =   1.62189178753991E-10  1.67510913685960E-02
 cg2d: Sum(rhs),rhsMax =   1.62210522791639E-10  1.67525725628851E-02
 cg2d: Sum(rhs),rhsMax =   1.62244190304861E-10  1.67540560633944E-02
 cg2d: Sum(rhs),rhsMax =   1.62286434290948E-10  1.67555418867718E-02
 cg2d: Sum(rhs),rhsMax =   1.62316646235006E-10  1.67570300139785E-02
 cg2d: Sum(rhs),rhsMax =   1.62349120258476E-10  1.67585204408769E-02
 cg2d: Sum(rhs),rhsMax =   1.62372393308630E-10  1.67600131598688E-02
 cg2d: Sum(rhs),rhsMax =   1.62406713077878E-10  1.67615081576185E-02
 cg2d: Sum(rhs),rhsMax =   1.62439783846224E-10  1.67630054107388E-02
 cg2d: Sum(rhs),rhsMax =   1.62464916519944E-10  1.67645048908227E-02
 cg2d: Sum(rhs),rhsMax =   1.62489660615606E-10  1.67660065659376E-02
 cg2d: Sum(rhs),rhsMax =   1.62515015333931E-10  1.67675103890144E-02
 cg2d: Sum(rhs),rhsMax =   1.62550126137084E-10  1.67690163223980E-02
 cg2d: Sum(rhs),rhsMax =   1.62578159268456E-10  1.67705243033966E-02
 cg2d: Sum(rhs),rhsMax =   1.62603791542537E-10  1.67720343365625E-02
 cg2d: Sum(rhs),rhsMax =   1.62632046718514E-10  1.67735463155320E-02
 cg2d: Sum(rhs),rhsMax =   1.62659663516251E-10  1.67750601869097E-02
 cg2d: Sum(rhs),rhsMax =   1.62692290195388E-10  1.67765758980245E-02
 cg2d: Sum(rhs),rhsMax =   1.62729510422288E-10  1.67780933855133E-02
 cg2d: Sum(rhs),rhsMax =   1.62764982047925E-10  1.67796125950326E-02
 cg2d: Sum(rhs),rhsMax =   1.62799523861779E-10  1.67811334864427E-02
 cg2d: Sum(rhs),rhsMax =   1.62830512961953E-10  1.67826559154010E-02
 cg2d: Sum(rhs),rhsMax =   1.62853480700775E-10  1.67841799067557E-02
 cg2d: Sum(rhs),rhsMax =   1.62884900012372E-10  1.67857053354468E-02
 cg2d: Sum(rhs),rhsMax =   1.62915778090245E-10  1.67872321198200E-02
 cg2d: Sum(rhs),rhsMax =   1.62956023674887E-10  1.67887602083320E-02
 cg2d: Sum(rhs),rhsMax =   1.63000474229236E-10  1.67902895448412E-02
 cg2d: Sum(rhs),rhsMax =   1.63031879663045E-10  1.67918200741599E-02
 cg2d: Sum(rhs),rhsMax =   1.63068725189675E-10  1.67933517457749E-02
 cg2d: Sum(rhs),rhsMax =   1.63105709494182E-10  1.67948845098353E-02
 cg2d: Sum(rhs),rhsMax =   1.63130398078692E-10  1.67964183133980E-02
 cg2d: Sum(rhs),rhsMax =   1.63158722643608E-10  1.67979531070202E-02
 cg2d: Sum(rhs),rhsMax =   1.63187324764280E-10  1.67994888509095E-02
 cg2d: Sum(rhs),rhsMax =   1.63231886340931E-10  1.68010254981014E-02
 cg2d: Sum(rhs),rhsMax =   1.63255020613207E-10  1.68025630197189E-02
 cg2d: Sum(rhs),rhsMax =   1.63274296860472E-10  1.68041013898154E-02
 cg2d: Sum(rhs),rhsMax =   1.63313834677936E-10  1.68056405911254E-02
 cg2d: Sum(rhs),rhsMax =   1.63337079972514E-10  1.68071806109863E-02
 cg2d: Sum(rhs),rhsMax =   1.63362698368807E-10  1.68087214481568E-02
 cg2d: Sum(rhs),rhsMax =   1.63388705343159E-10  1.68102631223793E-02
 cg2d: Sum(rhs),rhsMax =   1.63423080623559E-10  1.68118056557259E-02
 cg2d: Sum(rhs),rhsMax =   1.63469335290323E-10  1.68133490155569E-02
 cg2d: Sum(rhs),rhsMax =   1.63501837069369E-10  1.68148932760273E-02
 cg2d: Sum(rhs),rhsMax =   1.63533006580785E-10  1.68164385785891E-02
 cg2d: Sum(rhs),rhsMax =   1.63568020239424E-10  1.68179849614037E-02
 cg2d: Sum(rhs),rhsMax =   1.63599675473414E-10  1.68195324240144E-02
 cg2d: Sum(rhs),rhsMax =   1.63632857264062E-10  1.68210810316637E-02
 cg2d: Sum(rhs),rhsMax =   1.63670701991414E-10  1.68226308904324E-02
 cg2d: Sum(rhs),rhsMax =   1.63693905652629E-10  1.68241821067561E-02
 cg2d: Sum(rhs),rhsMax =   1.63729724222961E-10  1.68257347760967E-02
 cg2d: Sum(rhs),rhsMax =   1.63771218808506E-10  1.68272890022417E-02
 cg2d: Sum(rhs),rhsMax =   1.63798974384122E-10  1.68288449047009E-02
 cg2d: Sum(rhs),rhsMax =   1.63823163368271E-10  1.68304026184924E-02
 cg2d: Sum(rhs),rhsMax =   1.63854707579958E-10  1.68319622884093E-02
 cg2d: Sum(rhs),rhsMax =   1.63883642767537E-10  1.68335240690998E-02
 cg2d: Sum(rhs),rhsMax =   1.63919378071142E-10  1.68350881183349E-02
 cg2d: Sum(rhs),rhsMax =   1.63949465115110E-10  1.68366546039493E-02
 cg2d: Sum(rhs),rhsMax =   1.63962926569283E-10  1.68382236960469E-02
 cg2d: Sum(rhs),rhsMax =   1.63991320523138E-10  1.68397955680206E-02
 cg2d: Sum(rhs),rhsMax =   1.64019589576903E-10  1.68413704046672E-02
 cg2d: Sum(rhs),rhsMax =   1.64054353435361E-10  1.68429483785257E-02
 cg2d: Sum(rhs),rhsMax =   1.64091490395535E-10  1.68445296787302E-02
 cg2d: Sum(rhs),rhsMax =   1.64122909707132E-10  1.68461144901038E-02
 cg2d: Sum(rhs),rhsMax =   1.64150637527172E-10  1.68477029998552E-02
 cg2d: Sum(rhs),rhsMax =   1.64179989048385E-10  1.68492953650983E-02
 cg2d: Sum(rhs),rhsMax =   1.64196115037818E-10  1.68508918347462E-02
 cg2d: Sum(rhs),rhsMax =   1.64224675525126E-10  1.68524925545278E-02
 cg2d: Sum(rhs),rhsMax =   1.64259800206068E-10  1.68540976854868E-02
 cg2d: Sum(rhs),rhsMax =   1.64286390047508E-10  1.68557074141369E-02
 cg2d: Sum(rhs),rhsMax =   1.64331076524249E-10  1.68573219214102E-02
 cg2d: Sum(rhs),rhsMax =   1.64362898291692E-10  1.68589413695974E-02
 cg2d: Sum(rhs),rhsMax =   1.64386795842297E-10  1.68605659111019E-02
 cg2d: Sum(rhs),rhsMax =   1.64418173520531E-10  1.68621956931509E-02
 cg2d: Sum(rhs),rhsMax =   1.64459695861652E-10  1.68638308483026E-02
 cg2d: Sum(rhs),rhsMax =   1.64494737275866E-10  1.68654715004670E-02
 cg2d: Sum(rhs),rhsMax =   1.64535912672292E-10  1.68671177593964E-02
 cg2d: Sum(rhs),rhsMax =   1.64566332783167E-10  1.68687697202625E-02
 cg2d: Sum(rhs),rhsMax =   1.64590313600499E-10  1.68704274614292E-02
 cg2d: Sum(rhs),rhsMax =   1.64632127375164E-10  1.68720910499739E-02
 cg2d: Sum(rhs),rhsMax =   1.64668945146218E-10  1.68737605280126E-02
 cg2d: Sum(rhs),rhsMax =   1.64692107174069E-10  1.68754359276378E-02
 cg2d: Sum(rhs),rhsMax =   1.64717489647970E-10  1.68771172572645E-02
 cg2d: Sum(rhs),rhsMax =   1.64746369324398E-10  1.68788045091948E-02
 cg2d: Sum(rhs),rhsMax =   1.64770433408457E-10  1.68804976538459E-02
 cg2d: Sum(rhs),rhsMax =   1.64791638668227E-10  1.68821966394108E-02
 cg2d: Sum(rhs),rhsMax =   1.64825875170749E-10  1.68839013964839E-02
 cg2d: Sum(rhs),rhsMax =   1.64854116468938E-10  1.68856135007179E-02
 cg2d: Sum(rhs),rhsMax =   1.64875918473584E-10  1.68873312146091E-02
 cg2d: Sum(rhs),rhsMax =   1.64894112253400E-10  1.68890543004373E-02
 cg2d: Sum(rhs),rhsMax =   1.64916455491770E-10  1.68907826169639E-02
 cg2d: Sum(rhs),rhsMax =   1.64948124603548E-10  1.68925159679960E-02
 cg2d: Sum(rhs),rhsMax =   1.64966817983725E-10  1.68942541337786E-02
 cg2d: Sum(rhs),rhsMax =   1.65010269337351E-10  1.68959968815568E-02
 cg2d: Sum(rhs),rhsMax =   1.65032432164480E-10  1.68977439457645E-02
 cg2d: Sum(rhs),rhsMax =   1.65056732170932E-10  1.68994950364972E-02
 cg2d: Sum(rhs),rhsMax =   1.65072552849033E-10  1.69012498481354E-02
 cg2d: Sum(rhs),rhsMax =   1.65092481352325E-10  1.69030080387364E-02
 cg2d: Sum(rhs),rhsMax =   1.65124747208978E-10  1.69047692974679E-02
 cg2d: Sum(rhs),rhsMax =   1.65161842535788E-10  1.69065332490296E-02
 cg2d: Sum(rhs),rhsMax =   1.65196759049913E-10  1.69082994917593E-02
 cg2d: Sum(rhs),rhsMax =   1.65237934446338E-10  1.69100676256228E-02
 cg2d: Sum(rhs),rhsMax =   1.65259902984438E-10  1.69118372369128E-02
 cg2d: Sum(rhs),rhsMax =   1.65288865927593E-10  1.69136078927607E-02
 cg2d: Sum(rhs),rhsMax =   1.65312888378288E-10  1.69153791440828E-02
 cg2d: Sum(rhs),rhsMax =   1.65352093128845E-10  1.69171505310229E-02
 cg2d: Sum(rhs),rhsMax =   1.65374464122792E-10  1.69189215804068E-02
 Computing Diagnostic #    26 "THETA   " (list#  1) Parms "SMR     MR      ", Count=     144
 Computing Diagnostic #    27 "SALT    " (list#  1) Parms "SMR     MR      ", Count=     144
 Computing Diagnostic #    30 "UVEL    " (list#  1) Parms "UUR     MR      ", Count=     144
             Vector  Mate for "UVEL    " :  Diagnostic #     31 "VVEL    " exists
 Computing Diagnostic #    32 "WVEL    " (list#  1) Parms "WM      LR      ", Count=     144
 Computing Diagnostic #    31 "VVEL    " (list#  1) Parms "VVR     MR      ", Count=     144
             Vector  Mate for "VVEL    " :  Diagnostic #     30 "UVEL    " exists
 Computing Diagnostic #   197 "BRGfwFlx" (list#  2) Parms "SM      MR      ", Count=     144
 Computing Diagnostic #   198 "BRGhtFlx" (list#  2) Parms "SM      MR      ", Count=     144
 Computing Diagnostic #   199 "BRGmltRt" (list#  2) Parms "SM      MR      ", Count=     144
 Computing Diagnostic #   201 "BRG_TauX" (list#  2) Parms "UU      MR      ", Count=    1728
 Computing Diagnostic #   202 "BRG_TauY" (list#  2) Parms "VV      MR      ", Count=    1728
 Computing Diagnostic #   203 "BRGhFacC" (list#  2) Parms "SM      MR      ", Count=    1728
 cg2d: Sum(rhs),rhsMax =   1.65392283202337E-10  1.69206918115246E-02
 cg2d: Sum(rhs),rhsMax =   1.65422231468426E-10  1.69224607352196E-02
 cg2d: Sum(rhs),rhsMax =   1.65440855459664E-10  1.69242278554427E-02
 cg2d: Sum(rhs),rhsMax =   1.65477839764172E-10  1.69259926756165E-02
 cg2d: Sum(rhs),rhsMax =   1.65511104821547E-10  1.69277546931750E-02
 cg2d: Sum(rhs),rhsMax =   1.65537028529172E-10  1.69295134021799E-02
 cg2d: Sum(rhs),rhsMax =   1.65563326937068E-10  1.69312682969386E-02
 cg2d: Sum(rhs),rhsMax =   1.65581701128126E-10  1.69330188817131E-02
 cg2d: Sum(rhs),rhsMax =   1.65607985658234E-10  1.69347646621474E-02
 cg2d: Sum(rhs),rhsMax =   1.65636032667393E-10  1.69365051525856E-02
 cg2d: Sum(rhs),rhsMax =   1.65665731133302E-10  1.69382398727388E-02
 cg2d: Sum(rhs),rhsMax =   1.65693306297676E-10  1.69399683559082E-02
 cg2d: Sum(rhs),rhsMax =   1.65716274036498E-10  1.69416901447867E-02
 cg2d: Sum(rhs),rhsMax =   1.65751051772745E-10  1.69434047993352E-02
 cg2d: Sum(rhs),rhsMax =   1.65787064632106E-10  1.69451118933063E-02
 cg2d: Sum(rhs),rhsMax =   1.65807853558242E-10  1.69468110083731E-02
 cg2d: Sum(rhs),rhsMax =   1.65829863729705E-10  1.69485017591597E-02
 cg2d: Sum(rhs),rhsMax =   1.65865710055613E-10  1.69501837889419E-02
 cg2d: Sum(rhs),rhsMax =   1.65894464831950E-10  1.69518567583284E-02
 cg2d: Sum(rhs),rhsMax =   1.65919444850005E-10  1.69535203514456E-02
 cg2d: Sum(rhs),rhsMax =   1.65955971187515E-10  1.69551742719933E-02
 cg2d: Sum(rhs),rhsMax =   1.65982810829135E-10  1.69568182503641E-02
 cg2d: Sum(rhs),rhsMax =   1.66006944302133E-10  1.69584520480382E-02
 cg2d: Sum(rhs),rhsMax =   1.66042499194496E-10  1.69600754565905E-02
 cg2d: Sum(rhs),rhsMax =   1.66079719421397E-10  1.69616882990846E-02
 cg2d: Sum(rhs),rhsMax =   1.66096456033493E-10  1.69632904292888E-02
 cg2d: Sum(rhs),rhsMax =   1.66127681056061E-10  1.69648817336847E-02
 cg2d: Sum(rhs),rhsMax =   1.66161501224948E-10  1.69664621323758E-02
 cg2d: Sum(rhs),rhsMax =   1.66186550631942E-10  1.69680315772009E-02
 cg2d: Sum(rhs),rhsMax =   1.66208699581283E-10  1.69695900539394E-02
 cg2d: Sum(rhs),rhsMax =   1.66245045507551E-10  1.69711375802436E-02
 cg2d: Sum(rhs),rhsMax =   1.66273064761135E-10  1.69726742108968E-02
 cg2d: Sum(rhs),rhsMax =   1.66309022109346E-10  1.69742000286290E-02
 cg2d: Sum(rhs),rhsMax =   1.66355054731504E-10  1.69757151521884E-02
 cg2d: Sum(rhs),rhsMax =   1.66381339261612E-10  1.69772197318701E-02
 cg2d: Sum(rhs),rhsMax =   1.66409247492894E-10  1.69787139505021E-02
 cg2d: Sum(rhs),rhsMax =   1.66438585136319E-10  1.69801980208252E-02
 cg2d: Sum(rhs),rhsMax =   1.66462579831439E-10  1.69816721859968E-02
 cg2d: Sum(rhs),rhsMax =   1.66482286290126E-10  1.69831367197952E-02
 cg2d: Sum(rhs),rhsMax =   1.66516175847953E-10  1.69845919210384E-02
 cg2d: Sum(rhs),rhsMax =   1.66562513781443E-10  1.69860381173602E-02
 cg2d: Sum(rhs),rhsMax =   1.66596889061843E-10  1.69874756603654E-02
 cg2d: Sum(rhs),rhsMax =   1.66619495978182E-10  1.69889049262865E-02
 cg2d: Sum(rhs),rhsMax =   1.66650970800930E-10  1.69903263112316E-02
 cg2d: Sum(rhs),rhsMax =   1.66683195024220E-10  1.69917402341939E-02
 cg2d: Sum(rhs),rhsMax =   1.66691799252661E-10  1.69931471285296E-02
 cg2d: Sum(rhs),rhsMax =   1.66722607941594E-10  1.69945474460711E-02
 cg2d: Sum(rhs),rhsMax =   1.66744076879333E-10  1.69959416553792E-02
 cg2d: Sum(rhs),rhsMax =   1.66775523946505E-10  1.69973302288942E-02
 cg2d: Sum(rhs),rhsMax =   1.66813327040494E-10  1.69987136493492E-02
 cg2d: Sum(rhs),rhsMax =   1.66852490157687E-10  1.70000924129430E-02
 cg2d: Sum(rhs),rhsMax =   1.66882882512986E-10  1.70014670141250E-02
 cg2d: Sum(rhs),rhsMax =   1.66913857735373E-10  1.70028379532605E-02
 cg2d: Sum(rhs),rhsMax =   1.66941502288687E-10  1.70042057314596E-02
 cg2d: Sum(rhs),rhsMax =   1.66988173289084E-10  1.70055708422632E-02
 cg2d: Sum(rhs),rhsMax =   1.67020841601584E-10  1.70069337775531E-02
 cg2d: Sum(rhs),rhsMax =   1.67070787759904E-10  1.70082950194242E-02
 cg2d: Sum(rhs),rhsMax =   1.67086178226583E-10  1.70096550416392E-02
 cg2d: Sum(rhs),rhsMax =   1.67116737115336E-10  1.70110143068197E-02
 cg2d: Sum(rhs),rhsMax =   1.67143590634744E-10  1.70123732598994E-02
 cg2d: Sum(rhs),rhsMax =   1.67177591214873E-10  1.70137323307723E-02
 cg2d: Sum(rhs),rhsMax =   1.67212702018027E-10  1.70150919315917E-02
 cg2d: Sum(rhs),rhsMax =   1.67237515502627E-10  1.70164524520807E-02
 cg2d: Sum(rhs),rhsMax =   1.67265090667001E-10  1.70178142595632E-02
 cg2d: Sum(rhs),rhsMax =   1.67297925512955E-10  1.70191776945340E-02
 cg2d: Sum(rhs),rhsMax =   1.67318325861032E-10  1.70205430748126E-02
 cg2d: Sum(rhs),rhsMax =   1.67352354196737E-10  1.70219106461678E-02
 cg2d: Sum(rhs),rhsMax =   1.67379235471721E-10  1.70232807750128E-02
 cg2d: Sum(rhs),rhsMax =   1.67418162666522E-10  1.70246536362045E-02
 cg2d: Sum(rhs),rhsMax =   1.67451427723897E-10  1.70260293626847E-02
 cg2d: Sum(rhs),rhsMax =   1.67457034350171E-10  1.70274081402218E-02
 cg2d: Sum(rhs),rhsMax =   1.67493574565469E-10  1.70287901050581E-02
 cg2d: Sum(rhs),rhsMax =   1.67519192961763E-10  1.70301753434031E-02
 cg2d: Sum(rhs),rhsMax =   1.67538830031511E-10  1.70315639035879E-02
 cg2d: Sum(rhs),rhsMax =   1.67567182352002E-10  1.70329557974604E-02
 cg2d: Sum(rhs),rhsMax =   1.67588914967709E-10  1.70343510044348E-02
 cg2d: Sum(rhs),rhsMax =   1.67628119718266E-10  1.70357494627055E-02
 cg2d: Sum(rhs),rhsMax =   1.67659414129773E-10  1.70371510771888E-02
 cg2d: Sum(rhs),rhsMax =   1.67697800090849E-10  1.70385557137745E-02
 cg2d: Sum(rhs),rhsMax =   1.67720698440732E-10  1.70399632040867E-02
 cg2d: Sum(rhs),rhsMax =   1.67751923463300E-10  1.70413733443559E-02
 cg2d: Sum(rhs),rhsMax =   1.67758473779145E-10  1.70427858941021E-02
 cg2d: Sum(rhs),rhsMax =   1.67782870930111E-10  1.70442005829557E-02
 cg2d: Sum(rhs),rhsMax =   1.67821534446944E-10  1.70456171087366E-02
 cg2d: Sum(rhs),rhsMax =   1.67851538224184E-10  1.70470351368584E-02
 cg2d: Sum(rhs),rhsMax =   1.67898708824943E-10  1.70484543059460E-02
 cg2d: Sum(rhs),rhsMax =   1.67924105176631E-10  1.70498742278531E-02
 cg2d: Sum(rhs),rhsMax =   1.67956565322314E-10  1.70512944913034E-02
 cg2d: Sum(rhs),rhsMax =   1.67992494914948E-10  1.70527146626357E-02
 cg2d: Sum(rhs),rhsMax =   1.68022040725191E-10  1.70541342870012E-02
 cg2d: Sum(rhs),rhsMax =   1.68052904925275E-10  1.70555528943118E-02
 cg2d: Sum(rhs),rhsMax =   1.68077718409876E-10  1.70569699978027E-02
 cg2d: Sum(rhs),rhsMax =   1.68101352282513E-10  1.70583851007082E-02
 cg2d: Sum(rhs),rhsMax =   1.68131467082056E-10  1.70597976950031E-02
 cg2d: Sum(rhs),rhsMax =   1.68144220769051E-10  1.70612072660635E-02
 cg2d: Sum(rhs),rhsMax =   1.68169950187647E-10  1.70626132149169E-02
 cg2d: Sum(rhs),rhsMax =   1.68214331353056E-10  1.70640152345883E-02
 cg2d: Sum(rhs),rhsMax =   1.68255340216028E-10  1.70654127194294E-02
 cg2d: Sum(rhs),rhsMax =   1.68281569234985E-10  1.70668050942771E-02
 cg2d: Sum(rhs),rhsMax =   1.68307187631278E-10  1.70681919220241E-02
 cg2d: Sum(rhs),rhsMax =   1.68339495121295E-10  1.70695727398007E-02
 cg2d: Sum(rhs),rhsMax =   1.68371719344584E-10  1.70709470765876E-02
 cg2d: Sum(rhs),rhsMax =   1.68400737798891E-10  1.70723144767438E-02
 cg2d: Sum(rhs),rhsMax =   1.68430797087282E-10  1.70736745078328E-02
 cg2d: Sum(rhs),rhsMax =   1.68461189442581E-10  1.70750267569288E-02
 cg2d: Sum(rhs),rhsMax =   1.68495245533862E-10  1.70763708338872E-02
 cg2d: Sum(rhs),rhsMax =   1.68517699794535E-10  1.70777063783204E-02
 cg2d: Sum(rhs),rhsMax =   1.68538710765276E-10  1.70790330539391E-02
 cg2d: Sum(rhs),rhsMax =   1.68567493297189E-10  1.70803505566092E-02
 cg2d: Sum(rhs),rhsMax =   1.68594971317049E-10  1.70816586147161E-02
 cg2d: Sum(rhs),rhsMax =   1.68629055163905E-10  1.70829569866922E-02
 cg2d: Sum(rhs),rhsMax =   1.68648456311260E-10  1.70842454721846E-02
 cg2d: Sum(rhs),rhsMax =   1.68683789159019E-10  1.70855239042527E-02
 cg2d: Sum(rhs),rhsMax =   1.68696862035134E-10  1.70867921542445E-02
 cg2d: Sum(rhs),rhsMax =   1.68727531946189E-10  1.70880501358585E-02
 cg2d: Sum(rhs),rhsMax =   1.68779171194622E-10  1.70892977973685E-02
 cg2d: Sum(rhs),rhsMax =   1.68816474688249E-10  1.70905351364248E-02
 cg2d: Sum(rhs),rhsMax =   1.68831226776689E-10  1.70917621880433E-02
 cg2d: Sum(rhs),rhsMax =   1.68859370930363E-10  1.70929790268156E-02
 cg2d: Sum(rhs),rhsMax =   1.68903196984260E-10  1.70941857742440E-02
 cg2d: Sum(rhs),rhsMax =   1.68931105215542E-10  1.70953825951896E-02
 cg2d: Sum(rhs),rhsMax =   1.68958333435221E-10  1.70965696915605E-02
 cg2d: Sum(rhs),rhsMax =   1.68987990267766E-10  1.70977473101552E-02
 cg2d: Sum(rhs),rhsMax =   1.69017910778280E-10  1.70989157358345E-02
 cg2d: Sum(rhs),rhsMax =   1.69045777376198E-10  1.71000752979408E-02
 cg2d: Sum(rhs),rhsMax =   1.69095848434608E-10  1.71012263613714E-02
 cg2d: Sum(rhs),rhsMax =   1.69128877569591E-10  1.71023693288669E-02
 cg2d: Sum(rhs),rhsMax =   1.69162656105115E-10  1.71035046362955E-02
 cg2d: Sum(rhs),rhsMax =   1.69194783183890E-10  1.71046327527936E-02
 cg2d: Sum(rhs),rhsMax =   1.69215891299146E-10  1.71057541827951E-02
 cg2d: Sum(rhs),rhsMax =   1.69240649272595E-10  1.71068694836147E-02
 cg2d: Sum(rhs),rhsMax =   1.69279285033852E-10  1.71079795254372E-02
 cg2d: Sum(rhs),rhsMax =   1.69320502063641E-10  1.71090849006442E-02
 cg2d: Sum(rhs),rhsMax =   1.69358249646478E-10  1.71101862111503E-02
 cg2d: Sum(rhs),rhsMax =   1.69392708193605E-10  1.71112840812640E-02
 cg2d: Sum(rhs),rhsMax =   1.69427513685427E-10  1.71123791485689E-02
 cg2d: Sum(rhs),rhsMax =   1.69451286335942E-10  1.71134777567357E-02
 cg2d: Sum(rhs),rhsMax =   1.69492364587853E-10  1.71145748146332E-02
 cg2d: Sum(rhs),rhsMax =   1.69527308857553E-10  1.71156709177710E-02
 cg2d: Sum(rhs),rhsMax =   1.69545794070913E-10  1.71167666983845E-02
 cg2d: Sum(rhs),rhsMax =   1.69570357755333E-10  1.71178627584027E-02
 cg2d: Sum(rhs),rhsMax =   1.69608591060744E-10  1.71189597081162E-02
 cg2d: Sum(rhs),rhsMax =   1.69636707458842E-10  1.71200581519845E-02
 cg2d: Sum(rhs),rhsMax =   1.69670680283396E-10  1.71211586866906E-02
(PID.TID 0000.0001)      cg2d_init_res =   2.68393108465272E-04
(PID.TID 0000.0001)      cg2d_iters(min,last) =      -1      41
(PID.TID 0000.0001)      cg2d_last_res =   4.23543924055237E-14
(PID.TID 0000.0001) // =======================================================
(PID.TID 0000.0001) // Begin MONITOR dynamic field statistics
(PID.TID 0000.0001) // =======================================================
(PID.TID 0000.0001) %MON time_tsnumber                =                  5184
(PID.TID 0000.0001) %MON time_secondsf                =   1.2960000000000E+05
(PID.TID 0000.0001) %MON dynstat_eta_max              =   5.4435345066252E-03
(PID.TID 0000.0001) %MON dynstat_eta_min              =  -2.6196707662284E-03
(PID.TID 0000.0001) %MON dynstat_eta_mean             =  -1.9458763693082E-14
(PID.TID 0000.0001) %MON dynstat_eta_sd               =   2.7126286308022E-03
(PID.TID 0000.0001) %MON dynstat_eta_del2             =   2.2918542315920E-05
(PID.TID 0000.0001) %MON dynstat_uvel_max             =   4.7413478089647E-02
(PID.TID 0000.0001) %MON dynstat_uvel_min             =  -2.8012408421921E-02
(PID.TID 0000.0001) %MON dynstat_uvel_mean            =  -2.3902043855428E-08
(PID.TID 0000.0001) %MON dynstat_uvel_sd              =   5.5642310929195E-03
(PID.TID 0000.0001) %MON dynstat_uvel_del2            =   1.0655834064465E-04
(PID.TID 0000.0001) %MON dynstat_vvel_max             =   1.8356478106949E-02
(PID.TID 0000.0001) %MON dynstat_vvel_min             =  -3.1942369039734E-02
(PID.TID 0000.0001) %MON dynstat_vvel_mean            =  -8.0919755499724E-03
(PID.TID 0000.0001) %MON dynstat_vvel_sd              =   1.1156079508072E-02
(PID.TID 0000.0001) %MON dynstat_vvel_del2            =   9.4954682579997E-05
(PID.TID 0000.0001) %MON dynstat_wvel_max             =   1.4914413279096E-03
(PID.TID 0000.0001) %MON dynstat_wvel_min             =  -1.2106859557936E-03
(PID.TID 0000.0001) %MON dynstat_wvel_mean            =  -2.8069620768024E-20
(PID.TID 0000.0001) %MON dynstat_wvel_sd              =   1.3463746151167E-04
(PID.TID 0000.0001) %MON dynstat_wvel_del2            =   6.6461401400272E-06
(PID.TID 0000.0001) %MON dynstat_theta_max            =   2.6931451612878E+00
(PID.TID 0000.0001) %MON dynstat_theta_min            =   1.3562413086601E-01
(PID.TID 0000.0001) %MON dynstat_theta_mean           =   2.2458448625494E+00
(PID.TID 0000.0001) %MON dynstat_theta_sd             =   4.5262422680554E-01
(PID.TID 0000.0001) %MON dynstat_theta_del2           =   1.3412852311052E-03
(PID.TID 0000.0001) %MON dynstat_salt_max             =   3.4699999999996E+01
(PID.TID 0000.0001) %MON dynstat_salt_min             =   3.3062475337096E+01
(PID.TID 0000.0001) %MON dynstat_salt_mean            =   3.4365644203446E+01
(PID.TID 0000.0001) %MON dynstat_salt_sd              =   3.1899652509833E-01
(PID.TID 0000.0001) %MON dynstat_salt_del2            =   1.9637211774356E-04
(PID.TID 0000.0001) %MON advcfl_uvel_max              =   2.3706739044823E-03
(PID.TID 0000.0001) %MON advcfl_vvel_max              =   1.5971184519867E-03
(PID.TID 0000.0001) %MON advcfl_wvel_max              =   6.9280411171853E-04
(PID.TID 0000.0001) %MON advcfl_W_hf_max              =   1.9609867600909E-03
(PID.TID 0000.0001) %MON pe_b_mean                    =   6.1393918721643E-08
(PID.TID 0000.0001) %MON ke_max                       =   1.0432495657064E-03
(PID.TID 0000.0001) %MON ke_mean                      =   1.0049396977161E-04
(PID.TID 0000.0001) %MON ke_vol                       =   3.2921708585402E+10
(PID.TID 0000.0001) // =======================================================
(PID.TID 0000.0001) // End MONITOR dynamic field statistics
(PID.TID 0000.0001) // =======================================================
(PID.TID 0000.0001) // =======================================================
(PID.TID 0000.0001) // Begin OBCS MONITOR field statistics
(PID.TID 0000.0001) // =======================================================
(PID.TID 0000.0001) %MON obc_E_uVel_max               =   0.0000000000000E+00
(PID.TID 0000.0001) %MON obc_E_uVel_min               =   0.0000000000000E+00
(PID.TID 0000.0001) %MON obc_E_uVel_mean              =   0.0000000000000E+00
(PID.TID 0000.0001) %MON obc_E_uVel_sd                =   0.0000000000000E+00
(PID.TID 0000.0001) %MON obc_E_uVel_Int               =   0.0000000000000E+00
(PID.TID 0000.0001) %MON obc_N_vVel_max               =  -3.6115799844846E-05
(PID.TID 0000.0001) %MON obc_N_vVel_min               =  -3.0000000000000E-02
(PID.TID 0000.0001) %MON obc_N_vVel_mean              =  -1.3225455303334E-02
(PID.TID 0000.0001) %MON obc_N_vVel_sd                =   1.1350864292742E-02
(PID.TID 0000.0001) %MON obc_N_vVel_Int               =  -5.9514548865004E+04
(PID.TID 0000.0001) %MON obc_S_vVel_max               =  -3.6115799844846E-05
(PID.TID 0000.0001) %MON obc_S_vVel_min               =  -3.0000000000000E-02
(PID.TID 0000.0001) %MON obc_S_vVel_mean              =  -1.3225455303334E-02
(PID.TID 0000.0001) %MON obc_S_vVel_sd                =   1.1350864292742E-02
(PID.TID 0000.0001) %MON obc_S_vVel_Int               =  -5.9514548865004E+04
(PID.TID 0000.0001) // =======================================================
(PID.TID 0000.0001) // End OBCS MONITOR field statistics
(PID.TID 0000.0001) // =======================================================
 Computing Diagnostic #    26 "THETA   " (list#  1) Parms "SMR     MR      ", Count=     144
 Computing Diagnostic #    27 "SALT    " (list#  1) Parms "SMR     MR      ", Count=     144
 Computing Diagnostic #    30 "UVEL    " (list#  1) Parms "UUR     MR      ", Count=     144
             Vector  Mate for "UVEL    " :  Diagnostic #     31 "VVEL    " exists
 Computing Diagnostic #    32 "WVEL    " (list#  1) Parms "WM      LR      ", Count=     144
 Computing Diagnostic #    31 "VVEL    " (list#  1) Parms "VVR     MR      ", Count=     144
             Vector  Mate for "VVEL    " :  Diagnostic #     30 "UVEL    " exists
 Computing Diagnostic #   197 "BRGfwFlx" (list#  2) Parms "SM      MR      ", Count=     144
 Computing Diagnostic #   198 "BRGhtFlx" (list#  2) Parms "SM      MR      ", Count=     144
 Computing Diagnostic #   199 "BRGmltRt" (list#  2) Parms "SM      MR      ", Count=     144
 Computing Diagnostic #   201 "BRG_TauX" (list#  2) Parms "UU      MR      ", Count=    1728
 Computing Diagnostic #   202 "BRG_TauY" (list#  2) Parms "VV      MR      ", Count=    1728
 Computing Diagnostic #   203 "BRGhFacC" (list#  2) Parms "SM      MR      ", Count=    1728
 cg2d: Sum(rhs),rhsMax =   1.69713340603117E-10  1.71222618887312E-02
 cg2d: Sum(rhs),rhsMax =   1.69744177047626E-10  1.71233683500699E-02
 cg2d: Sum(rhs),rhsMax =   1.69775749014889E-10  1.71244786137366E-02
 cg2d: Sum(rhs),rhsMax =   1.69804476035651E-10  1.71255932098520E-02
 cg2d: Sum(rhs),rhsMax =   1.69839683983319E-10  1.71267126604134E-02
 cg2d: Sum(rhs),rhsMax =   1.69879749156721E-10  1.71278374517779E-02
 cg2d: Sum(rhs),rhsMax =   1.69909614156083E-10  1.71289680499724E-02
 cg2d: Sum(rhs),rhsMax =   1.69951774875443E-10  1.71301048847004E-02
 cg2d: Sum(rhs),rhsMax =   1.69987204867716E-10  1.71312483579041E-02
 cg2d: Sum(rhs),rhsMax =   1.70018471523647E-10  1.71323988365194E-02
 cg2d: Sum(rhs),rhsMax =   1.70048114478405E-10  1.71335566566452E-02
 cg2d: Sum(rhs),rhsMax =   1.70068265026302E-10  1.71347221030069E-02
 cg2d: Sum(rhs),rhsMax =   1.70095729168374E-10  1.71358954326678E-02
 cg2d: Sum(rhs),rhsMax =   1.70130881604891E-10  1.71370768564409E-02
 cg2d: Sum(rhs),rhsMax =   1.70165326274230E-10  1.71382665460977E-02
 cg2d: Sum(rhs),rhsMax =   1.70194830451109E-10  1.71394646277917E-02
 cg2d: Sum(rhs),rhsMax =   1.70230746165956E-10  1.71406711882764E-02
 cg2d: Sum(rhs),rhsMax =   1.70252728581843E-10  1.71418862664209E-02
 cg2d: Sum(rhs),rhsMax =   1.70296887702648E-10  1.71431098508127E-02
 cg2d: Sum(rhs),rhsMax =   1.70331526661016E-10  1.71443418888895E-02
 cg2d: Sum(rhs),rhsMax =   1.70369579555185E-10  1.71455822803835E-02
 cg2d: Sum(rhs),rhsMax =   1.70404759747278E-10  1.71468308827655E-02
 cg2d: Sum(rhs),rhsMax =   1.70427991164068E-10  1.71480875044805E-02
 cg2d: Sum(rhs),rhsMax =   1.70461783577380E-10  1.71493519143659E-02
 cg2d: Sum(rhs),rhsMax =   1.70496533558051E-10  1.71506238354155E-02
 cg2d: Sum(rhs),rhsMax =   1.70529909637729E-10  1.71519029489613E-02
 cg2d: Sum(rhs),rhsMax =   1.70555167211539E-10  1.71531888965583E-02
 cg2d: Sum(rhs),rhsMax =   1.70580952141286E-10  1.71544812777139E-02
 cg2d: Sum(rhs),rhsMax =   1.70613731476088E-10  1.71557796551180E-02
 cg2d: Sum(rhs),rhsMax =   1.70640029883984E-10  1.71570835549411E-02
 cg2d: Sum(rhs),rhsMax =   1.70674460675535E-10  1.71583924702469E-02
 cg2d: Sum(rhs),rhsMax =   1.70712194380584E-10  1.71597058656926E-02
 cg2d: Sum(rhs),rhsMax =   1.70749372974122E-10  1.71610231715126E-02
 cg2d: Sum(rhs),rhsMax =   1.70777503250008E-10  1.71623437964517E-02
 cg2d: Sum(rhs),rhsMax =   1.70800651400072E-10  1.71636675557145E-02
 cg2d: Sum(rhs),rhsMax =   1.70839675739387E-10  1.71649941449206E-02
 cg2d: Sum(rhs),rhsMax =   1.70871289340013E-10  1.71663221280730E-02
 cg2d: Sum(rhs),rhsMax =   1.70884528749582E-10  1.71676508248943E-02
 cg2d: Sum(rhs),rhsMax =   1.70918584840862E-10  1.71689795422659E-02
 cg2d: Sum(rhs),rhsMax =   1.70953279310382E-10  1.71703075790578E-02
 cg2d: Sum(rhs),rhsMax =   1.70985559044823E-10  1.71716342225243E-02
 cg2d: Sum(rhs),rhsMax =   1.71012828897865E-10  1.71729587600041E-02
 cg2d: Sum(rhs),rhsMax =   1.71042874308469E-10  1.71742804876826E-02
 cg2d: Sum(rhs),rhsMax =   1.71080635769094E-10  1.71755989179616E-02
 cg2d: Sum(rhs),rhsMax =   1.71114178382226E-10  1.71769132380397E-02
 cg2d: Sum(rhs),rhsMax =   1.71138964111250E-10  1.71782230969995E-02
 cg2d: Sum(rhs),rhsMax =   1.71149414085470E-10  1.71795279217750E-02
 cg2d: Sum(rhs),rhsMax =   1.71186023689707E-10  1.71808271666517E-02
 cg2d: Sum(rhs),rhsMax =   1.71218109135118E-10  1.71821298042567E-02
 cg2d: Sum(rhs),rhsMax =   1.71246725133578E-10  1.71834324071493E-02
 cg2d: Sum(rhs),rhsMax =   1.71272523941113E-10  1.71847276946519E-02
 cg2d: Sum(rhs),rhsMax =   1.71313782604265E-10  1.71860151042730E-02
 cg2d: Sum(rhs),rhsMax =   1.71351960398525E-10  1.71872940928753E-02
 cg2d: Sum(rhs),rhsMax =   1.71372235846512E-10  1.71885641121249E-02
 cg2d: Sum(rhs),rhsMax =   1.71410247107318E-10  1.71898246607958E-02
 cg2d: Sum(rhs),rhsMax =   1.71433284235079E-10  1.71910752714246E-02
 cg2d: Sum(rhs),rhsMax =   1.71466965626088E-10  1.71923155146256E-02
 cg2d: Sum(rhs),rhsMax =   1.71478262145364E-10  1.71935449930994E-02
 cg2d: Sum(rhs),rhsMax =   1.71518604874521E-10  1.71947633519951E-02
 cg2d: Sum(rhs),rhsMax =   1.71554229155824E-10  1.71959702771286E-02
 cg2d: Sum(rhs),rhsMax =   1.71585690100784E-10  1.71971654953961E-02
 cg2d: Sum(rhs),rhsMax =   1.71611114208048E-10  1.71983487741733E-02
 cg2d: Sum(rhs),rhsMax =   1.71639272239510E-10  1.71995199313403E-02
 cg2d: Sum(rhs),rhsMax =   1.71665182069347E-10  1.72006788291303E-02
 cg2d: Sum(rhs),rhsMax =   1.71697642215030E-10  1.72018253757037E-02
 cg2d: Sum(rhs),rhsMax =   1.71739941712268E-10  1.72029595209691E-02
 cg2d: Sum(rhs),rhsMax =   1.71761035949736E-10  1.72040812674924E-02
 cg2d: Sum(rhs),rhsMax =   1.71790096037405E-10  1.72051906631205E-02
 cg2d: Sum(rhs),rhsMax =   1.71823999473020E-10  1.72062878018155E-02
 cg2d: Sum(rhs),rhsMax =   1.71859346198566E-10  1.72073728256710E-02
 cg2d: Sum(rhs),rhsMax =   1.71910832791333E-10  1.72084459207610E-02
 cg2d: Sum(rhs),rhsMax =   1.71946776261755E-10  1.72095073189212E-02
 cg2d: Sum(rhs),rhsMax =   1.71981373586760E-10  1.72105573046657E-02
 cg2d: Sum(rhs),rhsMax =   1.72018760347115E-10  1.72115961810445E-02
 cg2d: Sum(rhs),rhsMax =   1.72060463099477E-10  1.72126243106057E-02
 cg2d: Sum(rhs),rhsMax =   1.72092215477981E-10  1.72136421018140E-02
 cg2d: Sum(rhs),rhsMax =   1.72136610521179E-10  1.72146499897936E-02
 cg2d: Sum(rhs),rhsMax =   1.72172803791781E-10  1.72156484442872E-02
 cg2d: Sum(rhs),rhsMax =   1.72206138238096E-10  1.72166379693169E-02
 cg2d: Sum(rhs),rhsMax =   1.72234615458677E-10  1.72176191000670E-02
 cg2d: Sum(rhs),rhsMax =   1.72270905873795E-10  1.72185924040907E-02
 cg2d: Sum(rhs),rhsMax =   1.72313982527150E-10  1.72195584651473E-02
 cg2d: Sum(rhs),rhsMax =   1.72348371685338E-10  1.72205178990026E-02
 cg2d: Sum(rhs),rhsMax =   1.72390560160274E-10  1.72214713392905E-02
 cg2d: Sum(rhs),rhsMax =   1.72424477473676E-10  1.72224194360798E-02
 cg2d: Sum(rhs),rhsMax =   1.72455216773670E-10  1.72233628545430E-02
 cg2d: Sum(rhs),rhsMax =   1.72498196282511E-10  1.72243022714910E-02
 cg2d: Sum(rhs),rhsMax =   1.72535388753836E-10  1.72252383733605E-02
 cg2d: Sum(rhs),rhsMax =   1.72562061862003E-10  1.72261718451908E-02
 cg2d: Sum(rhs),rhsMax =   1.72595659986285E-10  1.72271033017457E-02
 cg2d: Sum(rhs),rhsMax =   1.72636821504923E-10  1.72280333070254E-02
 cg2d: Sum(rhs),rhsMax =   1.72660871711194E-10  1.72289625084423E-02
 cg2d: Sum(rhs),rhsMax =   1.72691624888976E-10  1.72298915753831E-02
 cg2d: Sum(rhs),rhsMax =   1.72730746372807E-10  1.72308211870437E-02
 cg2d: Sum(rhs),rhsMax =   1.72754296978717E-10  1.72317519960127E-02
 cg2d: Sum(rhs),rhsMax =   1.72781705609637E-10  1.72326846249310E-02
 cg2d: Sum(rhs),rhsMax =   1.72808212184350E-10  1.72336196800422E-02
 cg2d: Sum(rhs),rhsMax =   1.72842157253328E-10  1.72345577529921E-02
 cg2d: Sum(rhs),rhsMax =   1.72877073767452E-10  1.72354994129405E-02
 cg2d: Sum(rhs),rhsMax =   1.72908271034444E-10  1.72364452022643E-02
 cg2d: Sum(rhs),rhsMax =   1.72950612165046E-10  1.72373956266752E-02
 cg2d: Sum(rhs),rhsMax =   1.72986514002105E-10  1.72383511607516E-02
 cg2d: Sum(rhs),rhsMax =   1.73032213557356E-10  1.72393122414080E-02
 cg2d: Sum(rhs),rhsMax =   1.73067712938568E-10  1.72402792705471E-02
 cg2d: Sum(rhs),rhsMax =   1.73113592905061E-10  1.72412526066376E-02
 cg2d: Sum(rhs),rhsMax =   1.73140293768803E-10  1.72422325707641E-02
 cg2d: Sum(rhs),rhsMax =   1.73189101948523E-10  1.72432194389710E-02
 cg2d: Sum(rhs),rhsMax =   1.73205533249288E-10  1.72442134451224E-02
 cg2d: Sum(rhs),rhsMax =   1.73237063583187E-10  1.72452147760542E-02
 cg2d: Sum(rhs),rhsMax =   1.73274727899297E-10  1.72462217920291E-02
 cg2d: Sum(rhs),rhsMax =   1.73311781592744E-10  1.72472363796459E-02
 cg2d: Sum(rhs),rhsMax =   1.73351930032872E-10  1.72482586131307E-02
 cg2d: Sum(rhs),rhsMax =   1.73382336265959E-10  1.72492884951777E-02
 cg2d: Sum(rhs),rhsMax =   1.73421901838999E-10  1.72503259940919E-02
 cg2d: Sum(rhs),rhsMax =   1.73452321949874E-10  1.72513825397330E-02
 cg2d: Sum(rhs),rhsMax =   1.73485448229371E-10  1.72524485327697E-02
 cg2d: Sum(rhs),rhsMax =   1.73516229162729E-10  1.72535218331007E-02
 cg2d: Sum(rhs),rhsMax =   1.73549050130894E-10  1.72546019496785E-02
 cg2d: Sum(rhs),rhsMax =   1.73588587948359E-10  1.72556884865720E-02
 cg2d: Sum(rhs),rhsMax =   1.73623601606998E-10  1.72567798589628E-02
 cg2d: Sum(rhs),rhsMax =   1.73662931257645E-10  1.72578768316032E-02
 cg2d: Sum(rhs),rhsMax =   1.73693046057188E-10  1.72589789572473E-02
 cg2d: Sum(rhs),rhsMax =   1.73734443498219E-10  1.72600857402033E-02
 cg2d: Sum(rhs),rhsMax =   1.73769304501192E-10  1.72611966666489E-02
 cg2d: Sum(rhs),rhsMax =   1.73795894342632E-10  1.72623111796481E-02
 cg2d: Sum(rhs),rhsMax =   1.73817710225066E-10  1.72634287019580E-02
 cg2d: Sum(rhs),rhsMax =   1.73850905893502E-10  1.72645486355753E-02
 cg2d: Sum(rhs),rhsMax =   1.73898132005412E-10  1.72656703539959E-02
 cg2d: Sum(rhs),rhsMax =   1.73929398661343E-10  1.72667932116379E-02
 cg2d: Sum(rhs),rhsMax =   1.73960013061247E-10  1.72679165497680E-02
 cg2d: Sum(rhs),rhsMax =   1.73987685370136E-10  1.72690396929827E-02
 cg2d: Sum(rhs),rhsMax =   1.74022213306202E-10  1.72701619608257E-02
 cg2d: Sum(rhs),rhsMax =   1.74053521595496E-10  1.72712826611770E-02
 cg2d: Sum(rhs),rhsMax =   1.74082484538651E-10  1.72724011008119E-02
 cg2d: Sum(rhs),rhsMax =   1.74109213157969E-10  1.72735165853717E-02
 cg2d: Sum(rhs),rhsMax =   1.74143824360762E-10  1.72746284205614E-02
 cg2d: Sum(rhs),rhsMax =   1.74187164692086E-10  1.72757359098559E-02
 cg2d: Sum(rhs),rhsMax =   1.74210729175783E-10  1.72768383268794E-02
 cg2d: Sum(rhs),rhsMax =   1.74247768991442E-10  1.72779350093204E-02
 cg2d: Sum(rhs),rhsMax =   1.74278771969405E-10  1.72790252999129E-02
 cg2d: Sum(rhs),rhsMax =   1.74309108813553E-10  1.72801085640293E-02
 cg2d: Sum(rhs),rhsMax =   1.74344191861131E-10  1.72811841910661E-02
 cg2d: Sum(rhs),rhsMax =   1.74373154804286E-10  1.72822515866635E-02
 cg2d: Sum(rhs),rhsMax =   1.74399300556516E-10  1.72833101881673E-02
 Computing Diagnostic #    26 "THETA   " (list#  1) Parms "SMR     MR      ", Count=     144
 Computing Diagnostic #    27 "SALT    " (list#  1) Parms "SMR     MR      ", Count=     144
 Computing Diagnostic #    30 "UVEL    " (list#  1) Parms "UUR     MR      ", Count=     144
             Vector  Mate for "UVEL    " :  Diagnostic #     31 "VVEL    " exists
 Computing Diagnostic #    32 "WVEL    " (list#  1) Parms "WM      LR      ", Count=     144
 Computing Diagnostic #    31 "VVEL    " (list#  1) Parms "VVR     MR      ", Count=     144
             Vector  Mate for "VVEL    " :  Diagnostic #     30 "UVEL    " exists
 Computing Diagnostic #   197 "BRGfwFlx" (list#  2) Parms "SM      MR      ", Count=     144
 Computing Diagnostic #   198 "BRGhtFlx" (list#  2) Parms "SM      MR      ", Count=     144
 Computing Diagnostic #   199 "BRGmltRt" (list#  2) Parms "SM      MR      ", Count=     144
 Computing Diagnostic #   201 "BRG_TauX" (list#  2) Parms "UU      MR      ", Count=    1728
 Computing Diagnostic #   202 "BRG_TauY" (list#  2) Parms "VV      MR      ", Count=    1728
 Computing Diagnostic #   203 "BRGhFacC" (list#  2) Parms "SM      MR      ", Count=    1728
 cg2d: Sum(rhs),rhsMax =   1.74432912558586E-10  1.72843594568075E-02
 cg2d: Sum(rhs),rhsMax =   1.74462402857678E-10  1.72853988879937E-02
 cg2d: Sum(rhs),rhsMax =   1.74490172311081E-10  1.72864280074339E-02
 cg2d: Sum(rhs),rhsMax =   1.74529113383670E-10  1.72874463773385E-02
 cg2d: Sum(rhs),rhsMax =   1.74561878840684E-10  1.72884535944203E-02
 cg2d: Sum(rhs),rhsMax =   1.74590564228083E-10  1.72894492952515E-02
 cg2d: Sum(rhs),rhsMax =   1.74624537052637E-10  1.72904331538650E-02
 cg2d: Sum(rhs),rhsMax =   1.74662603824594E-10  1.72914048887161E-02
 cg2d: Sum(rhs),rhsMax =   1.74693134957771E-10  1.72923642585754E-02
 cg2d: Sum(rhs),rhsMax =   1.74724804069548E-10  1.72933110642332E-02
 cg2d: Sum(rhs),rhsMax =   1.74752920467647E-10  1.72942451524419E-02
 cg2d: Sum(rhs),rhsMax =   1.74783382211885E-10  1.72951664122056E-02
 cg2d: Sum(rhs),rhsMax =   1.74813163944521E-10  1.72960747771398E-02
 cg2d: Sum(rhs),rhsMax =   1.74847414324830E-10  1.72969702266744E-02
 cg2d: Sum(rhs),rhsMax =   1.74865566471283E-10  1.72978527856263E-02
 cg2d: Sum(rhs),rhsMax =   1.74881290004869E-10  1.72987225217001E-02
 cg2d: Sum(rhs),rhsMax =   1.74920924966848E-10  1.72995795472463E-02
 cg2d: Sum(rhs),rhsMax =   1.74962072607698E-10  1.73004240193807E-02
 cg2d: Sum(rhs),rhsMax =   1.75004954972025E-10  1.73012561357106E-02
 cg2d: Sum(rhs),rhsMax =   1.75019942982857E-10  1.73020761371312E-02
 cg2d: Sum(rhs),rhsMax =   1.75063866181269E-10  1.73028843069964E-02
 cg2d: Sum(rhs),rhsMax =   1.75098366361759E-10  1.73036809625979E-02
 cg2d: Sum(rhs),rhsMax =   1.75130271395929E-10  1.73044664660316E-02
 cg2d: Sum(rhs),rhsMax =   1.75154599157956E-10  1.73052412098520E-02
 cg2d: Sum(rhs),rhsMax =   1.75204725727518E-10  1.73060056250004E-02
 cg2d: Sum(rhs),rhsMax =   1.75236852806293E-10  1.73067601741937E-02
 cg2d: Sum(rhs),rhsMax =   1.75281095193824E-10  1.73075036762428E-02
 cg2d: Sum(rhs),rhsMax =   1.75314943118288E-10  1.73082382765212E-02
 cg2d: Sum(rhs),rhsMax =   1.75361752896563E-10  1.73089645834016E-02
 cg2d: Sum(rhs),rhsMax =   1.75381584255341E-10  1.73096830519279E-02
 cg2d: Sum(rhs),rhsMax =   1.75410769243101E-10  1.73103943747842E-02
 cg2d: Sum(rhs),rhsMax =   1.75453984674334E-10  1.73110993086086E-02
 cg2d: Sum(rhs),rhsMax =   1.75497047449902E-10  1.73117984798556E-02
 cg2d: Sum(rhs),rhsMax =   1.75529563106736E-10  1.73124924729452E-02
 cg2d: Sum(rhs),rhsMax =   1.75566852722575E-10  1.73131819215347E-02
 cg2d: Sum(rhs),rhsMax =   1.75610442854079E-10  1.73138675216127E-02
 cg2d: Sum(rhs),rhsMax =   1.75640030297686E-10  1.73145500258181E-02
 cg2d: Sum(rhs),rhsMax =   1.75686132308783E-10  1.73152301229721E-02
 cg2d: Sum(rhs),rhsMax =   1.75731679208369E-10  1.73159085426184E-02
 cg2d: Sum(rhs),rhsMax =   1.75766179388859E-10  1.73166073518542E-02
 cg2d: Sum(rhs),rhsMax =   1.75806494362440E-10  1.73173065242712E-02
 cg2d: Sum(rhs),rhsMax =   1.75840453309206E-10  1.73180055512819E-02
 cg2d: Sum(rhs),rhsMax =   1.75878964170373E-10  1.73187053229262E-02
 cg2d: Sum(rhs),rhsMax =   1.75920542022645E-10  1.73194064444774E-02
 cg2d: Sum(rhs),rhsMax =   1.75951489489456E-10  1.73201094659567E-02
 cg2d: Sum(rhs),rhsMax =   1.75993872253422E-10  1.73208149286163E-02
 cg2d: Sum(rhs),rhsMax =   1.76034659071789E-10  1.73215233553610E-02
 cg2d: Sum(rhs),rhsMax =   1.76071018875845E-10  1.73222352537998E-02
 cg2d: Sum(rhs),rhsMax =   1.76100273252544E-10  1.73229511086562E-02
 cg2d: Sum(rhs),rhsMax =   1.76142572749782E-10  1.73236713862008E-02
 cg2d: Sum(rhs),rhsMax =   1.76174713706345E-10  1.73243965300247E-02
 cg2d: Sum(rhs),rhsMax =   1.76207021196362E-10  1.73251269610283E-02
 cg2d: Sum(rhs),rhsMax =   1.76245379401863E-10  1.73258630770282E-02
 cg2d: Sum(rhs),rhsMax =   1.76271344742851E-10  1.73266052473228E-02
 cg2d: Sum(rhs),rhsMax =   1.76309494781535E-10  1.73273538202206E-02
 cg2d: Sum(rhs),rhsMax =   1.76351655500895E-10  1.73281091143320E-02
 cg2d: Sum(rhs),rhsMax =   1.76382783378948E-10  1.73288714214885E-02
 cg2d: Sum(rhs),rhsMax =   1.76413508801154E-10  1.73296410068811E-02
 cg2d: Sum(rhs),rhsMax =   1.76458556100378E-10  1.73304181082056E-02
 cg2d: Sum(rhs),rhsMax =   1.76504089122176E-10  1.73312029343417E-02
 cg2d: Sum(rhs),rhsMax =   1.76531400608582E-10  1.73319956663234E-02
 cg2d: Sum(rhs),rhsMax =   1.76564735054896E-10  1.73327964575103E-02
 cg2d: Sum(rhs),rhsMax =   1.76611100743962E-10  1.73336054300740E-02
 cg2d: Sum(rhs),rhsMax =   1.76619621705676E-10  1.73344226865914E-02
 cg2d: Sum(rhs),rhsMax =   1.76652012462419E-10  1.73352482967669E-02
 cg2d: Sum(rhs),rhsMax =   1.76685652220065E-10  1.73360823081544E-02
 cg2d: Sum(rhs),rhsMax =   1.76710313049000E-10  1.73369247393555E-02
 cg2d: Sum(rhs),rhsMax =   1.76765449499960E-10  1.73377755845703E-02
 cg2d: Sum(rhs),rhsMax =   1.76793690798149E-10  1.73386348135479E-02
 cg2d: Sum(rhs),rhsMax =   1.76834186182973E-10  1.73395023750459E-02
 cg2d: Sum(rhs),rhsMax =   1.76849021538139E-10  1.73403781913457E-02
 cg2d: Sum(rhs),rhsMax =   1.76888823033572E-10  1.73412621662759E-02
 cg2d: Sum(rhs),rhsMax =   1.76929026984851E-10  1.73421541823735E-02
 cg2d: Sum(rhs),rhsMax =   1.76978681709627E-10  1.73430541027581E-02
 cg2d: Sum(rhs),rhsMax =   1.77012543511879E-10  1.73439617742672E-02
 cg2d: Sum(rhs),rhsMax =   1.77039646831467E-10  1.73448770273422E-02
 cg2d: Sum(rhs),rhsMax =   1.77073369855840E-10  1.73457996753121E-02
 cg2d: Sum(rhs),rhsMax =   1.77097850273533E-10  1.73467295197862E-02
 cg2d: Sum(rhs),rhsMax =   1.77140607737769E-10  1.73476663452314E-02
 cg2d: Sum(rhs),rhsMax =   1.77179243499026E-10  1.73486099284937E-02
 cg2d: Sum(rhs),rhsMax =   1.77212730601006E-10  1.73495600327231E-02
 cg2d: Sum(rhs),rhsMax =   1.77250755739600E-10  1.73505164159586E-02
 cg2d: Sum(rhs),rhsMax =   1.77277123536435E-10  1.73514788260792E-02
 cg2d: Sum(rhs),rhsMax =   1.77305919946136E-10  1.73524470076608E-02
 cg2d: Sum(rhs),rhsMax =   1.77342709961614E-10  1.73534206968205E-02
 cg2d: Sum(rhs),rhsMax =   1.77377307286619E-10  1.73543996290999E-02
 cg2d: Sum(rhs),rhsMax =   1.77416220603632E-10  1.73553835347878E-02
 cg2d: Sum(rhs),rhsMax =   1.77445697024936E-10  1.73563721454710E-02
 cg2d: Sum(rhs),rhsMax =   1.77477157969896E-10  1.73573651925692E-02
 cg2d: Sum(rhs),rhsMax =   1.77507050724834E-10  1.73583624037025E-02
 cg2d: Sum(rhs),rhsMax =   1.77535680601082E-10  1.73593634974725E-02
 cg2d: Sum(rhs),rhsMax =   1.77566239489835E-10  1.73603681908528E-02
 cg2d: Sum(rhs),rhsMax =   1.77607942242197E-10  1.73613762441662E-02
 cg2d: Sum(rhs),rhsMax =   1.77641137910634E-10  1.73623874400890E-02
 cg2d: Sum(rhs),rhsMax =   1.77667103251622E-10  1.73634015355789E-02
 cg2d: Sum(rhs),rhsMax =   1.77693040837035E-10  1.73644182678750E-02
 cg2d: Sum(rhs),rhsMax =   1.77715606120010E-10  1.73654373814280E-02
 cg2d: Sum(rhs),rhsMax =   1.77747552787544E-10  1.73664586460609E-02
 cg2d: Sum(rhs),rhsMax =   1.77771339315846E-10  1.73674818336205E-02
 cg2d: Sum(rhs),rhsMax =   1.77812820023604E-10  1.73685067521403E-02
 cg2d: Sum(rhs),rhsMax =   1.77852357841068E-10  1.73695331886088E-02
 cg2d: Sum(rhs),rhsMax =   1.77899167619344E-10  1.73705609354419E-02
 cg2d: Sum(rhs),rhsMax =   1.77931072653514E-10  1.73715898334291E-02
 cg2d: Sum(rhs),rhsMax =   1.77954082025700E-10  1.73726197192963E-02
 cg2d: Sum(rhs),rhsMax =   1.77994979866369E-10  1.73736504192117E-02
 cg2d: Sum(rhs),rhsMax =   1.78042428022884E-10  1.73746817673374E-02
 cg2d: Sum(rhs),rhsMax =   1.78079162527212E-10  1.73757136089591E-02
 cg2d: Sum(rhs),rhsMax =   1.78106168702286E-10  1.73767458123137E-02
 cg2d: Sum(rhs),rhsMax =   1.78140419082595E-10  1.73777782628395E-02
 cg2d: Sum(rhs),rhsMax =   1.78173850673424E-10  1.73788108442631E-02
 cg2d: Sum(rhs),rhsMax =   1.78221104540910E-10  1.73798434384021E-02
 cg2d: Sum(rhs),rhsMax =   1.78252620997021E-10  1.73808759316511E-02
 cg2d: Sum(rhs),rhsMax =   1.78278114493224E-10  1.73819082291008E-02
 cg2d: Sum(rhs),rhsMax =   1.78316847398996E-10  1.73829402435609E-02
 cg2d: Sum(rhs),rhsMax =   1.78356163171856E-10  1.73839718952656E-02
 cg2d: Sum(rhs),rhsMax =   1.78396269978620E-10  1.73850031073245E-02
 cg2d: Sum(rhs),rhsMax =   1.78419862217893E-10  1.73860338079588E-02
 cg2d: Sum(rhs),rhsMax =   1.78457873478699E-10  1.73871031200974E-02
 cg2d: Sum(rhs),rhsMax =   1.78487183366549E-10  1.73881715248730E-02
 cg2d: Sum(rhs),rhsMax =   1.78522738258913E-10  1.73892387551029E-02
 cg2d: Sum(rhs),rhsMax =   1.78564982245000E-10  1.73903049644041E-02
 cg2d: Sum(rhs),rhsMax =   1.78596928912533E-10  1.73913699864980E-02
 cg2d: Sum(rhs),rhsMax =   1.78631762159931E-10  1.73924337373564E-02
 cg2d: Sum(rhs),rhsMax =   1.78661099803357E-10  1.73934961521064E-02
 cg2d: Sum(rhs),rhsMax =   1.78707076914364E-10  1.73945571607956E-02
 cg2d: Sum(rhs),rhsMax =   1.78754372415213E-10  1.73956166966214E-02
 cg2d: Sum(rhs),rhsMax =   1.78792702865138E-10  1.73966746954238E-02
 cg2d: Sum(rhs),rhsMax =   1.78825759755696E-10  1.73977310934192E-02
 cg2d: Sum(rhs),rhsMax =   1.78860454225216E-10  1.73987858286668E-02
 cg2d: Sum(rhs),rhsMax =   1.78898951208595E-10  1.73998388414082E-02
 cg2d: Sum(rhs),rhsMax =   1.78917061721684E-10  1.74008900713761E-02
 cg2d: Sum(rhs),rhsMax =   1.78962233920998E-10  1.74019394600722E-02
 cg2d: Sum(rhs),rhsMax =   1.78996040212098E-10  1.74029869468294E-02
 cg2d: Sum(rhs),rhsMax =   1.79034634339992E-10  1.74040324712536E-02
 cg2d: Sum(rhs),rhsMax =   1.79066692029828E-10  1.74050759739158E-02
 cg2d: Sum(rhs),rhsMax =   1.79100997921289E-10  1.74061173933986E-02
 cg2d: Sum(rhs),rhsMax =   1.79126352639614E-10  1.74071566684502E-02
 cg2d: Sum(rhs),rhsMax =   1.79169207248364E-10  1.74081937350600E-02
 cg2d: Sum(rhs),rhsMax =   1.79188400228902E-10  1.74092285300855E-02
 cg2d: Sum(rhs),rhsMax =   1.79223330620815E-10  1.74102610116166E-02
 cg2d: Sum(rhs),rhsMax =   1.79252820919906E-10  1.74112910982635E-02
 cg2d: Sum(rhs),rhsMax =   1.79278633605229E-10  1.74123186980745E-02
 cg2d: Sum(rhs),rhsMax =   1.79312037440482E-10  1.74133437650399E-02
 cg2d: Sum(rhs),rhsMax =   1.79351283824403E-10  1.74143662327497E-02
 Computing Diagnostic #    26 "THETA   " (list#  1) Parms "SMR     MR      ", Count=     144
 Computing Diagnostic #    27 "SALT    " (list#  1) Parms "SMR     MR      ", Count=     144
 Computing Diagnostic #    30 "UVEL    " (list#  1) Parms "UUR     MR      ", Count=     144
             Vector  Mate for "UVEL    " :  Diagnostic #     31 "VVEL    " exists
 Computing Diagnostic #    32 "WVEL    " (list#  1) Parms "WM      LR      ", Count=     144
 Computing Diagnostic #    31 "VVEL    " (list#  1) Parms "VVR     MR      ", Count=     144
             Vector  Mate for "VVEL    " :  Diagnostic #     30 "UVEL    " exists
 Computing Diagnostic #   197 "BRGfwFlx" (list#  2) Parms "SM      MR      ", Count=     144
 Computing Diagnostic #   198 "BRGhtFlx" (list#  2) Parms "SM      MR      ", Count=     144
 Computing Diagnostic #   199 "BRGmltRt" (list#  2) Parms "SM      MR      ", Count=     144
 Computing Diagnostic #   201 "BRG_TauX" (list#  2) Parms "UU      MR      ", Count=    1728
 Computing Diagnostic #   202 "BRG_TauY" (list#  2) Parms "VV      MR      ", Count=    1728
 Computing Diagnostic #   203 "BRGhFacC" (list#  2) Parms "SM      MR      ", Count=    1728
 cg2d: Sum(rhs),rhsMax =   1.79378970011079E-10  1.74153860314247E-02
 cg2d: Sum(rhs),rhsMax =   1.79405393319065E-10  1.74164030929942E-02
 cg2d: Sum(rhs),rhsMax =   1.79437825709172E-10  1.74174173470149E-02
 cg2d: Sum(rhs),rhsMax =   1.79471867922665E-10  1.74184270914237E-02
 cg2d: Sum(rhs),rhsMax =   1.79507825270875E-10  1.74194271976154E-02
 cg2d: Sum(rhs),rhsMax =   1.79538578448657E-10  1.74204232898766E-02
 cg2d: Sum(rhs),rhsMax =   1.79576117864677E-10  1.74214163257731E-02
 cg2d: Sum(rhs),rhsMax =   1.79606746142369E-10  1.74224063966179E-02
 cg2d: Sum(rhs),rhsMax =   1.79636888697488E-10  1.74233935283750E-02
 cg2d: Sum(rhs),rhsMax =   1.79668280253509E-10  1.74243777271754E-02
 cg2d: Sum(rhs),rhsMax =   1.79694259472285E-10  1.74253589945665E-02
 cg2d: Sum(rhs),rhsMax =   1.79724277127313E-10  1.74263373295455E-02
 cg2d: Sum(rhs),rhsMax =   1.79758333218594E-10  1.74273127307637E-02
 cg2d: Sum(rhs),rhsMax =   1.79779663378454E-10  1.74282852008485E-02
 cg2d: Sum(rhs),rhsMax =   1.79823461676776E-10  1.74292547398163E-02
 cg2d: Sum(rhs),rhsMax =   1.79859876991983E-10  1.74302213481294E-02
 cg2d: Sum(rhs),rhsMax =   1.79900178087777E-10  1.74311850303530E-02
 cg2d: Sum(rhs),rhsMax =   1.79930070842715E-10  1.74321457881344E-02
 cg2d: Sum(rhs),rhsMax =   1.79952927559235E-10  1.74331036272162E-02
 cg2d: Sum(rhs),rhsMax =   1.80000320204599E-10  1.74340585564021E-02
 cg2d: Sum(rhs),rhsMax =   1.80021608731096E-10  1.74350105845044E-02
 cg2d: Sum(rhs),rhsMax =   1.80058010168516E-10  1.74359597272834E-02
 cg2d: Sum(rhs),rhsMax =   1.80090414803047E-10  1.74369059992826E-02
 cg2d: Sum(rhs),rhsMax =   1.80131576321685E-10  1.74378494240490E-02
 cg2d: Sum(rhs),rhsMax =   1.80163953200640E-10  1.74387900543738E-02
 cg2d: Sum(rhs),rhsMax =   1.80182993525513E-10  1.74397278971830E-02
 cg2d: Sum(rhs),rhsMax =   1.80222531342977E-10  1.74406629426721E-02
 cg2d: Sum(rhs),rhsMax =   1.80252632264732E-10  1.74415954411170E-02
 cg2d: Sum(rhs),rhsMax =   1.80285439355110E-10  1.74425254708502E-02
 cg2d: Sum(rhs),rhsMax =   1.80317621945036E-10  1.74434528599778E-02
 cg2d: Sum(rhs),rhsMax =   1.80342393796273E-10  1.74443775686364E-02
 cg2d: Sum(rhs),rhsMax =   1.80391965254323E-10  1.74452997630426E-02
 cg2d: Sum(rhs),rhsMax =   1.80426604212691E-10  1.74462196272380E-02
 cg2d: Sum(rhs),rhsMax =   1.80458564758013E-10  1.74471372716788E-02
 cg2d: Sum(rhs),rhsMax =   1.80481976586044E-10  1.74480527663578E-02
 cg2d: Sum(rhs),rhsMax =   1.80515366543510E-10  1.74489662074351E-02
 cg2d: Sum(rhs),rhsMax =   1.80560094653615E-10  1.74498777033287E-02
 cg2d: Sum(rhs),rhsMax =   1.80593220933112E-10  1.74507873798504E-02
 cg2d: Sum(rhs),rhsMax =   1.80618048295500E-10  1.74516953859388E-02
 cg2d: Sum(rhs),rhsMax =   1.80651604786419E-10  1.74526018542401E-02
 cg2d: Sum(rhs),rhsMax =   1.80684772699280E-10  1.74535067122233E-02
 cg2d: Sum(rhs),rhsMax =   1.80720632902975E-10  1.74544102088693E-02
 cg2d: Sum(rhs),rhsMax =   1.80755937995158E-10  1.74553122355771E-02
 cg2d: Sum(rhs),rhsMax =   1.80791812076642E-10  1.74562129068382E-02
 cg2d: Sum(rhs),rhsMax =   1.80816139838669E-10  1.74571123234357E-02
 cg2d: Sum(rhs),rhsMax =   1.80856996045975E-10  1.74580105917552E-02
 cg2d: Sum(rhs),rhsMax =   1.80888970469084E-10  1.74589078391322E-02
 cg2d: Sum(rhs),rhsMax =   1.80931158944020E-10  1.74598042168671E-02
 cg2d: Sum(rhs),rhsMax =   1.80948339645326E-10  1.74606998959241E-02
 cg2d: Sum(rhs),rhsMax =   1.80982936970331E-10  1.74615950546331E-02
 cg2d: Sum(rhs),rhsMax =   1.81017242861792E-10  1.74624899062344E-02
 cg2d: Sum(rhs),rhsMax =   1.81054032877270E-10  1.74633846792031E-02
 cg2d: Sum(rhs),rhsMax =   1.81073711580382E-10  1.74642796190278E-02
 cg2d: Sum(rhs),rhsMax =   1.81109266472745E-10  1.74651749861945E-02
 cg2d: Sum(rhs),rhsMax =   1.81143863797750E-10  1.74660710648491E-02
 cg2d: Sum(rhs),rhsMax =   1.81172854496481E-10  1.74669681557149E-02
 cg2d: Sum(rhs),rhsMax =   1.81208881233630E-10  1.74678665745466E-02
 cg2d: Sum(rhs),rhsMax =   1.81240120133985E-10  1.74687666543955E-02
 cg2d: Sum(rhs),rhsMax =   1.81261949894207E-10  1.74696687417623E-02
 cg2d: Sum(rhs),rhsMax =   1.81300863211220E-10  1.74705731905460E-02
 cg2d: Sum(rhs),rhsMax =   1.81339096516631E-10  1.74714803806447E-02
 cg2d: Sum(rhs),rhsMax =   1.81376566543712E-10  1.74723906918214E-02
 cg2d: Sum(rhs),rhsMax =   1.81405820920411E-10  1.74733045088604E-02
 cg2d: Sum(rhs),rhsMax =   1.81441250912684E-10  1.74742222188282E-02
 cg2d: Sum(rhs),rhsMax =   1.81481829564234E-10  1.74751442084872E-02
 cg2d: Sum(rhs),rhsMax =   1.81506254470776E-10  1.74760708779935E-02
 cg2d: Sum(rhs),rhsMax =   1.81549358879707E-10  1.74770026298641E-02
 cg2d: Sum(rhs),rhsMax =   1.81575976476722E-10  1.74779398569088E-02
 cg2d: Sum(rhs),rhsMax =   1.81604314919426E-10  1.74788829371753E-02
 cg2d: Sum(rhs),rhsMax =   1.81639203677975E-10  1.74798322415481E-02
 cg2d: Sum(rhs),rhsMax =   1.81685957945099E-10  1.74807881412085E-02
 cg2d: Sum(rhs),rhsMax =   1.81711631852544E-10  1.74817509928230E-02
 cg2d: Sum(rhs),rhsMax =   1.81738485371952E-10  1.74827211328345E-02
 cg2d: Sum(rhs),rhsMax =   1.81780354657768E-10  1.74836988887677E-02
 cg2d: Sum(rhs),rhsMax =   1.81805279164671E-10  1.74846845671647E-02
 cg2d: Sum(rhs),rhsMax =   1.81836254387058E-10  1.74856784432981E-02
 cg2d: Sum(rhs),rhsMax =   1.81869630466736E-10  1.74866807693696E-02
 cg2d: Sum(rhs),rhsMax =   1.81898468509800E-10  1.74876917753552E-02
 cg2d: Sum(rhs),rhsMax =   1.81927958808892E-10  1.74887116577790E-02
 cg2d: Sum(rhs),rhsMax =   1.81959100564733E-10  1.74897405878870E-02
 cg2d: Sum(rhs),rhsMax =   1.81996556714026E-10  1.74907786994177E-02
 cg2d: Sum(rhs),rhsMax =   1.82024215145127E-10  1.74918260944823E-02
 cg2d: Sum(rhs),rhsMax =   1.82062850906384E-10  1.74928828632699E-02
 cg2d: Sum(rhs),rhsMax =   1.82082182664800E-10  1.74939489347006E-02
 cg2d: Sum(rhs),rhsMax =   1.82126841385966E-10  1.74950243998217E-02
 cg2d: Sum(rhs),rhsMax =   1.82147602556526E-10  1.74961091965709E-02
 cg2d: Sum(rhs),rhsMax =   1.82177092855618E-10  1.74972032222015E-02
 cg2d: Sum(rhs),rhsMax =   1.82200962650647E-10  1.74983063519305E-02
 cg2d: Sum(rhs),rhsMax =   1.82240930679534E-10  1.74994184160949E-02
 cg2d: Sum(rhs),rhsMax =   1.82269907500476E-10  1.75005392103120E-02
 cg2d: Sum(rhs),rhsMax =   1.82318909969226E-10  1.75016684807059E-02
 cg2d: Sum(rhs),rhsMax =   1.82354895073011E-10  1.75028059414843E-02
 cg2d: Sum(rhs),rhsMax =   1.82384121694135E-10  1.75039512575572E-02
 cg2d: Sum(rhs),rhsMax =   1.82411627469570E-10  1.75051040629518E-02
 cg2d: Sum(rhs),rhsMax =   1.82438827933673E-10  1.75062639492721E-02
 cg2d: Sum(rhs),rhsMax =   1.82466819431681E-10  1.75074304702369E-02
 cg2d: Sum(rhs),rhsMax =   1.82494575007297E-10  1.75086033054313E-02
 cg2d: Sum(rhs),rhsMax =   1.82523496317089E-10  1.75097815180791E-02
 cg2d: Sum(rhs),rhsMax =   1.82563172912431E-10  1.75109648896512E-02
 cg2d: Sum(rhs),rhsMax =   1.82595452646872E-10  1.75121528069393E-02
 cg2d: Sum(rhs),rhsMax =   1.82635323531244E-10  1.75133446559347E-02
 cg2d: Sum(rhs),rhsMax =   1.82669268600222E-10  1.75145397867186E-02
 cg2d: Sum(rhs),rhsMax =   1.82684978256020E-10  1.75157375245164E-02
 cg2d: Sum(rhs),rhsMax =   1.82707876605903E-10  1.75169371749670E-02
 cg2d: Sum(rhs),rhsMax =   1.82751938582193E-10  1.75181380229701E-02
 cg2d: Sum(rhs),rhsMax =   1.82780457436138E-10  1.75193393358416E-02
 cg2d: Sum(rhs),rhsMax =   1.82816012328502E-10  1.75205403722797E-02
 cg2d: Sum(rhs),rhsMax =   1.82842060936217E-10  1.75217403750509E-02
 cg2d: Sum(rhs),rhsMax =   1.82881834676074E-10  1.75229385762662E-02
 cg2d: Sum(rhs),rhsMax =   1.82911866208890E-10  1.75241342058559E-02
 cg2d: Sum(rhs),rhsMax =   1.82940121384867E-10  1.75253265336697E-02
 cg2d: Sum(rhs),rhsMax =   1.82959328243193E-10  1.75265147958967E-02
 cg2d: Sum(rhs),rhsMax =   1.82996034991945E-10  1.75276982372209E-02
 cg2d: Sum(rhs),rhsMax =   1.83028189826295E-10  1.75288761085627E-02
 cg2d: Sum(rhs),rhsMax =   1.83049297941551E-10  1.75300476753328E-02
 cg2d: Sum(rhs),rhsMax =   1.83088821881228E-10  1.75312122185566E-02
 cg2d: Sum(rhs),rhsMax =   1.83110263063391E-10  1.75323690408876E-02
 cg2d: Sum(rhs),rhsMax =   1.83141377063656E-10  1.75335174647999E-02
 cg2d: Sum(rhs),rhsMax =   1.83168716305637E-10  1.75346568391122E-02
 cg2d: Sum(rhs),rhsMax =   1.83199011516422E-10  1.75357865426785E-02
 cg2d: Sum(rhs),rhsMax =   1.83236981143864E-10  1.75369059844731E-02
 cg2d: Sum(rhs),rhsMax =   1.83268164533068E-10  1.75380146089446E-02
 cg2d: Sum(rhs),rhsMax =   1.83321621771704E-10  1.75391118973104E-02
 cg2d: Sum(rhs),rhsMax =   1.83358050964699E-10  1.75401973704035E-02
 cg2d: Sum(rhs),rhsMax =   1.83397047548439E-10  1.75412705925581E-02
 cg2d: Sum(rhs),rhsMax =   1.83431089761932E-10  1.75423311696402E-02
 cg2d: Sum(rhs),rhsMax =   1.83461523750594E-10  1.75433788634773E-02
 cg2d: Sum(rhs),rhsMax =   1.83496703942687E-10  1.75444134164678E-02
 cg2d: Sum(rhs),rhsMax =   1.83518866769816E-10  1.75454345817271E-02
 cg2d: Sum(rhs),rhsMax =   1.83560971978025E-10  1.75464421669226E-02
 cg2d: Sum(rhs),rhsMax =   1.83586562618743E-10  1.75474360234212E-02
 cg2d: Sum(rhs),rhsMax =   1.83610307513682E-10  1.75484160588004E-02
 cg2d: Sum(rhs),rhsMax =   1.83646153839589E-10  1.75493822267672E-02
 cg2d: Sum(rhs),rhsMax =   1.83666956643513E-10  1.75503345351913E-02
 cg2d: Sum(rhs),rhsMax =   1.83701678868609E-10  1.75512730566878E-02
 cg2d: Sum(rhs),rhsMax =   1.83740286874290E-10  1.75521978899400E-02
 cg2d: Sum(rhs),rhsMax =   1.83777881801461E-10  1.75531091872846E-02
 cg2d: Sum(rhs),rhsMax =   1.83819237609129E-10  1.75540071969982E-02
 cg2d: Sum(rhs),rhsMax =   1.83871570746952E-10  1.75548921907056E-02
 cg2d: Sum(rhs),rhsMax =   1.83901491257465E-10  1.75557644781032E-02
 cg2d: Sum(rhs),rhsMax =   1.83939613540574E-10  1.75566244237892E-02
 cg2d: Sum(rhs),rhsMax =   1.83974113721064E-10  1.75574724438638E-02
 cg2d: Sum(rhs),rhsMax =   1.83998621894332E-10  1.75583089987013E-02
 cg2d: Sum(rhs),rhsMax =   1.84038562167643E-10  1.75591345916671E-02
 Computing Diagnostic #    26 "THETA   " (list#  1) Parms "SMR     MR      ", Count=     144
 Computing Diagnostic #    27 "SALT    " (list#  1) Parms "SMR     MR      ", Count=     144
 Computing Diagnostic #    30 "UVEL    " (list#  1) Parms "UUR     MR      ", Count=     144
             Vector  Mate for "UVEL    " :  Diagnostic #     31 "VVEL    " exists
 Computing Diagnostic #    32 "WVEL    " (list#  1) Parms "WM      LR      ", Count=     144
 Computing Diagnostic #    31 "VVEL    " (list#  1) Parms "VVR     MR      ", Count=     144
             Vector  Mate for "VVEL    " :  Diagnostic #     30 "UVEL    " exists
 Computing Diagnostic #   197 "BRGfwFlx" (list#  2) Parms "SM      MR      ", Count=     144
 Computing Diagnostic #   198 "BRGhtFlx" (list#  2) Parms "SM      MR      ", Count=     144
 Computing Diagnostic #   199 "BRGmltRt" (list#  2) Parms "SM      MR      ", Count=     144
 Computing Diagnostic #   201 "BRG_TauX" (list#  2) Parms "UU      MR      ", Count=    1728
 Computing Diagnostic #   202 "BRG_TauY" (list#  2) Parms "VV      MR      ", Count=    1728
 Computing Diagnostic #   203 "BRGhFacC" (list#  2) Parms "SM      MR      ", Count=    1728
 cg2d: Sum(rhs),rhsMax =   1.84069121056396E-10  1.75599497702548E-02
 cg2d: Sum(rhs),rhsMax =   1.84109699707946E-10  1.75607551119417E-02
 cg2d: Sum(rhs),rhsMax =   1.84138052028437E-10  1.75615512353335E-02
 cg2d: Sum(rhs),rhsMax =   1.84174647754887E-10  1.75623388076821E-02
 cg2d: Sum(rhs),rhsMax =   1.84210813269914E-10  1.75631185263021E-02
 cg2d: Sum(rhs),rhsMax =   1.84232837319165E-10  1.75638911050564E-02
 cg2d: Sum(rhs),rhsMax =   1.84253667878664E-10  1.75646572811921E-02
 cg2d: Sum(rhs),rhsMax =   1.84297049843352E-10  1.75654178168401E-02
 cg2d: Sum(rhs),rhsMax =   1.84326220953324E-10  1.75661734973503E-02
 cg2d: Sum(rhs),rhsMax =   1.84368728617379E-10  1.75669251204216E-02
 cg2d: Sum(rhs),rhsMax =   1.84405393732767E-10  1.75676734705605E-02
 cg2d: Sum(rhs),rhsMax =   1.84442766615334E-10  1.75684193670549E-02
 cg2d: Sum(rhs),rhsMax =   1.84475670850226E-10  1.75691636324036E-02
 cg2d: Sum(rhs),rhsMax =   1.84521023460782E-10  1.75699070953785E-02
 cg2d: Sum(rhs),rhsMax =   1.84561074756395E-10  1.75706505811783E-02
 cg2d: Sum(rhs),rhsMax =   1.84593493268714E-10  1.75713949097865E-02
 cg2d: Sum(rhs),rhsMax =   1.84619958210064E-10  1.75721408920151E-02
 cg2d: Sum(rhs),rhsMax =   1.84641912870376E-10  1.75728893270671E-02
 cg2d: Sum(rhs),rhsMax =   1.84675927328293E-10  1.75736409999445E-02
 cg2d: Sum(rhs),rhsMax =   1.84713383477586E-10  1.75743966768457E-02
 cg2d: Sum(rhs),rhsMax =   1.84748105702681E-10  1.75751570969455E-02
 cg2d: Sum(rhs),rhsMax =   1.84780607481727E-10  1.75759229778665E-02
 cg2d: Sum(rhs),rhsMax =   1.84822407378604E-10  1.75766950107640E-02
 cg2d: Sum(rhs),rhsMax =   1.84859946794624E-10  1.75774738530940E-02
 cg2d: Sum(rhs),rhsMax =   1.84893156340848E-10  1.75782601278270E-02
 cg2d: Sum(rhs),rhsMax =   1.84921217227796E-10  1.75790544249944E-02
 cg2d: Sum(rhs),rhsMax =   1.84964460414605E-10  1.75798572946257E-02
 cg2d: Sum(rhs),rhsMax =   1.84996865049136E-10  1.75806692428503E-02
 cg2d: Sum(rhs),rhsMax =   1.85029228050304E-10  1.75814907391818E-02
 cg2d: Sum(rhs),rhsMax =   1.85066101332509E-10  1.75823222029781E-02
 cg2d: Sum(rhs),rhsMax =   1.85101003968846E-10  1.75831640116675E-02
 cg2d: Sum(rhs),rhsMax =   1.85132909003016E-10  1.75840164903588E-02
 cg2d: Sum(rhs),rhsMax =   1.85160720089783E-10  1.75848799276020E-02
 cg2d: Sum(rhs),rhsMax =   1.85192403079348E-10  1.75857545500873E-02
 cg2d: Sum(rhs),rhsMax =   1.85230705773698E-10  1.75866405410312E-02
 cg2d: Sum(rhs),rhsMax =   1.85272255870395E-10  1.75875383775995E-02
 cg2d: Sum(rhs),rhsMax =   1.85307644229304E-10  1.75884480111849E-02
 cg2d: Sum(rhs),rhsMax =   1.85339646407989E-10  1.75893691875783E-02
 cg2d: Sum(rhs),rhsMax =   1.85365764404644E-10  1.75903017653703E-02
 cg2d: Sum(rhs),rhsMax =   1.85404150365720E-10  1.75912458348995E-02
 cg2d: Sum(rhs),rhsMax =   1.85440315880747E-10  1.75922013945033E-02
 cg2d: Sum(rhs),rhsMax =   1.85471901725798E-10  1.75931682557711E-02
 cg2d: Sum(rhs),rhsMax =   1.85511564443352E-10  1.75941461581066E-02
 cg2d: Sum(rhs),rhsMax =   1.85547688325016E-10  1.75951348193397E-02
 cg2d: Sum(rhs),rhsMax =   1.85570267485780E-10  1.75961339520325E-02
 cg2d: Sum(rhs),rhsMax =   1.85601700675164E-10  1.75971432303509E-02
 cg2d: Sum(rhs),rhsMax =   1.85624099424686E-10  1.75981622887640E-02
 cg2d: Sum(rhs),rhsMax =   1.85660389839803E-10  1.75991907199561E-02
 cg2d: Sum(rhs),rhsMax =   1.85692683452032E-10  1.76002280788956E-02
 cg2d: Sum(rhs),rhsMax =   1.85726767298888E-10  1.76012738829105E-02
 cg2d: Sum(rhs),rhsMax =   1.85745099856582E-10  1.76023276260125E-02
 cg2d: Sum(rhs),rhsMax =   1.85782902950571E-10  1.76033887729501E-02
 cg2d: Sum(rhs),rhsMax =   1.85806370289754E-10  1.76044567646591E-02
 cg2d: Sum(rhs),rhsMax =   1.85838788802073E-10  1.76055310280362E-02
 cg2d: Sum(rhs),rhsMax =   1.85868626045860E-10  1.76066109661990E-02
 cg2d: Sum(rhs),rhsMax =   1.85904389105040E-10  1.76076959728958E-02
 cg2d: Sum(rhs),rhsMax =   1.85942483632573E-10  1.76087854308353E-02
 cg2d: Sum(rhs),rhsMax =   1.85972182098482E-10  1.76098787127388E-02
 cg2d: Sum(rhs),rhsMax =   1.86002185875722E-10  1.76109751906749E-02
 cg2d: Sum(rhs),rhsMax =   1.86030899018697E-10  1.76120742292321E-02
 cg2d: Sum(rhs),rhsMax =   1.86067772300902E-10  1.76131751988835E-02
 cg2d: Sum(rhs),rhsMax =   1.86099607946133E-10  1.76142774734356E-02
 cg2d: Sum(rhs),rhsMax =   1.86119300527032E-10  1.76153804316988E-02
 cg2d: Sum(rhs),rhsMax =   1.86152496195469E-10  1.76164834684064E-02
 cg2d: Sum(rhs),rhsMax =   1.86188522932618E-10  1.76175859915244E-02
 cg2d: Sum(rhs),rhsMax =   1.86208784502817E-10  1.76186874208950E-02
 cg2d: Sum(rhs),rhsMax =   1.86237719690396E-10  1.76197871965839E-02
 cg2d: Sum(rhs),rhsMax =   1.86256926548722E-10  1.76208847777268E-02
 cg2d: Sum(rhs),rhsMax =   1.86296422732823E-10  1.76219796491429E-02
 cg2d: Sum(rhs),rhsMax =   1.86331519658189E-10  1.76230713182629E-02
 cg2d: Sum(rhs),rhsMax =   1.86369378263329E-10  1.76241593252529E-02
 cg2d: Sum(rhs),rhsMax =   1.86399451429509E-10  1.76252432379381E-02
 cg2d: Sum(rhs),rhsMax =   1.86437962290675E-10  1.76263226543598E-02
 cg2d: Sum(rhs),rhsMax =   1.86460624718165E-10  1.76273972096959E-02
 cg2d: Sum(rhs),rhsMax =   1.86498608223395E-10  1.76284665721353E-02
 cg2d: Sum(rhs),rhsMax =   1.86528695267363E-10  1.76295304419092E-02
 cg2d: Sum(rhs),rhsMax =   1.86568815951915E-10  1.76305885608404E-02
 cg2d: Sum(rhs),rhsMax =   1.86596987861165E-10  1.76316407030569E-02
 cg2d: Sum(rhs),rhsMax =   1.86610019103917E-10  1.76326866800832E-02
 cg2d: Sum(rhs),rhsMax =   1.86639759203189E-10  1.76337263415028E-02
 cg2d: Sum(rhs),rhsMax =   1.86690676806656E-10  1.76347595746317E-02
 cg2d: Sum(rhs),rhsMax =   1.86719056882723E-10  1.76357863043698E-02
 cg2d: Sum(rhs),rhsMax =   1.86748588815178E-10  1.76368064913891E-02
 cg2d: Sum(rhs),rhsMax =   1.86778759125872E-10  1.76378201303357E-02
 cg2d: Sum(rhs),rhsMax =   1.86809248625686E-10  1.76388272562640E-02
 cg2d: Sum(rhs),rhsMax =   1.86828705284192E-10  1.76398279363313E-02
 cg2d: Sum(rhs),rhsMax =   1.86878790220391E-10  1.76408222721930E-02
 cg2d: Sum(rhs),rhsMax =   1.86899870580071E-10  1.76418103961475E-02
 cg2d: Sum(rhs),rhsMax =   1.86929749457221E-10  1.76427924718112E-02
 cg2d: Sum(rhs),rhsMax =   1.86964985160465E-10  1.76437686938841E-02
 cg2d: Sum(rhs),rhsMax =   1.86999596363258E-10  1.76447392834143E-02
 cg2d: Sum(rhs),rhsMax =   1.87029031151198E-10  1.76457044847552E-02
 cg2d: Sum(rhs),rhsMax =   1.87044948973814E-10  1.76466645671012E-02
 cg2d: Sum(rhs),rhsMax =   1.87071094726043E-10  1.76476198209649E-02
 cg2d: Sum(rhs),rhsMax =   1.87100918092042E-10  1.76485705570576E-02
 cg2d: Sum(rhs),rhsMax =   1.87120707817456E-10  1.76495170974653E-02
 cg2d: Sum(rhs),rhsMax =   1.87147672359167E-10  1.76504597875885E-02
 cg2d: Sum(rhs),rhsMax =   1.87189319600378E-10  1.76513989758091E-02
 cg2d: Sum(rhs),rhsMax =   1.87216242508725E-10  1.76523350252218E-02
 cg2d: Sum(rhs),rhsMax =   1.87256710137973E-10  1.76532683041347E-02
 cg2d: Sum(rhs),rhsMax =   1.87294346698508E-10  1.76541991844732E-02
 cg2d: Sum(rhs),rhsMax =   1.87328333400849E-10  1.76551280447979E-02
 cg2d: Sum(rhs),rhsMax =   1.87354909364501E-10  1.76560552567559E-02
 cg2d: Sum(rhs),rhsMax =   1.87393753292575E-10  1.76569811959743E-02
 cg2d: Sum(rhs),rhsMax =   1.87437482201958E-10  1.76579062287844E-02
 cg2d: Sum(rhs),rhsMax =   1.87473522816894E-10  1.76588307126886E-02
 cg2d: Sum(rhs),rhsMax =   1.87497101178380E-10  1.76597550028586E-02
 cg2d: Sum(rhs),rhsMax =   1.87525481254447E-10  1.76606794358703E-02
 cg2d: Sum(rhs),rhsMax =   1.87544951790741E-10  1.76616043379982E-02
 cg2d: Sum(rhs),rhsMax =   1.87585405542201E-10  1.76625300192749E-02
 cg2d: Sum(rhs),rhsMax =   1.87619975111630E-10  1.76634567719972E-02
 cg2d: Sum(rhs),rhsMax =   1.87645815552528E-10  1.76643848710394E-02
 cg2d: Sum(rhs),rhsMax =   1.87679483065750E-10  1.76653145701131E-02
 cg2d: Sum(rhs),rhsMax =   1.87713830590575E-10  1.76662461026707E-02
 cg2d: Sum(rhs),rhsMax =   1.87746027058289E-10  1.76671796772586E-02
 cg2d: Sum(rhs),rhsMax =   1.87781554195077E-10  1.76681154810228E-02
 cg2d: Sum(rhs),rhsMax =   1.87806589724282E-10  1.76690536744982E-02
 cg2d: Sum(rhs),rhsMax =   1.87847959409737E-10  1.76699943962727E-02
 cg2d: Sum(rhs),rhsMax =   1.87882445712440E-10  1.76709377172971E-02
 cg2d: Sum(rhs),rhsMax =   1.87905552229140E-10  1.76718837957965E-02
 cg2d: Sum(rhs),rhsMax =   1.87923135386292E-10  1.76728326748647E-02
 cg2d: Sum(rhs),rhsMax =   1.87942231222316E-10  1.76737843701035E-02
 cg2d: Sum(rhs),rhsMax =   1.87969320664116E-10  1.76747388788097E-02
 cg2d: Sum(rhs),rhsMax =   1.88011439750113E-10  1.76756961893741E-02
 cg2d: Sum(rhs),rhsMax =   1.88045717885998E-10  1.76766563090395E-02
 cg2d: Sum(rhs),rhsMax =   1.88070309325994E-10  1.76776191089741E-02
 cg2d: Sum(rhs),rhsMax =   1.88100549025627E-10  1.76785844931251E-02
 cg2d: Sum(rhs),rhsMax =   1.88123683297903E-10  1.76795523640148E-02
 cg2d: Sum(rhs),rhsMax =   1.88156351610402E-10  1.76805225923877E-02
 cg2d: Sum(rhs),rhsMax =   1.88170201642635E-10  1.76814950302242E-02
 cg2d: Sum(rhs),rhsMax =   1.88216706109579E-10  1.76824695068489E-02
 cg2d: Sum(rhs),rhsMax =   1.88245266596887E-10  1.76834514965628E-02
 cg2d: Sum(rhs),rhsMax =   1.88275978141306E-10  1.76844353250613E-02
 cg2d: Sum(rhs),rhsMax =   1.88304372095160E-10  1.76854204162676E-02
 cg2d: Sum(rhs),rhsMax =   1.88336832240843E-10  1.76864065873727E-02
 cg2d: Sum(rhs),rhsMax =   1.88373525111807E-10  1.76873935815121E-02
 cg2d: Sum(rhs),rhsMax =   1.88413853963176E-10  1.76883811149159E-02
 cg2d: Sum(rhs),rhsMax =   1.88451143579016E-10  1.76893689031337E-02
 cg2d: Sum(rhs),rhsMax =   1.88474347240231E-10  1.76903566550703E-02
 cg2d: Sum(rhs),rhsMax =   1.88519963528755E-10  1.76913440851308E-02
 cg2d: Sum(rhs),rhsMax =   1.88553103686040E-10  1.76923309048714E-02
 cg2d: Sum(rhs),rhsMax =   1.88591142702421E-10  1.76933168342825E-02
 cg2d: Sum(rhs),rhsMax =   1.88622617525169E-10  1.76943016112599E-02
 cg2d: Sum(rhs),rhsMax =   1.88646265275594E-10  1.76952849536246E-02
 Computing Diagnostic #    26 "THETA   " (list#  1) Parms "SMR     MR      ", Count=     144
 Computing Diagnostic #    27 "SALT    " (list#  1) Parms "SMR     MR      ", Count=     144
 Computing Diagnostic #    30 "UVEL    " (list#  1) Parms "UUR     MR      ", Count=     144
             Vector  Mate for "UVEL    " :  Diagnostic #     31 "VVEL    " exists
 Computing Diagnostic #    32 "WVEL    " (list#  1) Parms "WM      LR      ", Count=     144
 Computing Diagnostic #    31 "VVEL    " (list#  1) Parms "VVR     MR      ", Count=     144
             Vector  Mate for "VVEL    " :  Diagnostic #     30 "UVEL    " exists
 Computing Diagnostic #   197 "BRGfwFlx" (list#  2) Parms "SM      MR      ", Count=     144
 Computing Diagnostic #   198 "BRGhtFlx" (list#  2) Parms "SM      MR      ", Count=     144
 Computing Diagnostic #   199 "BRGmltRt" (list#  2) Parms "SM      MR      ", Count=     144
 Computing Diagnostic #   201 "BRG_TauX" (list#  2) Parms "UU      MR      ", Count=    1728
 Computing Diagnostic #   202 "BRG_TauY" (list#  2) Parms "VV      MR      ", Count=    1728
 Computing Diagnostic #   203 "BRGhFacC" (list#  2) Parms "SM      MR      ", Count=    1728
 cg2d: Sum(rhs),rhsMax =   1.88671481216041E-10  1.76962665796681E-02
 cg2d: Sum(rhs),rhsMax =   1.88710297388539E-10  1.76972462868286E-02
 cg2d: Sum(rhs),rhsMax =   1.88743534690339E-10  1.76982238446884E-02
 cg2d: Sum(rhs),rhsMax =   1.88776966281168E-10  1.76991990327851E-02
 cg2d: Sum(rhs),rhsMax =   1.88815046930912E-10  1.77001716535603E-02
 cg2d: Sum(rhs),rhsMax =   1.88831103531406E-10  1.77011415312844E-02
 cg2d: Sum(rhs),rhsMax =   1.88861704053522E-10  1.77021085091858E-02
 cg2d: Sum(rhs),rhsMax =   1.88905321940602E-10  1.77030724526363E-02
 cg2d: Sum(rhs),rhsMax =   1.88924390021050E-10  1.77040332498436E-02
 cg2d: Sum(rhs),rhsMax =   1.88940099676849E-10  1.77049908133921E-02
 cg2d: Sum(rhs),rhsMax =   1.88972823500499E-10  1.77059450805096E-02
 cg2d: Sum(rhs),rhsMax =   1.89007531847807E-10  1.77068960128624E-02
 cg2d: Sum(rhs),rhsMax =   1.89033844133490E-10  1.77078435974798E-02
 cg2d: Sum(rhs),rhsMax =   1.89058962929423E-10  1.77087878492271E-02
 cg2d: Sum(rhs),rhsMax =   1.89098695035916E-10  1.77097288099242E-02
 cg2d: Sum(rhs),rhsMax =   1.89142507212026E-10  1.77106665431871E-02
 cg2d: Sum(rhs),rhsMax =   1.89167903563714E-10  1.77116011632079E-02
 cg2d: Sum(rhs),rhsMax =   1.89200183298155E-10  1.77125327459037E-02
 cg2d: Sum(rhs),rhsMax =   1.89230145442032E-10  1.77134614428189E-02
 cg2d: Sum(rhs),rhsMax =   1.89268573036472E-10  1.77143874408762E-02
 cg2d: Sum(rhs),rhsMax =   1.89315882415109E-10  1.77153109215279E-02
 cg2d: Sum(rhs),rhsMax =   1.89352700186163E-10  1.77162320923355E-02
 cg2d: Sum(rhs),rhsMax =   1.89394042116042E-10  1.77171511816818E-02
 cg2d: Sum(rhs),rhsMax =   1.89441851095040E-10  1.77180684423874E-02
 cg2d: Sum(rhs),rhsMax =   1.89478127632370E-10  1.77189841552309E-02
 cg2d: Sum(rhs),rhsMax =   1.89517512794168E-10  1.77198985277089E-02
 cg2d: Sum(rhs),rhsMax =   1.89541465855925E-10  1.77208119435311E-02
 cg2d: Sum(rhs),rhsMax =   1.89579824061425E-10  1.77217247152082E-02
 cg2d: Sum(rhs),rhsMax =   1.89624163593471E-10  1.77226371442594E-02
 cg2d: Sum(rhs),rhsMax =   1.89656457205700E-10  1.77235495543588E-02
 cg2d: Sum(rhs),rhsMax =   1.89687307527997E-10  1.77244622826835E-02
 cg2d: Sum(rhs),rhsMax =   1.89711413245419E-10  1.77253756730208E-02
 cg2d: Sum(rhs),rhsMax =   1.89743679102072E-10  1.77262900704816E-02
 cg2d: Sum(rhs),rhsMax =   1.89772822456469E-10  1.77272058154804E-02
 cg2d: Sum(rhs),rhsMax =   1.89816926066122E-10  1.77281232498102E-02
 cg2d: Sum(rhs),rhsMax =   1.89849219678351E-10  1.77290427098034E-02
 cg2d: Sum(rhs),rhsMax =   1.89880070000648E-10  1.77299645257377E-02
 cg2d: Sum(rhs),rhsMax =   1.89901816494142E-10  1.77308890165119E-02
 cg2d: Sum(rhs),rhsMax =   1.89925297711113E-10  1.77318164919735E-02
 cg2d: Sum(rhs),rhsMax =   1.89955093321537E-10  1.77327472495879E-02
 cg2d: Sum(rhs),rhsMax =   1.89987636733946E-10  1.77336815701387E-02
 cg2d: Sum(rhs),rhsMax =   1.90015406187349E-10  1.77346197177290E-02
 cg2d: Sum(rhs),rhsMax =   1.90050974957501E-10  1.77355619357266E-02
 cg2d: Sum(rhs),rhsMax =   1.90075039041560E-10  1.77365084407968E-02
 cg2d: Sum(rhs),rhsMax =   1.90107540820605E-10  1.77374594323568E-02
 cg2d: Sum(rhs),rhsMax =   1.90137433575543E-10  1.77384150884422E-02
 cg2d: Sum(rhs),rhsMax =   1.90175486469712E-10  1.77393755610271E-02
 cg2d: Sum(rhs),rhsMax =   1.90197579907903E-10  1.77403409760331E-02
 cg2d: Sum(rhs),rhsMax =   1.90235202590650E-10  1.77413114312559E-02
 cg2d: Sum(rhs),rhsMax =   1.90271520761343E-10  1.77422869956456E-02
 cg2d: Sum(rhs),rhsMax =   1.90299109803505E-10  1.77432677172842E-02
 cg2d: Sum(rhs),rhsMax =   1.90337495764581E-10  1.77442535937902E-02
 cg2d: Sum(rhs),rhsMax =   1.90364890517714E-10  1.77452446074759E-02
 cg2d: Sum(rhs),rhsMax =   1.90385637810486E-10  1.77462407150520E-02
 cg2d: Sum(rhs),rhsMax =   1.90427451585151E-10  1.77472418394795E-02
 cg2d: Sum(rhs),rhsMax =   1.90451376891332E-10  1.77481483163408E-02
 cg2d: Sum(rhs),rhsMax =   1.90481130868392E-10  1.77490194984471E-02
 cg2d: Sum(rhs),rhsMax =   1.90508456232585E-10  1.77498974716538E-02
 cg2d: Sum(rhs),rhsMax =   1.90542345790412E-10  1.77507826545983E-02
 cg2d: Sum(rhs),rhsMax =   1.90579899084220E-10  1.77516757300445E-02
 cg2d: Sum(rhs),rhsMax =   1.90613080874869E-10  1.77525774552051E-02
 cg2d: Sum(rhs),rhsMax =   1.90634535934819E-10  1.77534884245119E-02
 cg2d: Sum(rhs),rhsMax =   1.90669133259824E-10  1.77544091574318E-02
 cg2d: Sum(rhs),rhsMax =   1.90705562452820E-10  1.77553401194714E-02
 cg2d: Sum(rhs),rhsMax =   1.90737564631505E-10  1.77562817065479E-02
 cg2d: Sum(rhs),rhsMax =   1.90781210274160E-10  1.77572342553255E-02
 cg2d: Sum(rhs),rhsMax =   1.90818708056817E-10  1.77581980302165E-02
 cg2d: Sum(rhs),rhsMax =   1.90861701443445E-10  1.77591732267087E-02
 cg2d: Sum(rhs),rhsMax =   1.90901489061091E-10  1.77601599760519E-02
 cg2d: Sum(rhs),rhsMax =   1.90940568911557E-10  1.77611583338817E-02
 cg2d: Sum(rhs),rhsMax =   1.90972751501484E-10  1.77621682907264E-02
 cg2d: Sum(rhs),rhsMax =   1.91012913819399E-10  1.77631897689019E-02
 cg2d: Sum(rhs),rhsMax =   1.91031482299486E-10  1.77642226180738E-02
 cg2d: Sum(rhs),rhsMax =   1.91065746557584E-10  1.77652666292324E-02
 cg2d: Sum(rhs),rhsMax =   1.91087881629137E-10  1.77663215335513E-02
 cg2d: Sum(rhs),rhsMax =   1.91132901172786E-10  1.77673870135856E-02
 cg2d: Sum(rhs),rhsMax =   1.91162460860816E-10  1.77684627006267E-02
 cg2d: Sum(rhs),rhsMax =   1.91188481712956E-10  1.77695482278366E-02
 cg2d: Sum(rhs),rhsMax =   1.91225382750737E-10  1.77706443608295E-02
 cg2d: Sum(rhs),rhsMax =   1.91244686753578E-10  1.77717513280696E-02
 cg2d: Sum(rhs),rhsMax =   1.91282170658447E-10  1.77728685308467E-02
 cg2d: Sum(rhs),rhsMax =   1.91315990827334E-10  1.77739953232441E-02
 cg2d: Sum(rhs),rhsMax =   1.91357207857124E-10  1.77751309997862E-02
 cg2d: Sum(rhs),rhsMax =   1.91389473713777E-10  1.77762748015484E-02
 cg2d: Sum(rhs),rhsMax =   1.91421184458918E-10  1.77774259092835E-02
 cg2d: Sum(rhs),rhsMax =   1.91450924558190E-10  1.77785834641653E-02
 cg2d: Sum(rhs),rhsMax =   1.91480678535250E-10  1.77797465676166E-02
 cg2d: Sum(rhs),rhsMax =   1.91505311608609E-10  1.77809142783647E-02
 cg2d: Sum(rhs),rhsMax =   1.91543572669595E-10  1.77820856234474E-02
 cg2d: Sum(rhs),rhsMax =   1.91583096609271E-10  1.77832596039459E-02
 cg2d: Sum(rhs),rhsMax =   1.91603691246378E-10  1.77844352048131E-02
 cg2d: Sum(rhs),rhsMax =   1.91622481771070E-10  1.77856113928524E-02
 cg2d: Sum(rhs),rhsMax =   1.91651902681222E-10  1.77867871291224E-02
 cg2d: Sum(rhs),rhsMax =   1.91686694295257E-10  1.77879614770121E-02
 cg2d: Sum(rhs),rhsMax =   1.91731186482968E-10  1.77891333563153E-02
 cg2d: Sum(rhs),rhsMax =   1.91760746170999E-10  1.77903015726145E-02
 cg2d: Sum(rhs),rhsMax =   1.91787377645802E-10  1.77914651104193E-02
 cg2d: Sum(rhs),rhsMax =   1.91820739847692E-10  1.77926230436431E-02
 cg2d: Sum(rhs),rhsMax =   1.91857169040688E-10  1.77937744176791E-02
 cg2d: Sum(rhs),rhsMax =   1.91879442890119E-10  1.77949182726224E-02
 cg2d: Sum(rhs),rhsMax =   1.91909932389933E-10  1.77960536910037E-02
 cg2d: Sum(rhs),rhsMax =   1.91935148330380E-10  1.77971798055003E-02
 cg2d: Sum(rhs),rhsMax =   1.91962071238727E-10  1.77982957883613E-02
 cg2d: Sum(rhs),rhsMax =   1.91980847885631E-10  1.77994008503531E-02
 cg2d: Sum(rhs),rhsMax =   1.92012530875196E-10  1.78004942445813E-02
 cg2d: Sum(rhs),rhsMax =   1.92043062008374E-10  1.78015752753187E-02
 cg2d: Sum(rhs),rhsMax =   1.92075896854327E-10  1.78026432970864E-02
 cg2d: Sum(rhs),rhsMax =   1.92109231300641E-10  1.78036977299026E-02
 cg2d: Sum(rhs),rhsMax =   1.92142718402621E-10  1.78047380537755E-02
 cg2d: Sum(rhs),rhsMax =   1.92180757419003E-10  1.78057638109619E-02
 cg2d: Sum(rhs),rhsMax =   1.92223931216873E-10  1.78067746109192E-02
 cg2d: Sum(rhs),rhsMax =   1.92260138365263E-10  1.78077701303220E-02
 cg2d: Sum(rhs),rhsMax =   1.92284022038081E-10  1.78087501096189E-02
 cg2d: Sum(rhs),rhsMax =   1.92313789892928E-10  1.78097143554097E-02
 cg2d: Sum(rhs),rhsMax =   1.92345278593464E-10  1.78106627521156E-02
 cg2d: Sum(rhs),rhsMax =   1.92390325892688E-10  1.78115952410297E-02
 cg2d: Sum(rhs),rhsMax =   1.92412544230969E-10  1.78125117862925E-02
 cg2d: Sum(rhs),rhsMax =   1.92445295810195E-10  1.78134124904437E-02
 cg2d: Sum(rhs),rhsMax =   1.92474952642741E-10  1.78142974913417E-02
 cg2d: Sum(rhs),rhsMax =   1.92502708218356E-10  1.78151669856667E-02
 cg2d: Sum(rhs),rhsMax =   1.92524107767156E-10  1.78160212266012E-02
 cg2d: Sum(rhs),rhsMax =   1.92562299439203E-10  1.78168605225097E-02
 cg2d: Sum(rhs),rhsMax =   1.92588736624977E-10  1.78176852345050E-02
 cg2d: Sum(rhs),rhsMax =   1.92618712646642E-10  1.78184957796007E-02
 cg2d: Sum(rhs),rhsMax =   1.92652366282076E-10  1.78192926238091E-02
 cg2d: Sum(rhs),rhsMax =   1.92688878741798E-10  1.78200762764516E-02
 cg2d: Sum(rhs),rhsMax =   1.92718632718858E-10  1.78208472923540E-02
 cg2d: Sum(rhs),rhsMax =   1.92744861737815E-10  1.78216062643674E-02
 cg2d: Sum(rhs),rhsMax =   1.92795404641011E-10  1.78223538188421E-02
 cg2d: Sum(rhs),rhsMax =   1.92825908018612E-10  1.78230906156778E-02
 cg2d: Sum(rhs),rhsMax =   1.92855093006372E-10  1.78238173404157E-02
 cg2d: Sum(rhs),rhsMax =   1.92887511518691E-10  1.78245347006098E-02
 cg2d: Sum(rhs),rhsMax =   1.92912685825775E-10  1.78252434234228E-02
 cg2d: Sum(rhs),rhsMax =   1.92949933808251E-10  1.78259442501831E-02
 cg2d: Sum(rhs),rhsMax =   1.92982713143053E-10  1.78266379296280E-02
 cg2d: Sum(rhs),rhsMax =   1.93014451643769E-10  1.78273252209139E-02
 cg2d: Sum(rhs),rhsMax =   1.93053115160602E-10  1.78280068813600E-02
 cg2d: Sum(rhs),rhsMax =   1.93072016707596E-10  1.78286836663584E-02
 cg2d: Sum(rhs),rhsMax =   1.93106627910389E-10  1.78293563258337E-02
 cg2d: Sum(rhs),rhsMax =   1.93138324777742E-10  1.78300255989368E-02
 cg2d: Sum(rhs),rhsMax =   1.93168009365863E-10  1.78306922119153E-02
 cg2d: Sum(rhs),rhsMax =   1.93212001953214E-10  1.78313568633418E-02
 cg2d: Sum(rhs),rhsMax =   1.93244420465533E-10  1.78320202665474E-02
 cg2d: Sum(rhs),rhsMax =   1.93263877124039E-10  1.78326830814396E-02
 Computing Diagnostic #    26 "THETA   " (list#  1) Parms "SMR     MR      ", Count=     144
 Computing Diagnostic #    27 "SALT    " (list#  1) Parms "SMR     MR      ", Count=     144
 Computing Diagnostic #    30 "UVEL    " (list#  1) Parms "UUR     MR      ", Count=     144
             Vector  Mate for "UVEL    " :  Diagnostic #     31 "VVEL    " exists
 Computing Diagnostic #    32 "WVEL    " (list#  1) Parms "WM      LR      ", Count=     144
 Computing Diagnostic #    31 "VVEL    " (list#  1) Parms "VVR     MR      ", Count=     144
             Vector  Mate for "VVEL    " :  Diagnostic #     30 "UVEL    " exists
 Computing Diagnostic #   197 "BRGfwFlx" (list#  2) Parms "SM      MR      ", Count=     144
 Computing Diagnostic #   198 "BRGhtFlx" (list#  2) Parms "SM      MR      ", Count=     144
 Computing Diagnostic #   199 "BRGmltRt" (list#  2) Parms "SM      MR      ", Count=     144
 Computing Diagnostic #   201 "BRG_TauX" (list#  2) Parms "UU      MR      ", Count=    1728
 Computing Diagnostic #   202 "BRG_TauY" (list#  2) Parms "VV      MR      ", Count=    1728
 Computing Diagnostic #   203 "BRGhFacC" (list#  2) Parms "SM      MR      ", Count=    1728
 cg2d: Sum(rhs),rhsMax =   1.93310839557981E-10  1.78333458998232E-02
 cg2d: Sum(rhs),rhsMax =   1.93358995481674E-10  1.78340093480991E-02
 cg2d: Sum(rhs),rhsMax =   1.93380575441715E-10  1.78346740188336E-02
 cg2d: Sum(rhs),rhsMax =   1.93421251237780E-10  1.78353404434880E-02
 cg2d: Sum(rhs),rhsMax =   1.93459026576193E-10  1.78360091224421E-02
 cg2d: Sum(rhs),rhsMax =   1.93498203571174E-10  1.78366805215465E-02
 cg2d: Sum(rhs),rhsMax =   1.93527624481327E-10  1.78373550672006E-02
 cg2d: Sum(rhs),rhsMax =   1.93566065953554E-10  1.78380331400744E-02
 cg2d: Sum(rhs),rhsMax =   1.93600649400771E-10  1.78387150761601E-02
 cg2d: Sum(rhs),rhsMax =   1.93636037759681E-10  1.78394011776333E-02
 cg2d: Sum(rhs),rhsMax =   1.93668456272000E-10  1.78400916745888E-02
 cg2d: Sum(rhs),rhsMax =   1.93705176898540E-10  1.78407867682607E-02
 cg2d: Sum(rhs),rhsMax =   1.93740759546479E-10  1.78414866222770E-02
 cg2d: Sum(rhs),rhsMax =   1.93766849787558E-10  1.78421913518152E-02
 cg2d: Sum(rhs),rhsMax =   1.93795146596898E-10  1.78429010262866E-02
 cg2d: Sum(rhs),rhsMax =   1.93829036154725E-10  1.78436156761673E-02
 cg2d: Sum(rhs),rhsMax =   1.93855750896255E-10  1.78443352858238E-02
 cg2d: Sum(rhs),rhsMax =   1.93893609501394E-10  1.78450598016784E-02
 cg2d: Sum(rhs),rhsMax =   1.93932758740800E-10  1.78457891298560E-02
 cg2d: Sum(rhs),rhsMax =   1.93970950412847E-10  1.78465231799097E-02
 cg2d: Sum(rhs),rhsMax =   1.93996499420201E-10  1.78472617475002E-02
 cg2d: Sum(rhs),rhsMax =   1.94031110622994E-10  1.78480046283413E-02
 cg2d: Sum(rhs),rhsMax =   1.94065305492153E-10  1.78487515880100E-02
 cg2d: Sum(rhs),rhsMax =   1.94099472605735E-10  1.78495023630521E-02
 cg2d: Sum(rhs),rhsMax =   1.94133348285774E-10  1.78502566798064E-02
 cg2d: Sum(rhs),rhsMax =   1.94162019795385E-10  1.78510142445326E-02
 cg2d: Sum(rhs),rhsMax =   1.94190385993664E-10  1.78517747195345E-02
 cg2d: Sum(rhs),rhsMax =   1.94224275551491E-10  1.78525377529903E-02
 cg2d: Sum(rhs),rhsMax =   1.94251073559748E-10  1.78533029788472E-02
 cg2d: Sum(rhs),rhsMax =   1.94292040789357E-10  1.78540700144694E-02
 cg2d: Sum(rhs),rhsMax =   1.94331661873548E-10  1.78548384724203E-02
 cg2d: Sum(rhs),rhsMax =   1.94373225848032E-10  1.78556079540072E-02
 cg2d: Sum(rhs),rhsMax =   1.94398316888389E-10  1.78563780608450E-02
 cg2d: Sum(rhs),rhsMax =   1.94444099710367E-10  1.78571483923815E-02
 cg2d: Sum(rhs),rhsMax =   1.94484831017583E-10  1.78579185513125E-02
 cg2d: Sum(rhs),rhsMax =   1.94527671748546E-10  1.78586881440372E-02
 cg2d: Sum(rhs),rhsMax =   1.94572011280592E-10  1.78594567877703E-02
 cg2d: Sum(rhs),rhsMax =   1.94606900039140E-10  1.78602240246135E-02
 cg2d: Sum(rhs),rhsMax =   1.94647978291052E-10  1.78609894152293E-02
 cg2d: Sum(rhs),rhsMax =   1.94672153397413E-10  1.78617526154105E-02
 cg2d: Sum(rhs),rhsMax =   1.94710178536006E-10  1.78625132989767E-02
 cg2d: Sum(rhs),rhsMax =   1.94741528458664E-10  1.78632711758342E-02
 cg2d: Sum(rhs),rhsMax =   1.94763108418705E-10  1.78640259509858E-02
 cg2d: Sum(rhs),rhsMax =   1.94805713227275E-10  1.78647773632535E-02
 cg2d: Sum(rhs),rhsMax =   1.94828694843885E-10  1.78655251776426E-02
 cg2d: Sum(rhs),rhsMax =   1.94867927350018E-10  1.78662691890945E-02
 cg2d: Sum(rhs),rhsMax =   1.94894836380577E-10  1.78670092242008E-02
 cg2d: Sum(rhs),rhsMax =   1.94941215947431E-10  1.78677451384773E-02
 cg2d: Sum(rhs),rhsMax =   1.94973467926296E-10  1.78684768180856E-02
 cg2d: Sum(rhs),rhsMax =   1.95009910997079E-10  1.78692041833523E-02
 cg2d: Sum(rhs),rhsMax =   1.95046617745831E-10  1.78699271856587E-02
 cg2d: Sum(rhs),rhsMax =   1.95085239629300E-10  1.78706458118222E-02
 cg2d: Sum(rhs),rhsMax =   1.95122695778593E-10  1.78713600839120E-02
 cg2d: Sum(rhs),rhsMax =   1.95154281623644E-10  1.78720700496675E-02
 cg2d: Sum(rhs),rhsMax =   1.95188920582012E-10  1.78727757968364E-02
 cg2d: Sum(rhs),rhsMax =   1.95214525100518E-10  1.78734774446501E-02
 cg2d: Sum(rhs),rhsMax =   1.95250079992881E-10  1.78741751451988E-02
 cg2d: Sum(rhs),rhsMax =   1.95286051218879E-10  1.78748690863690E-02
 cg2d: Sum(rhs),rhsMax =   1.95313445972012E-10  1.78755594808722E-02
 cg2d: Sum(rhs),rhsMax =   1.95346960829568E-10  1.78762465809600E-02
 cg2d: Sum(rhs),rhsMax =   1.95383209611322E-10  1.78769306563489E-02
 cg2d: Sum(rhs),rhsMax =   1.95410299053123E-10  1.78776120096770E-02
 cg2d: Sum(rhs),rhsMax =   1.95441329786661E-10  1.78782909715051E-02
 cg2d: Sum(rhs),rhsMax =   1.95492344534642E-10  1.78789678945493E-02
 cg2d: Sum(rhs),rhsMax =   1.95515423295767E-10  1.78796431548622E-02
 cg2d: Sum(rhs),rhsMax =   1.95554100690387E-10  1.78803171476620E-02
 cg2d: Sum(rhs),rhsMax =   1.95580870943068E-10  1.78809902922460E-02
 cg2d: Sum(rhs),rhsMax =   1.95609556330467E-10  1.78816630228967E-02
 cg2d: Sum(rhs),rhsMax =   1.95652313794703E-10  1.78823357903061E-02
 cg2d: Sum(rhs),rhsMax =   1.95683982906480E-10  1.78830090457288E-02
 cg2d: Sum(rhs),rhsMax =   1.95705687766612E-10  1.78837833053106E-02
 cg2d: Sum(rhs),rhsMax =   1.95722230089679E-10  1.78846792970440E-02
 cg2d: Sum(rhs),rhsMax =   1.95753024900824E-10  1.78855804096276E-02
 cg2d: Sum(rhs),rhsMax =   1.95789828794091E-10  1.78864818039668E-02
 cg2d: Sum(rhs),rhsMax =   1.95826008186906E-10  1.78873858166111E-02
 cg2d: Sum(rhs),rhsMax =   1.95855692775027E-10  1.78882930817683E-02
 cg2d: Sum(rhs),rhsMax =   1.95881227904593E-10  1.78892039755253E-02
 cg2d: Sum(rhs),rhsMax =   1.95907942646123E-10  1.78901188878175E-02
 cg2d: Sum(rhs),rhsMax =   1.95946925352075E-10  1.78910382052468E-02
 cg2d: Sum(rhs),rhsMax =   1.95962551741147E-10  1.78919623130162E-02
 cg2d: Sum(rhs),rhsMax =   1.95997593155361E-10  1.78928915864561E-02
 cg2d: Sum(rhs),rhsMax =   1.96035909727499E-10  1.78938263920922E-02
 cg2d: Sum(rhs),rhsMax =   1.96065955138103E-10  1.78947670874821E-02
 cg2d: Sum(rhs),rhsMax =   1.96107852179495E-10  1.78957140154068E-02
 cg2d: Sum(rhs),rhsMax =   1.96142171948743E-10  1.78966675060126E-02
 cg2d: Sum(rhs),rhsMax =   1.96175603539572E-10  1.78976278717201E-02
 cg2d: Sum(rhs),rhsMax =   1.96209035130401E-10  1.78985954077464E-02
 cg2d: Sum(rhs),rhsMax =   1.96242661010260E-10  1.78995703918375E-02
 cg2d: Sum(rhs),rhsMax =   1.96265753649172E-10  1.79005530804917E-02
 cg2d: Sum(rhs),rhsMax =   1.96299115851062E-10  1.79015437110386E-02
 cg2d: Sum(rhs),rhsMax =   1.96337168745231E-10  1.79025424974876E-02
 cg2d: Sum(rhs),rhsMax =   1.96357957671367E-10  1.79035496348339E-02
 cg2d: Sum(rhs),rhsMax =   1.96399674301517E-10  1.79045652896066E-02
 cg2d: Sum(rhs),rhsMax =   1.96425042897630E-10  1.79055896107590E-02
 cg2d: Sum(rhs),rhsMax =   1.96451646616858E-10  1.79066227191100E-02
 cg2d: Sum(rhs),rhsMax =   1.96480234859742E-10  1.79076647148556E-02
 cg2d: Sum(rhs),rhsMax =   1.96513735839510E-10  1.79087156719339E-02
 cg2d: Sum(rhs),rhsMax =   1.96549346243025E-10  1.79097756330459E-02
 cg2d: Sum(rhs),rhsMax =   1.96580127176382E-10  1.79108446281621E-02
 cg2d: Sum(rhs),rhsMax =   1.96612837122245E-10  1.79119226509665E-02
 cg2d: Sum(rhs),rhsMax =   1.96635888127794E-10  1.79130096770153E-02
 cg2d: Sum(rhs),rhsMax =   1.96672123031760E-10  1.79141056584527E-02
 cg2d: Sum(rhs),rhsMax =   1.96698754506563E-10  1.79152105220277E-02
 cg2d: Sum(rhs),rhsMax =   1.96722263479110E-10  1.79163241718575E-02
 cg2d: Sum(rhs),rhsMax =   1.96750102321452E-10  1.79174464905599E-02
 cg2d: Sum(rhs),rhsMax =   1.96776997474224E-10  1.79185773383362E-02
 cg2d: Sum(rhs),rhsMax =   1.96805433061442E-10  1.79197165538600E-02
 cg2d: Sum(rhs),rhsMax =   1.96832869447938E-10  1.79208639553998E-02
 cg2d: Sum(rhs),rhsMax =   1.96853880418679E-10  1.79220193411092E-02
 cg2d: Sum(rhs),rhsMax =   1.96885618919396E-10  1.79231824915527E-02
 cg2d: Sum(rhs),rhsMax =   1.96917634975868E-10  1.79243531700318E-02
 cg2d: Sum(rhs),rhsMax =   1.96951011055546E-10  1.79255311197479E-02
 cg2d: Sum(rhs),rhsMax =   1.96982805067414E-10  1.79267160695810E-02
 cg2d: Sum(rhs),rhsMax =   1.97003885427094E-10  1.79279077348561E-02
 cg2d: Sum(rhs),rhsMax =   1.97024924153411E-10  1.79291058140022E-02
 cg2d: Sum(rhs),rhsMax =   1.97060895379408E-10  1.79303099918015E-02
 cg2d: Sum(rhs),rhsMax =   1.97074925822882E-10  1.79315199397900E-02
 cg2d: Sum(rhs),rhsMax =   1.97112270949873E-10  1.79327353304161E-02
 cg2d: Sum(rhs),rhsMax =   1.97146035607609E-10  1.79339558089280E-02
 cg2d: Sum(rhs),rhsMax =   1.97165020421330E-10  1.79351810159720E-02
 cg2d: Sum(rhs),rhsMax =   1.97198229967555E-10  1.79364105877320E-02
 cg2d: Sum(rhs),rhsMax =   1.97225374920507E-10  1.79376441525185E-02
 cg2d: Sum(rhs),rhsMax =   1.97255906053684E-10  1.79388813300969E-02
 cg2d: Sum(rhs),rhsMax =   1.97272878588173E-10  1.79401217342289E-02
 cg2d: Sum(rhs),rhsMax =   1.97297858606227E-10  1.79413649321070E-02
 cg2d: Sum(rhs),rhsMax =   1.97321547990015E-10  1.79426105703177E-02
 cg2d: Sum(rhs),rhsMax =   1.97343252850146E-10  1.79438582533750E-02
 cg2d: Sum(rhs),rhsMax =   1.97373131727296E-10  1.79451075808233E-02
 cg2d: Sum(rhs),rhsMax =   1.97408728253023E-10  1.79463581513527E-02
 cg2d: Sum(rhs),rhsMax =   1.97444699479021E-10  1.79476095611066E-02
 cg2d: Sum(rhs),rhsMax =   1.97464475326647E-10  1.79488614089061E-02
 cg2d: Sum(rhs),rhsMax =   1.97499988585648E-10  1.79501132902340E-02
 cg2d: Sum(rhs),rhsMax =   1.97530117262978E-10  1.79513648038554E-02
 cg2d: Sum(rhs),rhsMax =   1.97558414072319E-10  1.79526155493934E-02
 cg2d: Sum(rhs),rhsMax =   1.97603544638270E-10  1.79538651281975E-02
 cg2d: Sum(rhs),rhsMax =   1.97632257781244E-10  1.79551131445185E-02
 cg2d: Sum(rhs),rhsMax =   1.97659721923316E-10  1.79563592046699E-02
 cg2d: Sum(rhs),rhsMax =   1.97689864478434E-10  1.79576029153005E-02
 cg2d: Sum(rhs),rhsMax =   1.97716357175359E-10  1.79588438982585E-02
 cg2d: Sum(rhs),rhsMax =   1.97748317720681E-10  1.79600817727690E-02
 cg2d: Sum(rhs),rhsMax =   1.97762653475486E-10  1.79613161617934E-02
 cg2d: Sum(rhs),rhsMax =   1.97791630296429E-10  1.79625466952400E-02
 cg2d: Sum(rhs),rhsMax =   1.97826297010373E-10  1.79637730076340E-02
 cg2d: Sum(rhs),rhsMax =   1.97851401928517E-10  1.79649947432729E-02
(PID.TID 0000.0001)      cg2d_init_res =   2.17876129953132E-04
(PID.TID 0000.0001)      cg2d_iters(min,last) =      -1      41
(PID.TID 0000.0001)      cg2d_last_res =   5.62810136384560E-14
(PID.TID 0000.0001) // =======================================================
(PID.TID 0000.0001) // Begin MONITOR dynamic field statistics
(PID.TID 0000.0001) // =======================================================
(PID.TID 0000.0001) %MON time_tsnumber                =                  6048
(PID.TID 0000.0001) %MON time_secondsf                =   1.5120000000000E+05
(PID.TID 0000.0001) %MON dynstat_eta_max              =   5.5659524089966E-03
(PID.TID 0000.0001) %MON dynstat_eta_min              =  -2.6736477139663E-03
(PID.TID 0000.0001) %MON dynstat_eta_mean             =  -2.3807753546007E-14
(PID.TID 0000.0001) %MON dynstat_eta_sd               =   2.7809396588903E-03
(PID.TID 0000.0001) %MON dynstat_eta_del2             =   2.3727868351454E-05
(PID.TID 0000.0001) %MON dynstat_uvel_max             =   4.8222169387793E-02
(PID.TID 0000.0001) %MON dynstat_uvel_min             =  -2.7538545801130E-02
(PID.TID 0000.0001) %MON dynstat_uvel_mean            =  -1.4663724661054E-08
(PID.TID 0000.0001) %MON dynstat_uvel_sd              =   5.7057965434730E-03
(PID.TID 0000.0001) %MON dynstat_uvel_del2            =   1.0741848895385E-04
(PID.TID 0000.0001) %MON dynstat_vvel_max             =   1.9315525491943E-02
(PID.TID 0000.0001) %MON dynstat_vvel_min             =  -3.2069575720775E-02
(PID.TID 0000.0001) %MON dynstat_vvel_mean            =  -8.0919749612210E-03
(PID.TID 0000.0001) %MON dynstat_vvel_sd              =   1.1201380438290E-02
(PID.TID 0000.0001) %MON dynstat_vvel_del2            =   9.4544815106349E-05
(PID.TID 0000.0001) %MON dynstat_wvel_max             =   1.4370184712290E-03
(PID.TID 0000.0001) %MON dynstat_wvel_min             =  -1.1983855867816E-03
(PID.TID 0000.0001) %MON dynstat_wvel_mean            =  -1.7644667637320E-20
(PID.TID 0000.0001) %MON dynstat_wvel_sd              =   1.3337411797734E-04
(PID.TID 0000.0001) %MON dynstat_wvel_del2            =   6.5241677342506E-06
(PID.TID 0000.0001) %MON dynstat_theta_max            =   2.6931451612903E+00
(PID.TID 0000.0001) %MON dynstat_theta_min            =   3.8386080627491E-02
(PID.TID 0000.0001) %MON dynstat_theta_mean           =   2.2432111324106E+00
(PID.TID 0000.0001) %MON dynstat_theta_sd             =   4.6006848323931E-01
(PID.TID 0000.0001) %MON dynstat_theta_del2           =   1.3742095140943E-03
(PID.TID 0000.0001) %MON dynstat_salt_max             =   3.4699999999999E+01
(PID.TID 0000.0001) %MON dynstat_salt_min             =   3.3050810680060E+01
(PID.TID 0000.0001) %MON dynstat_salt_mean            =   3.4365364834333E+01
(PID.TID 0000.0001) %MON dynstat_salt_sd              =   3.1975268941163E-01
(PID.TID 0000.0001) %MON dynstat_salt_del2            =   1.9859209061143E-04
(PID.TID 0000.0001) %MON advcfl_uvel_max              =   2.4111084693896E-03
(PID.TID 0000.0001) %MON advcfl_vvel_max              =   1.6034787860388E-03
(PID.TID 0000.0001) %MON advcfl_wvel_max              =   7.0325628517877E-04
(PID.TID 0000.0001) %MON advcfl_W_hf_max              =   1.9661839059860E-03
(PID.TID 0000.0001) %MON pe_b_mean                    =   6.4524968855208E-08
(PID.TID 0000.0001) %MON ke_max                       =   1.0897741920345E-03
(PID.TID 0000.0001) %MON ke_mean                      =   1.0179668253098E-04
(PID.TID 0000.0001) %MON ke_vol                       =   3.2921708585402E+10
(PID.TID 0000.0001) // =======================================================
(PID.TID 0000.0001) // End MONITOR dynamic field statistics
(PID.TID 0000.0001) // =======================================================
(PID.TID 0000.0001) // =======================================================
(PID.TID 0000.0001) // Begin OBCS MONITOR field statistics
(PID.TID 0000.0001) // =======================================================
(PID.TID 0000.0001) %MON obc_E_uVel_max               =   0.0000000000000E+00
(PID.TID 0000.0001) %MON obc_E_uVel_min               =   0.0000000000000E+00
(PID.TID 0000.0001) %MON obc_E_uVel_mean              =   0.0000000000000E+00
(PID.TID 0000.0001) %MON obc_E_uVel_sd                =   0.0000000000000E+00
(PID.TID 0000.0001) %MON obc_E_uVel_Int               =   0.0000000000000E+00
(PID.TID 0000.0001) %MON obc_N_vVel_max               =  -3.6115799844846E-05
(PID.TID 0000.0001) %MON obc_N_vVel_min               =  -3.0000000000000E-02
(PID.TID 0000.0001) %MON obc_N_vVel_mean              =  -1.3225455303334E-02
(PID.TID 0000.0001) %MON obc_N_vVel_sd                =   1.1350864292742E-02
(PID.TID 0000.0001) %MON obc_N_vVel_Int               =  -5.9514548865004E+04
(PID.TID 0000.0001) %MON obc_S_vVel_max               =  -3.6115799844846E-05
(PID.TID 0000.0001) %MON obc_S_vVel_min               =  -3.0000000000000E-02
(PID.TID 0000.0001) %MON obc_S_vVel_mean              =  -1.3225455303334E-02
(PID.TID 0000.0001) %MON obc_S_vVel_sd                =   1.1350864292742E-02
(PID.TID 0000.0001) %MON obc_S_vVel_Int               =  -5.9514548865004E+04
(PID.TID 0000.0001) // =======================================================
(PID.TID 0000.0001) // End OBCS MONITOR field statistics
(PID.TID 0000.0001) // =======================================================
 Computing Diagnostic #    26 "THETA   " (list#  1) Parms "SMR     MR      ", Count=     144
 Computing Diagnostic #    27 "SALT    " (list#  1) Parms "SMR     MR      ", Count=     144
 Computing Diagnostic #    30 "UVEL    " (list#  1) Parms "UUR     MR      ", Count=     144
             Vector  Mate for "UVEL    " :  Diagnostic #     31 "VVEL    " exists
 Computing Diagnostic #    32 "WVEL    " (list#  1) Parms "WM      LR      ", Count=     144
 Computing Diagnostic #    31 "VVEL    " (list#  1) Parms "VVR     MR      ", Count=     144
             Vector  Mate for "VVEL    " :  Diagnostic #     30 "UVEL    " exists
 Computing Diagnostic #   197 "BRGfwFlx" (list#  2) Parms "SM      MR      ", Count=     144
 Computing Diagnostic #   198 "BRGhtFlx" (list#  2) Parms "SM      MR      ", Count=     144
 Computing Diagnostic #   199 "BRGmltRt" (list#  2) Parms "SM      MR      ", Count=     144
 Computing Diagnostic #   201 "BRG_TauX" (list#  2) Parms "UU      MR      ", Count=    1728
 Computing Diagnostic #   202 "BRG_TauY" (list#  2) Parms "VV      MR      ", Count=    1728
 Computing Diagnostic #   203 "BRGhFacC" (list#  2) Parms "SM      MR      ", Count=    1728
 cg2d: Sum(rhs),rhsMax =   1.97889579722776E-10  1.79662115491850E-02
 cg2d: Sum(rhs),rhsMax =   1.97912977673020E-10  1.79674230828557E-02
 cg2d: Sum(rhs),rhsMax =   1.97938443413648E-10  1.79686290051759E-02
 cg2d: Sum(rhs),rhsMax =   1.97977120808268E-10  1.79698289897628E-02
 cg2d: Sum(rhs),rhsMax =   1.98007332752326E-10  1.79710228565909E-02
 cg2d: Sum(rhs),rhsMax =   1.98026595121803E-10  1.79722103622994E-02
 cg2d: Sum(rhs),rhsMax =   1.98064495360306E-10  1.79733912009618E-02
 cg2d: Sum(rhs),rhsMax =   1.98092917069737E-10  1.79745650796395E-02
 cg2d: Sum(rhs),rhsMax =   1.98138297435868E-10  1.79757317088431E-02
 cg2d: Sum(rhs),rhsMax =   1.98175642562859E-10  1.79768908152894E-02
 cg2d: Sum(rhs),rhsMax =   1.98197722123261E-10  1.79780421326184E-02
 cg2d: Sum(rhs),rhsMax =   1.98223493175220E-10  1.79791854048308E-02
 cg2d: Sum(rhs),rhsMax =   1.98235677872916E-10  1.79803203948036E-02
 cg2d: Sum(rhs),rhsMax =   1.98268942930291E-10  1.79814468662825E-02
 cg2d: Sum(rhs),rhsMax =   1.98298169551414E-10  1.79825646014361E-02
 cg2d: Sum(rhs),rhsMax =   1.98320540545360E-10  1.79836733931299E-02
 cg2d: Sum(rhs),rhsMax =   1.98345687096868E-10  1.79847730491399E-02
 cg2d: Sum(rhs),rhsMax =   1.98373428794696E-10  1.79858633896588E-02
 cg2d: Sum(rhs),rhsMax =   1.98395383455008E-10  1.79869442502422E-02
 cg2d: Sum(rhs),rhsMax =   1.98420932462362E-10  1.79880154816466E-02
 cg2d: Sum(rhs),rhsMax =   1.98445496146782E-10  1.79890769518474E-02
 cg2d: Sum(rhs),rhsMax =   1.98490127112372E-10  1.79901285417117E-02
 cg2d: Sum(rhs),rhsMax =   1.98520491712095E-10  1.79911701532769E-02
 cg2d: Sum(rhs),rhsMax =   1.98542696172588E-10  1.79922017026051E-02
 cg2d: Sum(rhs),rhsMax =   1.98560751174526E-10  1.79932231284795E-02
 cg2d: Sum(rhs),rhsMax =   1.98601107781471E-10  1.79942343845148E-02
 cg2d: Sum(rhs),rhsMax =   1.98634483861149E-10  1.79952354456178E-02
 cg2d: Sum(rhs),rhsMax =   1.98675340068455E-10  1.79962263065532E-02
 cg2d: Sum(rhs),rhsMax =   1.98712588050931E-10  1.79972069809647E-02
 cg2d: Sum(rhs),rhsMax =   1.98753707936206E-10  1.79981775027661E-02
 cg2d: Sum(rhs),rhsMax =   1.98793217998094E-10  1.79991379156021E-02
 cg2d: Sum(rhs),rhsMax =   1.98817753926939E-10  1.80000882581517E-02
 cg2d: Sum(rhs),rhsMax =   1.98848965071718E-10  1.80010286242335E-02
 cg2d: Sum(rhs),rhsMax =   1.98886601632253E-10  1.80019592058066E-02
 cg2d: Sum(rhs),rhsMax =   1.98913732707418E-10  1.80028801054137E-02
 cg2d: Sum(rhs),rhsMax =   1.98937727402537E-10  1.80037914784466E-02
 cg2d: Sum(rhs),rhsMax =   1.98970812048671E-10  1.80046935217583E-02
 cg2d: Sum(rhs),rhsMax =   1.99007477164059E-10  1.80055864439361E-02
 cg2d: Sum(rhs),rhsMax =   1.99048527660395E-10  1.80064704781892E-02
 cg2d: Sum(rhs),rhsMax =   1.99086885865896E-10  1.80073458774762E-02
 cg2d: Sum(rhs),rhsMax =   1.99109506660022E-10  1.80082129192901E-02
 cg2d: Sum(rhs),rhsMax =   1.99150779200963E-10  1.80090719022748E-02
 cg2d: Sum(rhs),rhsMax =   1.99189192917615E-10  1.80099231465380E-02
 cg2d: Sum(rhs),rhsMax =   1.99212521478920E-10  1.80107669926207E-02
 cg2d: Sum(rhs),rhsMax =   1.99257513266993E-10  1.80116038016476E-02
 cg2d: Sum(rhs),rhsMax =   1.99289626467980E-10  1.80124339535862E-02
 cg2d: Sum(rhs),rhsMax =   1.99321267824182E-10  1.80132578433877E-02
 cg2d: Sum(rhs),rhsMax =   1.99341529394381E-10  1.80140758868493E-02
 cg2d: Sum(rhs),rhsMax =   1.99359612151895E-10  1.80148885110440E-02
 cg2d: Sum(rhs),rhsMax =   1.99408489720554E-10  1.80156961605413E-02
 cg2d: Sum(rhs),rhsMax =   1.99433511371971E-10  1.80164992931738E-02
 cg2d: Sum(rhs),rhsMax =   1.99470495676479E-10  1.80172983757523E-02
 cg2d: Sum(rhs),rhsMax =   1.99495114872050E-10  1.80180938864649E-02
 cg2d: Sum(rhs),rhsMax =   1.99529684441480E-10  1.80188863140259E-02
 cg2d: Sum(rhs),rhsMax =   1.99566974057319E-10  1.80196761531961E-02
 cg2d: Sum(rhs),rhsMax =   1.99596575378713E-10  1.80204639039884E-02
 cg2d: Sum(rhs),rhsMax =   1.99630173502996E-10  1.80212500714706E-02
 cg2d: Sum(rhs),rhsMax =   1.99669669687097E-10  1.80220351596699E-02
 cg2d: Sum(rhs),rhsMax =   1.99704933145917E-10  1.80228196740068E-02
 cg2d: Sum(rhs),rhsMax =   1.99733132810742E-10  1.80236041209961E-02
 cg2d: Sum(rhs),rhsMax =   1.99762748009924E-10  1.80243890009884E-02
 cg2d: Sum(rhs),rhsMax =   1.99797331457141E-10  1.80251748089841E-02
 cg2d: Sum(rhs),rhsMax =   1.99830763047970E-10  1.80259620295608E-02
 cg2d: Sum(rhs),rhsMax =   1.99866151406880E-10  1.80267511421038E-02
 cg2d: Sum(rhs),rhsMax =   1.99900998532065E-10  1.80275426104571E-02
 cg2d: Sum(rhs),rhsMax =   1.99934457878470E-10  1.80283368876394E-02
 cg2d: Sum(rhs),rhsMax =   1.99966779246274E-10  1.80291344098852E-02
 cg2d: Sum(rhs),rhsMax =   2.00002736594485E-10  1.80299355961978E-02
 cg2d: Sum(rhs),rhsMax =   2.00034475095201E-10  1.80307408457498E-02
 cg2d: Sum(rhs),rhsMax =   2.00080507717360E-10  1.80315505385698E-02
 cg2d: Sum(rhs),rhsMax =   2.00112329484803E-10  1.80323650318893E-02
 cg2d: Sum(rhs),rhsMax =   2.00152630580597E-10  1.80331846558333E-02
 cg2d: Sum(rhs),rhsMax =   2.00180455545151E-10  1.80340097194903E-02
 cg2d: Sum(rhs),rhsMax =   2.00218633339411E-10  1.80348405025557E-02
 cg2d: Sum(rhs),rhsMax =   2.00253674753625E-10  1.80356772571284E-02
 cg2d: Sum(rhs),rhsMax =   2.00292615826214E-10  1.80365203085941E-02
 cg2d: Sum(rhs),rhsMax =   2.00325006582958E-10  1.80373698315687E-02
 cg2d: Sum(rhs),rhsMax =   2.00347266554601E-10  1.80382261123755E-02
 cg2d: Sum(rhs),rhsMax =   2.00386027215949E-10  1.80390893195370E-02
 cg2d: Sum(rhs),rhsMax =   2.00414490558742E-10  1.80399595944798E-02
 cg2d: Sum(rhs),rhsMax =   2.00441024889031E-10  1.80408370546287E-02
 cg2d: Sum(rhs),rhsMax =   2.00480521073132E-10  1.80417217733899E-02
 cg2d: Sum(rhs),rhsMax =   2.00500310798546E-10  1.80426137857808E-02
 cg2d: Sum(rhs),rhsMax =   2.00537725314476E-10  1.80435130912635E-02
 cg2d: Sum(rhs),rhsMax =   2.00567271124719E-10  1.80444196449328E-02
 cg2d: Sum(rhs),rhsMax =   2.00603936240107E-10  1.80453333632412E-02
 cg2d: Sum(rhs),rhsMax =   2.00633384905835E-10  1.80462541243072E-02
 cg2d: Sum(rhs),rhsMax =   2.00666941396754E-10  1.80471817592941E-02
 cg2d: Sum(rhs),rhsMax =   2.00696279040180E-10  1.80481160638214E-02
 cg2d: Sum(rhs),rhsMax =   2.00730737587307E-10  1.80490568132217E-02
 cg2d: Sum(rhs),rhsMax =   2.00772745651001E-10  1.80500037323941E-02
 cg2d: Sum(rhs),rhsMax =   2.00809910366750E-10  1.80509565062430E-02
 cg2d: Sum(rhs),rhsMax =   2.00853653153921E-10  1.80519147811581E-02
 cg2d: Sum(rhs),rhsMax =   2.00881478118475E-10  1.80528781714259E-02
 cg2d: Sum(rhs),rhsMax =   2.00915617476483E-10  1.80538462623108E-02
 cg2d: Sum(rhs),rhsMax =   2.00926761340092E-10  1.80548186059028E-02
 cg2d: Sum(rhs),rhsMax =   2.00953573226137E-10  1.80557947272288E-02
 cg2d: Sum(rhs),rhsMax =   2.00986616238907E-10  1.80567741226029E-02
 cg2d: Sum(rhs),rhsMax =   2.01022642976056E-10  1.80577562694198E-02
 cg2d: Sum(rhs),rhsMax =   2.01054894954922E-10  1.80587406195866E-02
 cg2d: Sum(rhs),rhsMax =   2.01083150130899E-10  1.80597266041789E-02
 cg2d: Sum(rhs),rhsMax =   2.01129030097391E-10  1.80607136408398E-02
 cg2d: Sum(rhs),rhsMax =   2.01164002122667E-10  1.80617011323160E-02
 cg2d: Sum(rhs),rhsMax =   2.01201014182750E-10  1.80626884734974E-02
 cg2d: Sum(rhs),rhsMax =   2.01239053199131E-10  1.80636750466341E-02
 cg2d: Sum(rhs),rhsMax =   2.01267391641835E-10  1.80646602330535E-02
 cg2d: Sum(rhs),rhsMax =   2.01295313750904E-10  1.80656434113937E-02
 cg2d: Sum(rhs),rhsMax =   2.01323610560245E-10  1.80666239630305E-02
 cg2d: Sum(rhs),rhsMax =   2.01349034667508E-10  1.80676012693073E-02
 cg2d: Sum(rhs),rhsMax =   2.01384103837299E-10  1.80685747169180E-02
 cg2d: Sum(rhs),rhsMax =   2.01413163924968E-10  1.80695437096036E-02
 cg2d: Sum(rhs),rhsMax =   2.01447122871734E-10  1.80705076615468E-02
 cg2d: Sum(rhs),rhsMax =   2.01486063944323E-10  1.80714660060950E-02
 cg2d: Sum(rhs),rhsMax =   2.01524366638672E-10  1.80724181982725E-02
 cg2d: Sum(rhs),rhsMax =   2.01554536949367E-10  1.80733637197340E-02
 cg2d: Sum(rhs),rhsMax =   2.01590952264574E-10  1.80743020642845E-02
 cg2d: Sum(rhs),rhsMax =   2.01631988883122E-10  1.80752327459367E-02
 cg2d: Sum(rhs),rhsMax =   2.01660146914584E-10  1.80761553135974E-02
 cg2d: Sum(rhs),rhsMax =   2.01700656177195E-10  1.80770693615904E-02
 cg2d: Sum(rhs),rhsMax =   2.01732880400485E-10  1.80779745119640E-02
 cg2d: Sum(rhs),rhsMax =   2.01768157737092E-10  1.80788704222652E-02
 cg2d: Sum(rhs),rhsMax =   2.01801367283316E-10  1.80797567858723E-02
 cg2d: Sum(rhs),rhsMax =   2.01839434055273E-10  1.80806333320038E-02
 cg2d: Sum(rhs),rhsMax =   2.01873906480188E-10  1.80814998367538E-02
 cg2d: Sum(rhs),rhsMax =   2.01898539553547E-10  1.80823561125792E-02
 cg2d: Sum(rhs),rhsMax =   2.01927127796431E-10  1.80832020216734E-02
 cg2d: Sum(rhs),rhsMax =   2.01963196166943E-10  1.80840374660068E-02
 cg2d: Sum(rhs),rhsMax =   2.01999778015605E-10  1.80848623892515E-02
 cg2d: Sum(rhs),rhsMax =   2.02019678763321E-10  1.80856767832546E-02
 cg2d: Sum(rhs),rhsMax =   2.02063796250762E-10  1.80864794429887E-02
 cg2d: Sum(rhs),rhsMax =   2.02099920132426E-10  1.80872716478976E-02
 cg2d: Sum(rhs),rhsMax =   2.02132782733955E-10  1.80880535883024E-02
 cg2d: Sum(rhs),rhsMax =   2.02161218321173E-10  1.80888254187921E-02
 cg2d: Sum(rhs),rhsMax =   2.02199174070827E-10  1.80895873483937E-02
 cg2d: Sum(rhs),rhsMax =   2.02227554146894E-10  1.80903396325725E-02
 cg2d: Sum(rhs),rhsMax =   2.02280303618352E-10  1.80910825607907E-02
 cg2d: Sum(rhs),rhsMax =   2.02311223329588E-10  1.80918164628072E-02
 cg2d: Sum(rhs),rhsMax =   2.02349983990935E-10  1.80925417025074E-02
 cg2d: Sum(rhs),rhsMax =   2.02377309355128E-10  1.80932586802032E-02
 cg2d: Sum(rhs),rhsMax =   2.02416861050381E-10  1.80939678258816E-02
 cg2d: Sum(rhs),rhsMax =   2.02444491725906E-10  1.80946695986928E-02
 cg2d: Sum(rhs),rhsMax =   2.02486805100932E-10  1.80953644839048E-02
 cg2d: Sum(rhs),rhsMax =   2.02527605797087E-10  1.80960529952056E-02
 cg2d: Sum(rhs),rhsMax =   2.02564034990083E-10  1.80967356629360E-02
 Computing Diagnostic #    26 "THETA   " (list#  1) Parms "SMR     MR      ", Count=     144
 Computing Diagnostic #    27 "SALT    " (list#  1) Parms "SMR     MR      ", Count=     144
 Computing Diagnostic #    30 "UVEL    " (list#  1) Parms "UUR     MR      ", Count=     144
             Vector  Mate for "UVEL    " :  Diagnostic #     31 "VVEL    " exists
 Computing Diagnostic #    32 "WVEL    " (list#  1) Parms "WM      LR      ", Count=     144
 Computing Diagnostic #    31 "VVEL    " (list#  1) Parms "VVR     MR      ", Count=     144
             Vector  Mate for "VVEL    " :  Diagnostic #     30 "UVEL    " exists
 Computing Diagnostic #   197 "BRGfwFlx" (list#  2) Parms "SM      MR      ", Count=     144
 Computing Diagnostic #   198 "BRGhtFlx" (list#  2) Parms "SM      MR      ", Count=     144
 Computing Diagnostic #   199 "BRGmltRt" (list#  2) Parms "SM      MR      ", Count=     144
 Computing Diagnostic #   201 "BRG_TauX" (list#  2) Parms "UU      MR      ", Count=    1728
 Computing Diagnostic #   202 "BRG_TauY" (list#  2) Parms "VV      MR      ", Count=    1728
 Computing Diagnostic #   203 "BRGhFacC" (list#  2) Parms "SM      MR      ", Count=    1728
 cg2d: Sum(rhs),rhsMax =   2.02605598964567E-10  1.80974130401983E-02
 cg2d: Sum(rhs),rhsMax =   2.02634506396571E-10  1.80980856940722E-02
 cg2d: Sum(rhs),rhsMax =   2.02678790417465E-10  1.80987542033604E-02
 cg2d: Sum(rhs),rhsMax =   2.02713110186714E-10  1.80994191610623E-02
 cg2d: Sum(rhs),rhsMax =   2.02758046463636E-10  1.81000811650839E-02
 cg2d: Sum(rhs),rhsMax =   2.02781222369275E-10  1.81007408144453E-02
 cg2d: Sum(rhs),rhsMax =   2.02824868011930E-10  1.81013987124470E-02
 cg2d: Sum(rhs),rhsMax =   2.02867264653683E-10  1.81020575349073E-02
 cg2d: Sum(rhs),rhsMax =   2.02914796076925E-10  1.81027158618027E-02
 cg2d: Sum(rhs),rhsMax =   2.02958608253034E-10  1.81033741623530E-02
 cg2d: Sum(rhs),rhsMax =   2.02986558117679E-10  1.81040330327553E-02
 cg2d: Sum(rhs),rhsMax =   2.03019351330269E-10  1.81046930262136E-02
 cg2d: Sum(rhs),rhsMax =   2.03046746083402E-10  1.81053546752522E-02
 cg2d: Sum(rhs),rhsMax =   2.03082661798248E-10  1.81060184973965E-02
 cg2d: Sum(rhs),rhsMax =   2.03110125940320E-10  1.81066849854687E-02
 cg2d: Sum(rhs),rhsMax =   2.03142738741668E-10  1.81073546085183E-02
 cg2d: Sum(rhs),rhsMax =   2.03184566394121E-10  1.81080278162797E-02
 cg2d: Sum(rhs),rhsMax =   2.03228753270501E-10  1.81087050126741E-02
 cg2d: Sum(rhs),rhsMax =   2.03260422382279E-10  1.81093865660925E-02
 cg2d: Sum(rhs),rhsMax =   2.03302513712700E-10  1.81100728347652E-02
 cg2d: Sum(rhs),rhsMax =   2.03347005900412E-10  1.81107641389288E-02
 cg2d: Sum(rhs),rhsMax =   2.03381117502843E-10  1.81114607581064E-02
 cg2d: Sum(rhs),rhsMax =   2.03410219223876E-10  1.81121629449671E-02
 cg2d: Sum(rhs),rhsMax =   2.03445565949423E-10  1.81128709033802E-02
 cg2d: Sum(rhs),rhsMax =   2.03481273497452E-10  1.81135848772235E-02
 cg2d: Sum(rhs),rhsMax =   2.03511568708237E-10  1.81143049387287E-02
 cg2d: Sum(rhs),rhsMax =   2.03557670719334E-10  1.81150312016748E-02
 cg2d: Sum(rhs),rhsMax =   2.03595043601901E-10  1.81157637406312E-02
 cg2d: Sum(rhs),rhsMax =   2.03629585415754E-10  1.81165025808776E-02
 cg2d: Sum(rhs),rhsMax =   2.03669733855882E-10  1.81172477139038E-02
 cg2d: Sum(rhs),rhsMax =   2.03703678924860E-10  1.81179990893180E-02
 cg2d: Sum(rhs),rhsMax =   2.03740926907336E-10  1.81187566278244E-02
 cg2d: Sum(rhs),rhsMax =   2.03765088135910E-10  1.81195202125622E-02
 cg2d: Sum(rhs),rhsMax =   2.03809441545744E-10  1.81202896951137E-02
 cg2d: Sum(rhs),rhsMax =   2.03838626533503E-10  1.81210648929701E-02
 cg2d: Sum(rhs),rhsMax =   2.03880801130651E-10  1.81218455915817E-02
 cg2d: Sum(rhs),rhsMax =   2.03909486518050E-10  1.81226315503640E-02
 cg2d: Sum(rhs),rhsMax =   2.03935895948248E-10  1.81234224992885E-02
 cg2d: Sum(rhs),rhsMax =   2.03973060663998E-10  1.81242181443912E-02
 cg2d: Sum(rhs),rhsMax =   2.03995570435822E-10  1.81250181729704E-02
 cg2d: Sum(rhs),rhsMax =   2.04015415672387E-10  1.81258222444029E-02
 cg2d: Sum(rhs),rhsMax =   2.04048916652155E-10  1.81266299976687E-02
 cg2d: Sum(rhs),rhsMax =   2.04072508891429E-10  1.81274410344670E-02
 cg2d: Sum(rhs),rhsMax =   2.04125855107762E-10  1.81282550256153E-02
 cg2d: Sum(rhs),rhsMax =   2.04155622962610E-10  1.81290715543324E-02
 cg2d: Sum(rhs),rhsMax =   2.04180825025269E-10  1.81298901573815E-02
 cg2d: Sum(rhs),rhsMax =   2.04212688426075E-10  1.81307104313599E-02
 cg2d: Sum(rhs),rhsMax =   2.04249103741283E-10  1.81315319661010E-02
 cg2d: Sum(rhs),rhsMax =   2.04283562288410E-10  1.81323543611225E-02
 cg2d: Sum(rhs),rhsMax =   2.04313441165560E-10  1.81331771879222E-02
 cg2d: Sum(rhs),rhsMax =   2.04342542886593E-10  1.81340000436748E-02
 cg2d: Sum(rhs),rhsMax =   2.04375946721846E-10  1.81348225222872E-02
 cg2d: Sum(rhs),rhsMax =   2.04406713777416E-10  1.81356442271612E-02
 cg2d: Sum(rhs),rhsMax =   2.04444947082827E-10  1.81364647655271E-02
 cg2d: Sum(rhs),rhsMax =   2.04492464628281E-10  1.81372837617120E-02
 cg2d: Sum(rhs),rhsMax =   2.04532710212924E-10  1.81381008488061E-02
 cg2d: Sum(rhs),rhsMax =   2.04558828209578E-10  1.81389156743072E-02
 cg2d: Sum(rhs),rhsMax =   2.04590927532777E-10  1.81397279050895E-02
 cg2d: Sum(rhs),rhsMax =   2.04623804012094E-10  1.81405372201756E-02
 cg2d: Sum(rhs),rhsMax =   2.04647632173760E-10  1.81413433246083E-02
 cg2d: Sum(rhs),rhsMax =   2.04690653315964E-10  1.81421459402731E-02
 cg2d: Sum(rhs),rhsMax =   2.04726499641872E-10  1.81429448131275E-02
 cg2d: Sum(rhs),rhsMax =   2.04754990740241E-10  1.81437397117816E-02
 cg2d: Sum(rhs),rhsMax =   2.04779290746693E-10  1.81445304276907E-02
 cg2d: Sum(rhs),rhsMax =   2.04819411431245E-10  1.81453167788123E-02
 cg2d: Sum(rhs),rhsMax =   2.04843600415394E-10  1.81460986076472E-02
 cg2d: Sum(rhs),rhsMax =   2.04886815846628E-10  1.81468757828203E-02
 cg2d: Sum(rhs),rhsMax =   2.04911226875382E-10  1.81476481957045E-02
 cg2d: Sum(rhs),rhsMax =   2.04936817516099E-10  1.81484157668754E-02
 cg2d: Sum(rhs),rhsMax =   2.04969638484265E-10  1.81491784422894E-02
 cg2d: Sum(rhs),rhsMax =   2.05002223530037E-10  1.81499361914823E-02
 cg2d: Sum(rhs),rhsMax =   2.05054320745468E-10  1.81506890083493E-02
 cg2d: Sum(rhs),rhsMax =   2.05094427552233E-10  1.81514369132267E-02
 cg2d: Sum(rhs),rhsMax =   2.05113245832500E-10  1.81521799508716E-02
 cg2d: Sum(rhs),rhsMax =   2.05153921628565E-10  1.81529181850134E-02
 cg2d: Sum(rhs),rhsMax =   2.05189545909867E-10  1.81536517052002E-02
 cg2d: Sum(rhs),rhsMax =   2.05233371963764E-10  1.81543805764471E-02
 cg2d: Sum(rhs),rhsMax =   2.05258324226243E-10  1.81551046485630E-02
 cg2d: Sum(rhs),rhsMax =   2.05290992538743E-10  1.81558241828317E-02
 cg2d: Sum(rhs),rhsMax =   2.05333319791556E-10  1.81565389210106E-02
 cg2d: Sum(rhs),rhsMax =   2.05361408434079E-10  1.81572489599440E-02
 cg2d: Sum(rhs),rhsMax =   2.05402708730595E-10  1.81579543576699E-02
 cg2d: Sum(rhs),rhsMax =   2.05441247347338E-10  1.81586551695630E-02
 cg2d: Sum(rhs),rhsMax =   2.05482672543944E-10  1.81593514847278E-02
 cg2d: Sum(rhs),rhsMax =   2.05523070784253E-10  1.81600434126870E-02
 cg2d: Sum(rhs),rhsMax =   2.05563704946954E-10  1.81607310841281E-02
 cg2d: Sum(rhs),rhsMax =   2.05595568347761E-10  1.81614146492084E-02
 cg2d: Sum(rhs),rhsMax =   2.05628208904685E-10  1.81620942684760E-02
 cg2d: Sum(rhs),rhsMax =   2.05655617535605E-10  1.81627701319215E-02
 cg2d: Sum(rhs),rhsMax =   2.05689090759797E-10  1.81634424404395E-02
 cg2d: Sum(rhs),rhsMax =   2.05726741198120E-10  1.81641114045679E-02
 cg2d: Sum(rhs),rhsMax =   2.05764696947774E-10  1.81647772507559E-02
 cg2d: Sum(rhs),rhsMax =   2.05805733566322E-10  1.81654402202832E-02
 cg2d: Sum(rhs),rhsMax =   2.05838193712005E-10  1.81661005607761E-02
 cg2d: Sum(rhs),rhsMax =   2.05881950376963E-10  1.81667585293889E-02
 cg2d: Sum(rhs),rhsMax =   2.05914341133706E-10  1.81674143920273E-02
 cg2d: Sum(rhs),rhsMax =   2.05949576836950E-10  1.81680684145392E-02
 cg2d: Sum(rhs),rhsMax =   2.05975916878209E-10  1.81687208703679E-02
 cg2d: Sum(rhs),rhsMax =   2.06021255610978E-10  1.81693720298075E-02
 cg2d: Sum(rhs),rhsMax =   2.06057920726366E-10  1.81700221647104E-02
 cg2d: Sum(rhs),rhsMax =   2.06087202858640E-10  1.81706715473706E-02
 cg2d: Sum(rhs),rhsMax =   2.06130321145359E-10  1.81713204413914E-02
 cg2d: Sum(rhs),rhsMax =   2.06164904592576E-10  1.81719690684063E-02
 cg2d: Sum(rhs),rhsMax =   2.06200986840877E-10  1.81726176749510E-02
 cg2d: Sum(rhs),rhsMax =   2.06237235622631E-10  1.81732665231388E-02
 cg2d: Sum(rhs),rhsMax =   2.06282824155579E-10  1.81739158628301E-02
 cg2d: Sum(rhs),rhsMax =   2.06316852491284E-10  1.81745659055500E-02
 cg2d: Sum(rhs),rhsMax =   2.06360956100937E-10  1.81752168555253E-02
 cg2d: Sum(rhs),rhsMax =   2.06401118418853E-10  1.81758689080585E-02
 cg2d: Sum(rhs),rhsMax =   2.06433745097989E-10  1.81765222514238E-02
 cg2d: Sum(rhs),rhsMax =   2.06472769437305E-10  1.81771770538669E-02
 cg2d: Sum(rhs),rhsMax =   2.06513112166462E-10  1.81778334650489E-02
 cg2d: Sum(rhs),rhsMax =   2.06554745529886E-10  1.81784916171676E-02
 cg2d: Sum(rhs),rhsMax =   2.06584332973492E-10  1.81791516237685E-02
 cg2d: Sum(rhs),rhsMax =   2.06617778442109E-10  1.81798135829929E-02
 cg2d: Sum(rhs),rhsMax =   2.06647782219349E-10  1.81804775740237E-02
 cg2d: Sum(rhs),rhsMax =   2.06681921577356E-10  1.81811436539922E-02
 cg2d: Sum(rhs),rhsMax =   2.06715783379607E-10  1.81818118561839E-02
 cg2d: Sum(rhs),rhsMax =   2.06753933418291E-10  1.81824822020932E-02
 cg2d: Sum(rhs),rhsMax =   2.06779898759279E-10  1.81831546854474E-02
 cg2d: Sum(rhs),rhsMax =   2.06818021042388E-10  1.81838292854244E-02
 cg2d: Sum(rhs),rhsMax =   2.06841460625995E-10  1.81845059553649E-02
 cg2d: Sum(rhs),rhsMax =   2.06870395813574E-10  1.81851846275065E-02
 cg2d: Sum(rhs),rhsMax =   2.06903189026164E-10  1.81858652150151E-02
 cg2d: Sum(rhs),rhsMax =   2.06941505598301E-10  1.81865476158125E-02
 cg2d: Sum(rhs),rhsMax =   2.06983680195449E-10  1.81872317060219E-02
 cg2d: Sum(rhs),rhsMax =   2.07030143029030E-10  1.81879173428011E-02
 cg2d: Sum(rhs),rhsMax =   2.07070513513763E-10  1.81886043678549E-02
 cg2d: Sum(rhs),rhsMax =   2.07122416440164E-10  1.81892926095069E-02
 cg2d: Sum(rhs),rhsMax =   2.07161773846387E-10  1.81899818748248E-02
 cg2d: Sum(rhs),rhsMax =   2.07189071455005E-10  1.81906719591502E-02
 cg2d: Sum(rhs),rhsMax =   2.07236477978157E-10  1.81913626444017E-02
 cg2d: Sum(rhs),rhsMax =   2.07261666163028E-10  1.81920536974048E-02
 cg2d: Sum(rhs),rhsMax =   2.07297692900177E-10  1.81927448802005E-02
 cg2d: Sum(rhs),rhsMax =   2.07352315872988E-10  1.81934359275362E-02
 cg2d: Sum(rhs),rhsMax =   2.07380196348694E-10  1.81941265827799E-02
 cg2d: Sum(rhs),rhsMax =   2.07421219089454E-10  1.81948165743001E-02
 cg2d: Sum(rhs),rhsMax =   2.07466807622403E-10  1.81955056201411E-02
 cg2d: Sum(rhs),rhsMax =   2.07506109517475E-10  1.81961936509542E-02
 cg2d: Sum(rhs),rhsMax =   2.07559067155749E-10  1.81968804153050E-02
 cg2d: Sum(rhs),rhsMax =   2.07597827817096E-10  1.81975656157001E-02
 cg2d: Sum(rhs),rhsMax =   2.07643249816591E-10  1.81982489503211E-02
 cg2d: Sum(rhs),rhsMax =   2.07679845543041E-10  1.81989301099810E-02
 cg2d: Sum(rhs),rhsMax =   2.07711445265879E-10  1.81996087866096E-02
 Computing Diagnostic #    26 "THETA   " (list#  1) Parms "SMR     MR      ", Count=     144
 Computing Diagnostic #    27 "SALT    " (list#  1) Parms "SMR     MR      ", Count=     144
 Computing Diagnostic #    30 "UVEL    " (list#  1) Parms "UUR     MR      ", Count=     144
             Vector  Mate for "UVEL    " :  Diagnostic #     31 "VVEL    " exists
 Computing Diagnostic #    32 "WVEL    " (list#  1) Parms "WM      LR      ", Count=     144
 Computing Diagnostic #    31 "VVEL    " (list#  1) Parms "VVR     MR      ", Count=     144
             Vector  Mate for "VVEL    " :  Diagnostic #     30 "UVEL    " exists
 Computing Diagnostic #   197 "BRGfwFlx" (list#  2) Parms "SM      MR      ", Count=     144
 Computing Diagnostic #   198 "BRGhtFlx" (list#  2) Parms "SM      MR      ", Count=     144
 Computing Diagnostic #   199 "BRGmltRt" (list#  2) Parms "SM      MR      ", Count=     144
 Computing Diagnostic #   201 "BRG_TauX" (list#  2) Parms "UU      MR      ", Count=    1728
 Computing Diagnostic #   202 "BRG_TauY" (list#  2) Parms "VV      MR      ", Count=    1728
 Computing Diagnostic #   203 "BRGhFacC" (list#  2) Parms "SM      MR      ", Count=    1728
 cg2d: Sum(rhs),rhsMax =   2.07748054870116E-10  1.82002846702902E-02
 cg2d: Sum(rhs),rhsMax =   2.07766123749842E-10  1.82009574524471E-02
 cg2d: Sum(rhs),rhsMax =   2.07805231355884E-10  1.82016268297765E-02
 cg2d: Sum(rhs),rhsMax =   2.07838538046623E-10  1.82022925014063E-02
 cg2d: Sum(rhs),rhsMax =   2.07878894653568E-10  1.82029541706133E-02
 cg2d: Sum(rhs),rhsMax =   2.07910508254194E-10  1.82036115497311E-02
 cg2d: Sum(rhs),rhsMax =   2.07930006546064E-10  1.82042643557433E-02
 cg2d: Sum(rhs),rhsMax =   2.07957095987865E-10  1.82049123178157E-02
 cg2d: Sum(rhs),rhsMax =   2.08004655166683E-10  1.82055111931681E-02
 cg2d: Sum(rhs),rhsMax =   2.08037559401575E-10  1.82061048340654E-02
 cg2d: Sum(rhs),rhsMax =   2.08078651531274E-10  1.82066932143741E-02
 cg2d: Sum(rhs),rhsMax =   2.08121062050814E-10  1.82072761040903E-02
 cg2d: Sum(rhs),rhsMax =   2.08156644698754E-10  1.82078535428005E-02
 cg2d: Sum(rhs),rhsMax =   2.08188036254775E-10  1.82084255034501E-02
 cg2d: Sum(rhs),rhsMax =   2.08225409137341E-10  1.82089919604939E-02
 cg2d: Sum(rhs),rhsMax =   2.08259437473046E-10  1.82095528939623E-02
 cg2d: Sum(rhs),rhsMax =   2.08306469295927E-10  1.82101082967334E-02
 cg2d: Sum(rhs),rhsMax =   2.08337125329194E-10  1.82106581720832E-02
 cg2d: Sum(rhs),rhsMax =   2.08382172628419E-10  1.82112025356507E-02
 cg2d: Sum(rhs),rhsMax =   2.08420572467283E-10  1.82117308277605E-02
 cg2d: Sum(rhs),rhsMax =   2.08464745465875E-10  1.82122533619341E-02
 cg2d: Sum(rhs),rhsMax =   2.08509959298553E-10  1.82127707827204E-02
 cg2d: Sum(rhs),rhsMax =   2.08559100545180E-10  1.82132830480728E-02
 cg2d: Sum(rhs),rhsMax =   2.08595252182420E-10  1.82137902653839E-02
 cg2d: Sum(rhs),rhsMax =   2.08631265041781E-10  1.82142925661974E-02
 cg2d: Sum(rhs),rhsMax =   2.08665321133061E-10  1.82147900883850E-02
 cg2d: Sum(rhs),rhsMax =   2.08701125825606E-10  1.82152829768400E-02
 cg2d: Sum(rhs),rhsMax =   2.08728395678648E-10  1.82157713815795E-02
 cg2d: Sum(rhs),rhsMax =   2.08767558795842E-10  1.82162554442042E-02
 cg2d: Sum(rhs),rhsMax =   2.08816922087074E-10  1.82167352563518E-02
 cg2d: Sum(rhs),rhsMax =   2.08858610961649E-10  1.82172109685229E-02
 cg2d: Sum(rhs),rhsMax =   2.08898870424079E-10  1.82176827057339E-02
 cg2d: Sum(rhs),rhsMax =   2.08943834456576E-10  1.82181505834425E-02
 cg2d: Sum(rhs),rhsMax =   2.08984718419458E-10  1.82186147373327E-02
 cg2d: Sum(rhs),rhsMax =   2.09023076624959E-10  1.82190753024428E-02
 cg2d: Sum(rhs),rhsMax =   2.09048778287979E-10  1.82195324212032E-02
 cg2d: Sum(rhs),rhsMax =   2.09093839464991E-10  1.82199862458172E-02
 cg2d: Sum(rhs),rhsMax =   2.09133210749002E-10  1.82204369296540E-02
 cg2d: Sum(rhs),rhsMax =   2.09160369579742E-10  1.82208846381124E-02
 cg2d: Sum(rhs),rhsMax =   2.09212286383931E-10  1.82213295379830E-02
 cg2d: Sum(rhs),rhsMax =   2.09249312321802E-10  1.82217718044088E-02
 cg2d: Sum(rhs),rhsMax =   2.09282521868026E-10  1.82222116166385E-02
 cg2d: Sum(rhs),rhsMax =   2.09322281730095E-10  1.82226491617729E-02
 cg2d: Sum(rhs),rhsMax =   2.09360598302233E-10  1.82230846314275E-02
 cg2d: Sum(rhs),rhsMax =   2.09399761419427E-10  1.82235182200647E-02
 cg2d: Sum(rhs),rhsMax =   2.09420883412470E-10  1.82239501305391E-02
 cg2d: Sum(rhs),rhsMax =   2.09464653955216E-10  1.82243805694880E-02
 cg2d: Sum(rhs),rhsMax =   2.09503428494351E-10  1.82248097454257E-02
 cg2d: Sum(rhs),rhsMax =   2.09542300178001E-10  1.82252378747429E-02
 cg2d: Sum(rhs),rhsMax =   2.09578243648423E-10  1.82256651733543E-02
 cg2d: Sum(rhs),rhsMax =   2.09615977353472E-10  1.82260918640545E-02
 cg2d: Sum(rhs),rhsMax =   2.09666714545698E-10  1.82265181736196E-02
 cg2d: Sum(rhs),rhsMax =   2.09695219521855E-10  1.82269443303997E-02
 cg2d: Sum(rhs),rhsMax =   2.09724432265190E-10  1.82273705498509E-02
 cg2d: Sum(rhs),rhsMax =   2.09766856662519E-10  1.82277970733926E-02
 cg2d: Sum(rhs),rhsMax =   2.09797290651181E-10  1.82282241387400E-02
 cg2d: Sum(rhs),rhsMax =   2.09826614416819E-10  1.82286519887848E-02
 cg2d: Sum(rhs),rhsMax =   2.09870801293199E-10  1.82290808181007E-02
 cg2d: Sum(rhs),rhsMax =   2.09901637737708E-10  1.82295108822289E-02
 cg2d: Sum(rhs),rhsMax =   2.09940675954812E-10  1.82299424212025E-02
 cg2d: Sum(rhs),rhsMax =   2.09977771281622E-10  1.82303756601303E-02
 cg2d: Sum(rhs),rhsMax =   2.10026648850281E-10  1.82308108076775E-02
 cg2d: Sum(rhs),rhsMax =   2.10060385752442E-10  1.82312480805293E-02
 cg2d: Sum(rhs),rhsMax =   2.10094872055144E-10  1.82316877013223E-02
 cg2d: Sum(rhs),rhsMax =   2.10131176348050E-10  1.82321298920632E-02
 cg2d: Sum(rhs),rhsMax =   2.10167189207411E-10  1.82325748698455E-02
 cg2d: Sum(rhs),rhsMax =   2.10201578365599E-10  1.82330228468325E-02
 cg2d: Sum(rhs),rhsMax =   2.10247749765635E-10  1.82334740298780E-02
 cg2d: Sum(rhs),rhsMax =   2.10285122648202E-10  1.82339286220257E-02
 cg2d: Sum(rhs),rhsMax =   2.10319373028511E-10  1.82343868186255E-02
 cg2d: Sum(rhs),rhsMax =   2.10355913243809E-10  1.82348488079961E-02
 cg2d: Sum(rhs),rhsMax =   2.10392106514412E-10  1.82353147709605E-02
 cg2d: Sum(rhs),rhsMax =   2.10423262148041E-10  1.82357848805345E-02
 cg2d: Sum(rhs),rhsMax =   2.10467476779996E-10  1.82362593034654E-02
 cg2d: Sum(rhs),rhsMax =   2.10501172048794E-10  1.82367381947644E-02
 cg2d: Sum(rhs),rhsMax =   2.10535880396101E-10  1.82372217018640E-02
 cg2d: Sum(rhs),rhsMax =   2.10575459846929E-10  1.82377099601729E-02
 cg2d: Sum(rhs),rhsMax =   2.10617356888321E-10  1.82382030966424E-02
 cg2d: Sum(rhs),rhsMax =   2.10654535481858E-10  1.82387012272788E-02
 cg2d: Sum(rhs),rhsMax =   2.10699846459050E-10  1.82392044554900E-02
 cg2d: Sum(rhs),rhsMax =   2.10728948180083E-10  1.82397128722098E-02
 cg2d: Sum(rhs),rhsMax =   2.10764600216962E-10  1.82402265601886E-02
 cg2d: Sum(rhs),rhsMax =   2.10799183664179E-10  1.82407455862600E-02
 cg2d: Sum(rhs),rhsMax =   2.10851336390760E-10  1.82412700037125E-02
 cg2d: Sum(rhs),rhsMax =   2.10889777862988E-10  1.82417998587551E-02
 cg2d: Sum(rhs),rhsMax =   2.10927039723252E-10  1.82423351781429E-02
 cg2d: Sum(rhs),rhsMax =   2.10973877257103E-10  1.82428759772317E-02
 cg2d: Sum(rhs),rhsMax =   2.11009973383192E-10  1.82434222591147E-02
 cg2d: Sum(rhs),rhsMax =   2.11056047638714E-10  1.82439762527746E-02
 cg2d: Sum(rhs),rhsMax =   2.11103343139563E-10  1.82445356776271E-02
 cg2d: Sum(rhs),rhsMax =   2.11143269535086E-10  1.82451004675853E-02
 cg2d: Sum(rhs),rhsMax =   2.11181738762889E-10  1.82456705167419E-02
 cg2d: Sum(rhs),rhsMax =   2.11218320611550E-10  1.82462457261582E-02
 cg2d: Sum(rhs),rhsMax =   2.11253806114975E-10  1.82468260071527E-02
 cg2d: Sum(rhs),rhsMax =   2.11308151532030E-10  1.82474112588918E-02
 cg2d: Sum(rhs),rhsMax =   2.11339723499293E-10  1.82480013645260E-02
 cg2d: Sum(rhs),rhsMax =   2.11374973080325E-10  1.82485961955707E-02
 cg2d: Sum(rhs),rhsMax =   2.11414746820182E-10  1.82491956065307E-02
 cg2d: Sum(rhs),rhsMax =   2.11458739407533E-10  1.82497994486201E-02
 cg2d: Sum(rhs),rhsMax =   2.11498776825358E-10  1.82504075591017E-02
 cg2d: Sum(rhs),rhsMax =   2.11535872152169E-10  1.82510197650707E-02
 cg2d: Sum(rhs),rhsMax =   2.11584194609316E-10  1.82516358844243E-02
 cg2d: Sum(rhs),rhsMax =   2.11612047329446E-10  1.82522557254337E-02
 cg2d: Sum(rhs),rhsMax =   2.11647116499236E-10  1.82528790867048E-02
 cg2d: Sum(rhs),rhsMax =   2.11681200346092E-10  1.82535057585513E-02
 cg2d: Sum(rhs),rhsMax =   2.11710093900308E-10  1.82541355239007E-02
 cg2d: Sum(rhs),rhsMax =   2.11743733657954E-10  1.82547681594546E-02
 cg2d: Sum(rhs),rhsMax =   2.11777151370995E-10  1.82554034360645E-02
 cg2d: Sum(rhs),rhsMax =   2.11815898154555E-10  1.82560411168463E-02
 cg2d: Sum(rhs),rhsMax =   2.11854381260146E-10  1.82566809618748E-02
 cg2d: Sum(rhs),rhsMax =   2.11893821933096E-10  1.82573227279101E-02
 cg2d: Sum(rhs),rhsMax =   2.11945419548165E-10  1.82579661668924E-02
 cg2d: Sum(rhs),rhsMax =   2.11983194886578E-10  1.82586110280344E-02
 cg2d: Sum(rhs),rhsMax =   2.12030351609549E-10  1.82592570749234E-02
 cg2d: Sum(rhs),rhsMax =   2.12060174975548E-10  1.82599040226914E-02
 cg2d: Sum(rhs),rhsMax =   2.12101183838520E-10  1.82605516279635E-02
 cg2d: Sum(rhs),rhsMax =   2.12133630106415E-10  1.82611996524144E-02
 cg2d: Sum(rhs),rhsMax =   2.12178052905188E-10  1.82618478453325E-02
 cg2d: Sum(rhs),rhsMax =   2.12214537609334E-10  1.82624959525217E-02
 cg2d: Sum(rhs),rhsMax =   2.12250911291179E-10  1.82631437257995E-02
 cg2d: Sum(rhs),rhsMax =   2.12278777889097E-10  1.82637909262020E-02
 cg2d: Sum(rhs),rhsMax =   2.12324824389043E-10  1.82644373156319E-02
 cg2d: Sum(rhs),rhsMax =   2.12377393449259E-10  1.82650826662328E-02
 cg2d: Sum(rhs),rhsMax =   2.12416612077604E-10  1.82657267530929E-02
 cg2d: Sum(rhs),rhsMax =   2.12455428250102E-10  1.82663693567476E-02
 cg2d: Sum(rhs),rhsMax =   2.12488984741022E-10  1.82670102690397E-02
 cg2d: Sum(rhs),rhsMax =   2.12524498000022E-10  1.82676492903060E-02
 cg2d: Sum(rhs),rhsMax =   2.12566103607870E-10  1.82682862264238E-02
 cg2d: Sum(rhs),rhsMax =   2.12602421778563E-10  1.82689208988268E-02
 cg2d: Sum(rhs),rhsMax =   2.12635048457699E-10  1.82695531333290E-02
 cg2d: Sum(rhs),rhsMax =   2.12664746923608E-10  1.82701827713965E-02
 cg2d: Sum(rhs),rhsMax =   2.12700593249515E-10  1.82708096657930E-02
 cg2d: Sum(rhs),rhsMax =   2.12735620785942E-10  1.82714336769499E-02
 cg2d: Sum(rhs),rhsMax =   2.12780792985257E-10  1.82720546826918E-02
 cg2d: Sum(rhs),rhsMax =   2.12829781576218E-10  1.82726725734172E-02
 cg2d: Sum(rhs),rhsMax =   2.12874343152869E-10  1.82732872511068E-02
 cg2d: Sum(rhs),rhsMax =   2.12908787822208E-10  1.82738986302334E-02
 cg2d: Sum(rhs),rhsMax =   2.12946382749379E-10  1.82745066431034E-02
 cg2d: Sum(rhs),rhsMax =   2.12987280590049E-10  1.82751112336773E-02
 cg2d: Sum(rhs),rhsMax =   2.13006723370768E-10  1.82757123600956E-02
 cg2d: Sum(rhs),rhsMax =   2.13038406360333E-10  1.82763099953210E-02
 cg2d: Sum(rhs),rhsMax =   2.13066647658522E-10  1.82769041279075E-02
 cg2d: Sum(rhs),rhsMax =   2.13100218027229E-10  1.82774947592270E-02
 cg2d: Sum(rhs),rhsMax =   2.13124240477924E-10  1.82780819044439E-02
 Computing Diagnostic #    26 "THETA   " (list#  1) Parms "SMR     MR      ", Count=     144
 Computing Diagnostic #    27 "SALT    " (list#  1) Parms "SMR     MR      ", Count=     144
 Computing Diagnostic #    30 "UVEL    " (list#  1) Parms "UUR     MR      ", Count=     144
             Vector  Mate for "UVEL    " :  Diagnostic #     31 "VVEL    " exists
 Computing Diagnostic #    32 "WVEL    " (list#  1) Parms "WM      LR      ", Count=     144
 Computing Diagnostic #    31 "VVEL    " (list#  1) Parms "VVR     MR      ", Count=     144
             Vector  Mate for "VVEL    " :  Diagnostic #     30 "UVEL    " exists
 Computing Diagnostic #   197 "BRGfwFlx" (list#  2) Parms "SM      MR      ", Count=     144
 Computing Diagnostic #   198 "BRGhtFlx" (list#  2) Parms "SM      MR      ", Count=     144
 Computing Diagnostic #   199 "BRGmltRt" (list#  2) Parms "SM      MR      ", Count=     144
 Computing Diagnostic #   201 "BRG_TauX" (list#  2) Parms "UU      MR      ", Count=    1728
 Computing Diagnostic #   202 "BRG_TauY" (list#  2) Parms "VV      MR      ", Count=    1728
 Computing Diagnostic #   203 "BRGhFacC" (list#  2) Parms "SM      MR      ", Count=    1728
 cg2d: Sum(rhs),rhsMax =   2.13162792972454E-10  1.82786656319787E-02
 cg2d: Sum(rhs),rhsMax =   2.13198556031635E-10  1.82792462078413E-02
 cg2d: Sum(rhs),rhsMax =   2.13234360724179E-10  1.82798235870375E-02
 cg2d: Sum(rhs),rhsMax =   2.13278533722772E-10  1.82803981863893E-02
 cg2d: Sum(rhs),rhsMax =   2.13303569251977E-10  1.82809701599051E-02
 cg2d: Sum(rhs),rhsMax =   2.13348491651111E-10  1.82815397094457E-02
 cg2d: Sum(rhs),rhsMax =   2.13395329184962E-10  1.82821070917709E-02
 cg2d: Sum(rhs),rhsMax =   2.13435755180846E-10  1.82826725095613E-02
 cg2d: Sum(rhs),rhsMax =   2.13465078946484E-10  1.82832361968601E-02
 cg2d: Sum(rhs),rhsMax =   2.13501466506116E-10  1.82837983874351E-02
 cg2d: Sum(rhs),rhsMax =   2.13545500726831E-10  1.82843593095858E-02
 cg2d: Sum(rhs),rhsMax =   2.13575324092830E-10  1.82849191874523E-02
 cg2d: Sum(rhs),rhsMax =   2.13611905941491E-10  1.82854782419573E-02
 cg2d: Sum(rhs),rhsMax =   2.13653497671551E-10  1.82860366880710E-02
 cg2d: Sum(rhs),rhsMax =   2.13702860962783E-10  1.82865947330242E-02
 cg2d: Sum(rhs),rhsMax =   2.13749254407425E-10  1.82871525744142E-02
 cg2d: Sum(rhs),rhsMax =   2.13794898451525E-10  1.82877103904386E-02
 cg2d: Sum(rhs),rhsMax =   2.13815243288451E-10  1.82882683779808E-02
 cg2d: Sum(rhs),rhsMax =   2.13856737873996E-10  1.82888267209932E-02
 cg2d: Sum(rhs),rhsMax =   2.13896553247217E-10  1.82893855814943E-02
 cg2d: Sum(rhs),rhsMax =   2.13939505000482E-10  1.82899451056488E-02
 cg2d: Sum(rhs),rhsMax =   2.13976683594019E-10  1.82905054271995E-02
 cg2d: Sum(rhs),rhsMax =   2.14007048193743E-10  1.82910666705151E-02
 cg2d: Sum(rhs),rhsMax =   2.14041923074504E-10  1.82916289444813E-02
 cg2d: Sum(rhs),rhsMax =   2.14076811833053E-10  1.82921923477701E-02
 cg2d: Sum(rhs),rhsMax =   2.14116266383790E-10  1.82927569739491E-02
 cg2d: Sum(rhs),rhsMax =   2.14145312593672E-10  1.82933228927508E-02
 cg2d: Sum(rhs),rhsMax =   2.14187639846486E-10  1.82938901656870E-02
 cg2d: Sum(rhs),rhsMax =   2.14209178173164E-10  1.82944588418024E-02
 cg2d: Sum(rhs),rhsMax =   2.14244830210042E-10  1.82950289634119E-02
 cg2d: Sum(rhs),rhsMax =   2.14288239930305E-10  1.82956005556682E-02
 cg2d: Sum(rhs),rhsMax =   2.14321616009983E-10  1.82961736309245E-02
 cg2d: Sum(rhs),rhsMax =   2.14350232008442E-10  1.82967481904765E-02
 cg2d: Sum(rhs),rhsMax =   2.14397916087350E-10  1.82973242250358E-02
 cg2d: Sum(rhs),rhsMax =   2.14427531286532E-10  1.82979017148864E-02
 cg2d: Sum(rhs),rhsMax =   2.14457548941560E-10  1.82984806288371E-02
 cg2d: Sum(rhs),rhsMax =   2.14493020567197E-10  1.82990609421031E-02
 cg2d: Sum(rhs),rhsMax =   2.14534348619289E-10  1.82996426739111E-02
 cg2d: Sum(rhs),rhsMax =   2.14562520528538E-10  1.83002257696185E-02
 cg2d: Sum(rhs),rhsMax =   2.14603043668937E-10  1.83008101698284E-02
 cg2d: Sum(rhs),rhsMax =   2.14628523287352E-10  1.83013958106208E-02
 cg2d: Sum(rhs),rhsMax =   2.14672002396554E-10  1.83019826218346E-02
 cg2d: Sum(rhs),rhsMax =   2.14708251178308E-10  1.83025705320336E-02
 cg2d: Sum(rhs),rhsMax =   2.14749912297307E-10  1.83031594633439E-02
 cg2d: Sum(rhs),rhsMax =   2.14792308939060E-10  1.83037493410049E-02
 cg2d: Sum(rhs),rhsMax =   2.14831055722620E-10  1.83043400879478E-02
 cg2d: Sum(rhs),rhsMax =   2.14876366699812E-10  1.83049316272761E-02
 cg2d: Sum(rhs),rhsMax =   2.14917028618089E-10  1.83055238821778E-02
 cg2d: Sum(rhs),rhsMax =   2.14937498355106E-10  1.83061167878835E-02
 cg2d: Sum(rhs),rhsMax =   2.14961951017223E-10  1.83067102641727E-02
 cg2d: Sum(rhs),rhsMax =   2.15008483239743E-10  1.83073042480355E-02
 cg2d: Sum(rhs),rhsMax =   2.15037973538834E-10  1.83078986857171E-02
 cg2d: Sum(rhs),rhsMax =   2.15079329346501E-10  1.83084935216332E-02
 cg2d: Sum(rhs),rhsMax =   2.15102921585775E-10  1.83090887094763E-02
 cg2d: Sum(rhs),rhsMax =   2.15136339298816E-10  1.83096842101465E-02
 cg2d: Sum(rhs),rhsMax =   2.15190545937993E-10  1.83102799978061E-02
 cg2d: Sum(rhs),rhsMax =   2.15215303911442E-10  1.83108760507246E-02
 cg2d: Sum(rhs),rhsMax =   2.15261891645113E-10  1.83114723595614E-02
 cg2d: Sum(rhs),rhsMax =   2.15291187655176E-10  1.83120689257722E-02
 cg2d: Sum(rhs),rhsMax =   2.15334930442346E-10  1.83126657616138E-02
 cg2d: Sum(rhs),rhsMax =   2.15364878708435E-10  1.83132628870730E-02
 cg2d: Sum(rhs),rhsMax =   2.15388262780891E-10  1.83138603351278E-02
 cg2d: Sum(rhs),rhsMax =   2.15419196369915E-10  1.83144581507318E-02
 cg2d: Sum(rhs),rhsMax =   2.15458165198079E-10  1.83150563900324E-02
 cg2d: Sum(rhs),rhsMax =   2.15494094790714E-10  1.83156551229488E-02
 cg2d: Sum(rhs),rhsMax =   2.15527401481452E-10  1.83162544314657E-02
 cg2d: Sum(rhs),rhsMax =   2.15563983330114E-10  1.83168544426254E-02
 cg2d: Sum(rhs),rhsMax =   2.15595249986045E-10  1.83174629110432E-02
 cg2d: Sum(rhs),rhsMax =   2.15642725898135E-10  1.83180765716874E-02
 cg2d: Sum(rhs),rhsMax =   2.15676934645082E-10  1.83186922656074E-02
 cg2d: Sum(rhs),rhsMax =   2.15720830087918E-10  1.83193092500282E-02
 cg2d: Sum(rhs),rhsMax =   2.15758563792967E-10  1.83199273558236E-02
 cg2d: Sum(rhs),rhsMax =   2.15803777625645E-10  1.83205465894596E-02
 cg2d: Sum(rhs),rhsMax =   2.15834627947942E-10  1.83211670178186E-02
 cg2d: Sum(rhs),rhsMax =   2.15875387010733E-10  1.83217886936305E-02
 cg2d: Sum(rhs),rhsMax =   2.15910983536460E-10  1.83224117660116E-02
 cg2d: Sum(rhs),rhsMax =   2.15953185889184E-10  1.83230363617350E-02
 cg2d: Sum(rhs),rhsMax =   2.15983703144573E-10  1.83236625898720E-02
 cg2d: Sum(rhs),rhsMax =   2.16017453924522E-10  1.83242905683503E-02
 cg2d: Sum(rhs),rhsMax =   2.16048179346728E-10  1.83249204245164E-02
 cg2d: Sum(rhs),rhsMax =   2.16084858339904E-10  1.83255522972082E-02
 cg2d: Sum(rhs),rhsMax =   2.16127449270687E-10  1.83261863265654E-02
 cg2d: Sum(rhs),rhsMax =   2.16158702048830E-10  1.83268226597361E-02
 cg2d: Sum(rhs),rhsMax =   2.16174828038262E-10  1.83274614457790E-02
 cg2d: Sum(rhs),rhsMax =   2.16213227877127E-10  1.83281028340909E-02
 cg2d: Sum(rhs),rhsMax =   2.16253515095133E-10  1.83287469776862E-02
 cg2d: Sum(rhs),rhsMax =   2.16292345145419E-10  1.83293940233370E-02
 cg2d: Sum(rhs),rhsMax =   2.16332021740762E-10  1.83300441219361E-02
 cg2d: Sum(rhs),rhsMax =   2.16375375949873E-10  1.83306974138922E-02
 cg2d: Sum(rhs),rhsMax =   2.16402812336369E-10  1.83313540392573E-02
 cg2d: Sum(rhs),rhsMax =   2.16445389389364E-10  1.83320141299901E-02
 cg2d: Sum(rhs),rhsMax =   2.16472229030984E-10  1.83326778088316E-02
 cg2d: Sum(rhs),rhsMax =   2.16520801288311E-10  1.83333451908002E-02
 cg2d: Sum(rhs),rhsMax =   2.16559173371600E-10  1.83340163787125E-02
 cg2d: Sum(rhs),rhsMax =   2.16596990343376E-10  1.83346914682245E-02
 cg2d: Sum(rhs),rhsMax =   2.16633669336552E-10  1.83353705382376E-02
 cg2d: Sum(rhs),rhsMax =   2.16664894359120E-10  1.83360536573388E-02
 cg2d: Sum(rhs),rhsMax =   2.16700296595818E-10  1.83367408791354E-02
 cg2d: Sum(rhs),rhsMax =   2.16746481873642E-10  1.83374322410181E-02
 cg2d: Sum(rhs),rhsMax =   2.16775375427858E-10  1.83381277653049E-02
 cg2d: Sum(rhs),rhsMax =   2.16815634890288E-10  1.83388274604381E-02
 cg2d: Sum(rhs),rhsMax =   2.16846735012766E-10  1.83395313041378E-02
 cg2d: Sum(rhs),rhsMax =   2.16880916004136E-10  1.83402392742246E-02
 cg2d: Sum(rhs),rhsMax =   2.16920190143632E-10  1.83409513213262E-02
 cg2d: Sum(rhs),rhsMax =   2.16951082099293E-10  1.83416673730846E-02
 cg2d: Sum(rhs),rhsMax =   2.16979170741816E-10  1.83423873379755E-02
 cg2d: Sum(rhs),rhsMax =   2.17029533233770E-10  1.83431111056489E-02
 cg2d: Sum(rhs),rhsMax =   2.17053028328529E-10  1.83438385471644E-02
 cg2d: Sum(rhs),rhsMax =   2.17090054266400E-10  1.83445695078277E-02
 cg2d: Sum(rhs),rhsMax =   2.17119766610097E-10  1.83453038161064E-02
 cg2d: Sum(rhs),rhsMax =   2.17146009506841E-10  1.83460412784558E-02
 cg2d: Sum(rhs),rhsMax =   2.17181980732839E-10  1.83467816819714E-02
 cg2d: Sum(rhs),rhsMax =   2.17221005072155E-10  1.83475247911592E-02
 cg2d: Sum(rhs),rhsMax =   2.17261583723705E-10  1.83482703542737E-02
 cg2d: Sum(rhs),rhsMax =   2.17284176762256E-10  1.83490180979177E-02
 cg2d: Sum(rhs),rhsMax =   2.17312973171957E-10  1.83497677325012E-02
 cg2d: Sum(rhs),rhsMax =   2.17346515785088E-10  1.83505189510521E-02
 cg2d: Sum(rhs),rhsMax =   2.17382029044089E-10  1.83512714261298E-02
 cg2d: Sum(rhs),rhsMax =   2.17403678393069E-10  1.83520248204504E-02
 cg2d: Sum(rhs),rhsMax =   2.17434084626156E-10  1.83527787673389E-02
 cg2d: Sum(rhs),rhsMax =   2.17480200515041E-10  1.83535327925796E-02
 cg2d: Sum(rhs),rhsMax =   2.17501489041538E-10  1.83542865156094E-02
 cg2d: Sum(rhs),rhsMax =   2.17541984426362E-10  1.83550395470707E-02
 cg2d: Sum(rhs),rhsMax =   2.17576748284820E-10  1.83557914876942E-02
 cg2d: Sum(rhs),rhsMax =   2.17608944752534E-10  1.83565419294405E-02
 cg2d: Sum(rhs),rhsMax =   2.17659279488913E-10  1.83572904601376E-02
 cg2d: Sum(rhs),rhsMax =   2.17688270187644E-10  1.83580366603599E-02
 cg2d: Sum(rhs),rhsMax =   2.17726919826688E-10  1.83587801123287E-02
 cg2d: Sum(rhs),rhsMax =   2.17759130172190E-10  1.83595203954935E-02
 cg2d: Sum(rhs),rhsMax =   2.17789258849521E-10  1.83602570874117E-02
 cg2d: Sum(rhs),rhsMax =   2.17821552461750E-10  1.83609897719008E-02
 cg2d: Sum(rhs),rhsMax =   2.17867557328333E-10  1.83617180343685E-02
 cg2d: Sum(rhs),rhsMax =   2.17898560306296E-10  1.83624414690749E-02
 cg2d: Sum(rhs),rhsMax =   2.17938167512699E-10  1.83631596776521E-02
 cg2d: Sum(rhs),rhsMax =   2.17975956728900E-10  1.83638722726455E-02
 cg2d: Sum(rhs),rhsMax =   2.18009832408939E-10  1.83645788761646E-02
 cg2d: Sum(rhs),rhsMax =   2.18038184729430E-10  1.83652791232897E-02
 cg2d: Sum(rhs),rhsMax =   2.18077278457685E-10  1.83659726679975E-02
 cg2d: Sum(rhs),rhsMax =   2.18115164818400E-10  1.83666591771476E-02
 cg2d: Sum(rhs),rhsMax =   2.18160281506563E-10  1.83673383384217E-02
 cg2d: Sum(rhs),rhsMax =   2.18198653589852E-10  1.83680098589910E-02
 cg2d: Sum(rhs),rhsMax =   2.18242202087993E-10  1.83686734684317E-02
 cg2d: Sum(rhs),rhsMax =   2.18269138874128E-10  1.83693289169170E-02
 cg2d: Sum(rhs),rhsMax =   2.18313395139447E-10  1.83699759815160E-02
 Computing Diagnostic #    26 "THETA   " (list#  1) Parms "SMR     MR      ", Count=     144
 Computing Diagnostic #    27 "SALT    " (list#  1) Parms "SMR     MR      ", Count=     144
 Computing Diagnostic #    30 "UVEL    " (list#  1) Parms "UUR     MR      ", Count=     144
             Vector  Mate for "UVEL    " :  Diagnostic #     31 "VVEL    " exists
 Computing Diagnostic #    32 "WVEL    " (list#  1) Parms "WM      LR      ", Count=     144
 Computing Diagnostic #    31 "VVEL    " (list#  1) Parms "VVR     MR      ", Count=     144
             Vector  Mate for "VVEL    " :  Diagnostic #     30 "UVEL    " exists
 Computing Diagnostic #   197 "BRGfwFlx" (list#  2) Parms "SM      MR      ", Count=     144
 Computing Diagnostic #   198 "BRGhtFlx" (list#  2) Parms "SM      MR      ", Count=     144
 Computing Diagnostic #   199 "BRGmltRt" (list#  2) Parms "SM      MR      ", Count=     144
 Computing Diagnostic #   201 "BRG_TauX" (list#  2) Parms "UU      MR      ", Count=    1728
 Computing Diagnostic #   202 "BRG_TauY" (list#  2) Parms "VV      MR      ", Count=    1728
 Computing Diagnostic #   203 "BRGhFacC" (list#  2) Parms "SM      MR      ", Count=    1728
 cg2d: Sum(rhs),rhsMax =   2.18350643121923E-10  1.83706144633505E-02
 cg2d: Sum(rhs),rhsMax =   2.18380660776951E-10  1.83712441889333E-02
 cg2d: Sum(rhs),rhsMax =   2.18415036057351E-10  1.83718650159159E-02
 cg2d: Sum(rhs),rhsMax =   2.18451451372559E-10  1.83724768291409E-02
 cg2d: Sum(rhs),rhsMax =   2.18490114889391E-10  1.83730795396822E-02
 cg2d: Sum(rhs),rhsMax =   2.18527487771958E-10  1.83736730914866E-02
 cg2d: Sum(rhs),rhsMax =   2.18569037868654E-10  1.83742574582904E-02
 cg2d: Sum(rhs),rhsMax =   2.18597126511177E-10  1.83748326542105E-02
 cg2d: Sum(rhs),rhsMax =   2.18624215952978E-10  1.83753987048242E-02
 cg2d: Sum(rhs),rhsMax =   2.18678200547551E-10  1.83759556722182E-02
 cg2d: Sum(rhs),rhsMax =   2.18701348697614E-10  1.83765036539895E-02
 cg2d: Sum(rhs),rhsMax =   2.18742246538284E-10  1.83770427788365E-02
 cg2d: Sum(rhs),rhsMax =   2.18773207882883E-10  1.83775732104747E-02
 cg2d: Sum(rhs),rhsMax =   2.18819018460437E-10  1.83780951388301E-02
 cg2d: Sum(rhs),rhsMax =   2.18866605394830E-10  1.83786087829704E-02
 cg2d: Sum(rhs),rhsMax =   2.18900300663627E-10  1.83791143911653E-02
 cg2d: Sum(rhs),rhsMax =   2.18937715179557E-10  1.83796122249771E-02
 cg2d: Sum(rhs),rhsMax =   2.18982623700903E-10  1.83801026408274E-02
 cg2d: Sum(rhs),rhsMax =   2.19020870884101E-10  1.83805859826276E-02
 cg2d: Sum(rhs),rhsMax =   2.19046336624729E-10  1.83810624936443E-02
 cg2d: Sum(rhs),rhsMax =   2.19077936347567E-10  1.83815325500247E-02
 cg2d: Sum(rhs),rhsMax =   2.19112297750179E-10  1.83819965904875E-02
 cg2d: Sum(rhs),rhsMax =   2.19164450476761E-10  1.83824550388985E-02
 cg2d: Sum(rhs),rhsMax =   2.19191553796350E-10  1.83829083361651E-02
 cg2d: Sum(rhs),rhsMax =   2.19226789499594E-10  1.83833569286731E-02
 cg2d: Sum(rhs),rhsMax =   2.19264481571280E-10  1.83838012520531E-02
 cg2d: Sum(rhs),rhsMax =   2.19304782667074E-10  1.83842417649218E-02
 cg2d: Sum(rhs),rhsMax =   2.19335036244495E-10  1.83846789575931E-02
 cg2d: Sum(rhs),rhsMax =   2.19377294108369E-10  1.83851133250539E-02
 cg2d: Sum(rhs),rhsMax =   2.19416443347775E-10  1.83855453668182E-02
 cg2d: Sum(rhs),rhsMax =   2.19459256323162E-10  1.83859755819333E-02
 cg2d: Sum(rhs),rhsMax =   2.19492826691869E-10  1.83864044680702E-02
 cg2d: Sum(rhs),rhsMax =   2.19528381584233E-10  1.83868325218440E-02
 cg2d: Sum(rhs),rhsMax =   2.19564089132263E-10  1.83872602347724E-02
 cg2d: Sum(rhs),rhsMax =   2.19606083318169E-10  1.83876880897811E-02
 cg2d: Sum(rhs),rhsMax =   2.19653448207957E-10  1.83881165622633E-02
 cg2d: Sum(rhs),rhsMax =   2.19687643077116E-10  1.83885461148570E-02
 cg2d: Sum(rhs),rhsMax =   2.19718868099683E-10  1.83889771992837E-02
 cg2d: Sum(rhs),rhsMax =   2.19746748575389E-10  1.83894102504072E-02
 cg2d: Sum(rhs),rhsMax =   2.19793752642694E-10  1.83898456861597E-02
 cg2d: Sum(rhs),rhsMax =   2.19839119131038E-10  1.83902839039607E-02
 cg2d: Sum(rhs),rhsMax =   2.19874354834282E-10  1.83907252801113E-02
 cg2d: Sum(rhs),rhsMax =   2.19910242793553E-10  1.83911701657945E-02
 cg2d: Sum(rhs),rhsMax =   2.19949100599415E-10  1.83916189023491E-02
 cg2d: Sum(rhs),rhsMax =   2.19980797466768E-10  1.83920717841991E-02
 cg2d: Sum(rhs),rhsMax =   2.20012272289516E-10  1.83925290370819E-02
 cg2d: Sum(rhs),rhsMax =   2.20046314503008E-10  1.83929909230560E-02
 cg2d: Sum(rhs),rhsMax =   2.20094747982458E-10  1.83934576788504E-02
 cg2d: Sum(rhs),rhsMax =   2.20136131545701E-10  1.83939294758161E-02
 cg2d: Sum(rhs),rhsMax =   2.20177723275761E-10  1.83944064478678E-02
 cg2d: Sum(rhs),rhsMax =   2.20212348356341E-10  1.83948886917226E-02
 cg2d: Sum(rhs),rhsMax =   2.20252982519042E-10  1.83953762904667E-02
 cg2d: Sum(rhs),rhsMax =   2.20291715424814E-10  1.83958692882488E-02
 cg2d: Sum(rhs),rhsMax =   2.20318027710498E-10  1.83963676833005E-02
 cg2d: Sum(rhs),rhsMax =   2.20359466784892E-10  1.83968714400028E-02
 cg2d: Sum(rhs),rhsMax =   2.20398935213417E-10  1.83973804897208E-02
 cg2d: Sum(rhs),rhsMax =   2.20436294218196E-10  1.83978947232959E-02
 cg2d: Sum(rhs),rhsMax =   2.20462370581487E-10  1.83984139996390E-02
 cg2d: Sum(rhs),rhsMax =   2.20505183556874E-10  1.83989381412247E-02
 cg2d: Sum(rhs),rhsMax =   2.20540655182511E-10  1.83994669415002E-02
 cg2d: Sum(rhs),rhsMax =   2.20578957876860E-10  1.84000001582391E-02
 cg2d: Sum(rhs),rhsMax =   2.20623824764843E-10  1.84005375200936E-02
 cg2d: Sum(rhs),rhsMax =   2.20652482396666E-10  1.84010782925392E-02
 cg2d: Sum(rhs),rhsMax =   2.20697196628983E-10  1.84016220957633E-02
 cg2d: Sum(rhs),rhsMax =   2.20725160371416E-10  1.84021685825163E-02
 cg2d: Sum(rhs),rhsMax =   2.20766294134478E-10  1.84027173683965E-02
 cg2d: Sum(rhs),rhsMax =   2.20799864503185E-10  1.84032680503832E-02
 cg2d: Sum(rhs),rhsMax =   2.20839221909408E-10  1.84038202069188E-02
 cg2d: Sum(rhs),rhsMax =   2.20865242761548E-10  1.84043733946982E-02
 cg2d: Sum(rhs),rhsMax =   2.20901213987545E-10  1.84049271546998E-02
 cg2d: Sum(rhs),rhsMax =   2.20929260996705E-10  1.84054810173015E-02
 cg2d: Sum(rhs),rhsMax =   2.20968923714260E-10  1.84060344985062E-02
 cg2d: Sum(rhs),rhsMax =   2.21007129264095E-10  1.84065871046788E-02
 cg2d: Sum(rhs),rhsMax =   2.21049234472304E-10  1.84071383235819E-02
 cg2d: Sum(rhs),rhsMax =   2.21079807238844E-10  1.84076876901809E-02
 cg2d: Sum(rhs),rhsMax =   2.21125520671883E-10  1.84082347054863E-02
 cg2d: Sum(rhs),rhsMax =   2.21158327762261E-10  1.84087788607445E-02
 cg2d: Sum(rhs),rhsMax =   2.21208051875976E-10  1.84093196586898E-02
 cg2d: Sum(rhs),rhsMax =   2.21236362563104E-10  1.84098566216205E-02
 cg2d: Sum(rhs),rhsMax =   2.21275664458176E-10  1.84103892803217E-02
 cg2d: Sum(rhs),rhsMax =   2.21314716553067E-10  1.84109171751399E-02
 cg2d: Sum(rhs),rhsMax =   2.21345844431120E-10  1.84114398634609E-02
 cg2d: Sum(rhs),rhsMax =   2.21391807664340E-10  1.84119569239958E-02
 cg2d: Sum(rhs),rhsMax =   2.21432150393497E-10  1.84124679544817E-02
 cg2d: Sum(rhs),rhsMax =   2.21473769879132E-10  1.84129725803285E-02
 cg2d: Sum(rhs),rhsMax =   2.21500387476148E-10  1.84134704516447E-02
 cg2d: Sum(rhs),rhsMax =   2.21547238887787E-10  1.84139612458224E-02
 cg2d: Sum(rhs),rhsMax =   2.21579796177984E-10  1.84144446733063E-02
 cg2d: Sum(rhs),rhsMax =   2.21617307838429E-10  1.84149204726180E-02
 cg2d: Sum(rhs),rhsMax =   2.21652904364156E-10  1.84153884205157E-02
 cg2d: Sum(rhs),rhsMax =   2.21699769653583E-10  1.84158483267874E-02
 cg2d: Sum(rhs),rhsMax =   2.21728468918769E-10  1.84163000381486E-02
 cg2d: Sum(rhs),rhsMax =   2.21759804963639E-10  1.84167434412306E-02
 cg2d: Sum(rhs),rhsMax =   2.21815288359295E-10  1.84171784618547E-02
 cg2d: Sum(rhs),rhsMax =   2.21852120008137E-10  1.84176050657544E-02
 cg2d: Sum(rhs),rhsMax =   2.21891810481267E-10  1.84180232598181E-02
 cg2d: Sum(rhs),rhsMax =   2.21930016031102E-10  1.84184330934732E-02
 cg2d: Sum(rhs),rhsMax =   2.21968540770057E-10  1.84188346566550E-02
 cg2d: Sum(rhs),rhsMax =   2.22017640383321E-10  1.84192280826261E-02
 cg2d: Sum(rhs),rhsMax =   2.22049323372886E-10  1.84196135465256E-02
 cg2d: Sum(rhs),rhsMax =   2.22082838230442E-10  1.84199912236656E-02
 cg2d: Sum(rhs),rhsMax =   2.22114632242310E-10  1.84203614301078E-02
 cg2d: Sum(rhs),rhsMax =   2.22175194908303E-10  1.84207243984261E-02
 cg2d: Sum(rhs),rhsMax =   2.22209944888974E-10  1.84210804432046E-02
 cg2d: Sum(rhs),rhsMax =   2.22257046100793E-10  1.84214299295029E-02
 cg2d: Sum(rhs),rhsMax =   2.22280346906523E-10  1.84217732612664E-02
 cg2d: Sum(rhs),rhsMax =   2.22333526589402E-10  1.84221108704157E-02
 cg2d: Sum(rhs),rhsMax =   2.22376783653999E-10  1.84224432201863E-02
 cg2d: Sum(rhs),rhsMax =   2.22406704164513E-10  1.84227708074164E-02
 cg2d: Sum(rhs),rhsMax =   2.22439719421708E-10  1.84230941593157E-02
 cg2d: Sum(rhs),rhsMax =   2.22481894018856E-10  1.84234137808742E-02
 cg2d: Sum(rhs),rhsMax =   2.22532547944354E-10  1.84237302715749E-02
 cg2d: Sum(rhs),rhsMax =   2.22572307806423E-10  1.84240443050448E-02
 cg2d: Sum(rhs),rhsMax =   2.22606266753189E-10  1.84243565001099E-02
 cg2d: Sum(rhs),rhsMax =   2.22634050084380E-10  1.84246674648927E-02
 cg2d: Sum(rhs),rhsMax =   2.22669105376383E-10  1.84249778489391E-02
 cg2d: Sum(rhs),rhsMax =   2.22696444618364E-10  1.84252883173424E-02
 cg2d: Sum(rhs),rhsMax =   2.22741936006798E-10  1.84255995477422E-02
 cg2d: Sum(rhs),rhsMax =   2.22788648640559E-10  1.84259122186241E-02
 cg2d: Sum(rhs),rhsMax =   2.22828450135992E-10  1.84262270076313E-02
 cg2d: Sum(rhs),rhsMax =   2.22867085897249E-10  1.84265445985984E-02
 cg2d: Sum(rhs),rhsMax =   2.22910051528302E-10  1.84268656642457E-02
 cg2d: Sum(rhs),rhsMax =   2.22946591743600E-10  1.84271908718334E-02
 cg2d: Sum(rhs),rhsMax =   2.22990542697588E-10  1.84275208879347E-02
 cg2d: Sum(rhs),rhsMax =   2.23035673263539E-10  1.84278563619750E-02
 cg2d: Sum(rhs),rhsMax =   2.23073379213012E-10  1.84281979191627E-02
 cg2d: Sum(rhs),rhsMax =   2.23120494302620E-10  1.84285461672930E-02
 cg2d: Sum(rhs),rhsMax =   2.23159823953267E-10  1.84289016911473E-02
 cg2d: Sum(rhs),rhsMax =   2.23206578220392E-10  1.84292650520439E-02
 cg2d: Sum(rhs),rhsMax =   2.23233501128739E-10  1.84296367785863E-02
 cg2d: Sum(rhs),rhsMax =   2.23277882294148E-10  1.84300173666134E-02
 cg2d: Sum(rhs),rhsMax =   2.23323637360551E-10  1.84304072729799E-02
 cg2d: Sum(rhs),rhsMax =   2.23363202933591E-10  1.84308069444201E-02
 cg2d: Sum(rhs),rhsMax =   2.23389362563609E-10  1.84312167748502E-02
 cg2d: Sum(rhs),rhsMax =   2.23432231050147E-10  1.84316371024216E-02
 cg2d: Sum(rhs),rhsMax =   2.23459556414340E-10  1.84320682497906E-02
 cg2d: Sum(rhs),rhsMax =   2.23486631978354E-10  1.84325104875310E-02
 cg2d: Sum(rhs),rhsMax =   2.23520285613787E-10  1.84329640384224E-02
 cg2d: Sum(rhs),rhsMax =   2.23576560043348E-10  1.84334290813469E-02
 cg2d: Sum(rhs),rhsMax =   2.23604079696571E-10  1.84339057415060E-02
 cg2d: Sum(rhs),rhsMax =   2.23638399465820E-10  1.84343940957614E-02
 cg2d: Sum(rhs),rhsMax =   2.23673080057551E-10  1.84348941768005E-02
 cg2d: Sum(rhs),rhsMax =   2.23708093716191E-10  1.84354059661033E-02
 cg2d: Sum(rhs),rhsMax =   2.23744342497945E-10  1.84359293866918E-02
 Computing Diagnostic #    26 "THETA   " (list#  1) Parms "SMR     MR      ", Count=     144
 Computing Diagnostic #    27 "SALT    " (list#  1) Parms "SMR     MR      ", Count=     144
 Computing Diagnostic #    30 "UVEL    " (list#  1) Parms "UUR     MR      ", Count=     144
             Vector  Mate for "UVEL    " :  Diagnostic #     31 "VVEL    " exists
 Computing Diagnostic #    32 "WVEL    " (list#  1) Parms "WM      LR      ", Count=     144
 Computing Diagnostic #    31 "VVEL    " (list#  1) Parms "VVR     MR      ", Count=     144
             Vector  Mate for "VVEL    " :  Diagnostic #     30 "UVEL    " exists
 Computing Diagnostic #   197 "BRGfwFlx" (list#  2) Parms "SM      MR      ", Count=     144
 Computing Diagnostic #   198 "BRGhtFlx" (list#  2) Parms "SM      MR      ", Count=     144
 Computing Diagnostic #   199 "BRGmltRt" (list#  2) Parms "SM      MR      ", Count=     144
 Computing Diagnostic #   201 "BRG_TauX" (list#  2) Parms "UU      MR      ", Count=    1728
 Computing Diagnostic #   202 "BRG_TauY" (list#  2) Parms "VV      MR      ", Count=    1728
 Computing Diagnostic #   203 "BRGhFacC" (list#  2) Parms "SM      MR      ", Count=    1728
 cg2d: Sum(rhs),rhsMax =   2.23784005215499E-10  1.84364643145731E-02
 cg2d: Sum(rhs),rhsMax =   2.23808846455675E-10  1.84370105793456E-02
 cg2d: Sum(rhs),rhsMax =   2.23858070969030E-10  1.84375679588437E-02
 cg2d: Sum(rhs),rhsMax =   2.23893695250332E-10  1.84381361844893E-02
 cg2d: Sum(rhs),rhsMax =   2.23931068132899E-10  1.84387149388652E-02
 cg2d: Sum(rhs),rhsMax =   2.23965526680026E-10  1.84393038578718E-02
 cg2d: Sum(rhs),rhsMax =   2.23999929716001E-10  1.84399025368548E-02
 cg2d: Sum(rhs),rhsMax =   2.24034804596762E-10  1.84405105252447E-02
 cg2d: Sum(rhs),rhsMax =   2.24065141440910E-10  1.84411273344064E-02
 cg2d: Sum(rhs),rhsMax =   2.24096297074539E-10  1.84417524361232E-02
 cg2d: Sum(rhs),rhsMax =   2.24138776983018E-10  1.84423852701746E-02
 cg2d: Sum(rhs),rhsMax =   2.24170224050191E-10  1.84430252403345E-02
 cg2d: Sum(rhs),rhsMax =   2.24205598531313E-10  1.84436717204185E-02
 cg2d: Sum(rhs),rhsMax =   2.24236768042729E-10  1.84443240589981E-02
 cg2d: Sum(rhs),rhsMax =   2.24278914884302E-10  1.84449815790024E-02
 cg2d: Sum(rhs),rhsMax =   2.24307822316305E-10  1.84456435838008E-02
 cg2d: Sum(rhs),rhsMax =   2.24340920840227E-10  1.84463093574654E-02
 cg2d: Sum(rhs),rhsMax =   2.24377627588979E-10  1.84469781726296E-02
 cg2d: Sum(rhs),rhsMax =   2.24409754667754E-10  1.84476492892708E-02
 cg2d: Sum(rhs),rhsMax =   2.24442187057861E-10  1.84483219612990E-02
 cg2d: Sum(rhs),rhsMax =   2.24468277298939E-10  1.84489954359077E-02
 cg2d: Sum(rhs),rhsMax =   2.24488455602412E-10  1.84496689657328E-02
 cg2d: Sum(rhs),rhsMax =   2.24533627801726E-10  1.84503418042603E-02
 cg2d: Sum(rhs),rhsMax =   2.24587001773635E-10  1.84510132112508E-02
 cg2d: Sum(rhs),rhsMax =   2.24610746668574E-10  1.84516824575103E-02
 cg2d: Sum(rhs),rhsMax =   2.24642388024776E-10  1.84523488294559E-02
 cg2d: Sum(rhs),rhsMax =   2.24679275184769E-10  1.84530116285685E-02
 cg2d: Sum(rhs),rhsMax =   2.24719992614197E-10  1.84536701768233E-02
 cg2d: Sum(rhs),rhsMax =   2.24748081256720E-10  1.84543238210582E-02
 cg2d: Sum(rhs),rhsMax =   2.24777391144571E-10  1.84549719333889E-02
 cg2d: Sum(rhs),rhsMax =   2.24818538785421E-10  1.84556139148801E-02
 cg2d: Sum(rhs),rhsMax =   2.24868457188165E-10  1.84562491994080E-02
 cg2d: Sum(rhs),rhsMax =   2.24899238121523E-10  1.84568772544326E-02
 cg2d: Sum(rhs),rhsMax =   2.24944327054111E-10  1.84574975649619E-02
 cg2d: Sum(rhs),rhsMax =   2.24969987083767E-10  1.84581096930311E-02
 cg2d: Sum(rhs),rhsMax =   2.25017102173375E-10  1.84587132311382E-02
 cg2d: Sum(rhs),rhsMax =   2.25062204983750E-10  1.84593077953133E-02
 cg2d: Sum(rhs),rhsMax =   2.25087226635168E-10  1.84598930595167E-02
 cg2d: Sum(rhs),rhsMax =   2.25123003572136E-10  1.84604687300750E-02
 cg2d: Sum(rhs),rhsMax =   2.25152368971138E-10  1.84610345601325E-02
 cg2d: Sum(rhs),rhsMax =   2.25192253733297E-10  1.84615903575734E-02
 cg2d: Sum(rhs),rhsMax =   2.25227128614058E-10  1.84621359694683E-02
 cg2d: Sum(rhs),rhsMax =   2.25265459063984E-10  1.84626712933631E-02
 cg2d: Sum(rhs),rhsMax =   2.25294283229260E-10  1.84631962698603E-02
 cg2d: Sum(rhs),rhsMax =   2.25333252057425E-10  1.84637108886746E-02
 cg2d: Sum(rhs),rhsMax =   2.25371471485047E-10  1.84642151846369E-02
 cg2d: Sum(rhs),rhsMax =   2.25399129916148E-10  1.84647092323700E-02
 cg2d: Sum(rhs),rhsMax =   2.25424942601471E-10  1.84651931545963E-02
 cg2d: Sum(rhs),rhsMax =   2.25468144154917E-10  1.84656671129181E-02
 cg2d: Sum(rhs),rhsMax =   2.25507432172201E-10  1.84661313106307E-02
 cg2d: Sum(rhs),rhsMax =   2.25562943323432E-10  1.84665859891606E-02
 cg2d: Sum(rhs),rhsMax =   2.25590948699228E-10  1.84670314227231E-02
 cg2d: Sum(rhs),rhsMax =   2.25629931405180E-10  1.84674679237931E-02
 cg2d: Sum(rhs),rhsMax =   2.25659213537455E-10  1.84678958348408E-02
 cg2d: Sum(rhs),rhsMax =   2.25687565857946E-10  1.84683155290453E-02
 cg2d: Sum(rhs),rhsMax =   2.25726243252566E-10  1.84687274037607E-02
 cg2d: Sum(rhs),rhsMax =   2.25746255022585E-10  1.84691318827659E-02
 cg2d: Sum(rhs),rhsMax =   2.25794327679552E-10  1.84695294091853E-02
 cg2d: Sum(rhs),rhsMax =   2.25832130773540E-10  1.84699204443133E-02
 cg2d: Sum(rhs),rhsMax =   2.25871515935339E-10  1.84703054646907E-02
 cg2d: Sum(rhs),rhsMax =   2.25917479168558E-10  1.84706849609100E-02
 cg2d: Sum(rhs),rhsMax =   2.25956905963720E-10  1.84710594532679E-02
 cg2d: Sum(rhs),rhsMax =   2.25989310598251E-10  1.84714294127886E-02
 cg2d: Sum(rhs),rhsMax =   2.26027571659237E-10  1.84717953188755E-02
 cg2d: Sum(rhs),rhsMax =   2.26058810559593E-10  1.84721576995732E-02
 cg2d: Sum(rhs),rhsMax =   2.26105106859720E-10  1.84725170746781E-02
 cg2d: Sum(rhs),rhsMax =   2.26148128001924E-10  1.84728739377280E-02
 cg2d: Sum(rhs),rhsMax =   2.26194271646385E-10  1.84732287818582E-02
 cg2d: Sum(rhs),rhsMax =   2.26233379252427E-10  1.84735820536269E-02
 cg2d: Sum(rhs),rhsMax =   2.26275095882578E-10  1.84739341908082E-02
 cg2d: Sum(rhs),rhsMax =   2.26309582185280E-10  1.84742856415527E-02
 cg2d: Sum(rhs),rhsMax =   2.26341417830511E-10  1.84746368276846E-02
 cg2d: Sum(rhs),rhsMax =   2.26374682887887E-10  1.84749881446206E-02
 cg2d: Sum(rhs),rhsMax =   2.26412694148692E-10  1.84753399592122E-02
 cg2d: Sum(rhs),rhsMax =   2.26449137219475E-10  1.84756926090812E-02
 cg2d: Sum(rhs),rhsMax =   2.26496738031656E-10  1.84760464050598E-02
 cg2d: Sum(rhs),rhsMax =   2.26535068481581E-10  1.84764016249633E-02
 cg2d: Sum(rhs),rhsMax =   2.26554983107086E-10  1.84767585137363E-02
 cg2d: Sum(rhs),rhsMax =   2.26593854790735E-10  1.84771172852833E-02
 cg2d: Sum(rhs),rhsMax =   2.26634863653707E-10  1.84774781142572E-02
 cg2d: Sum(rhs),rhsMax =   2.26674928827109E-10  1.84778411413340E-02
 cg2d: Sum(rhs),rhsMax =   2.26716034834595E-10  1.84782064767338E-02
 cg2d: Sum(rhs),rhsMax =   2.26754101606552E-10  1.84785741915527E-02
 cg2d: Sum(rhs),rhsMax =   2.26791002644333E-10  1.84789443192725E-02
 cg2d: Sum(rhs),rhsMax =   2.26824628524191E-10  1.84793168595400E-02
 cg2d: Sum(rhs),rhsMax =   2.26863486330053E-10  1.84796917818213E-02
 cg2d: Sum(rhs),rhsMax =   2.26906229916501E-10  1.84800690183786E-02
 cg2d: Sum(rhs),rhsMax =   2.26947294290625E-10  1.84804484657972E-02
 cg2d: Sum(rhs),rhsMax =   2.26982155293598E-10  1.84808299912108E-02
 cg2d: Sum(rhs),rhsMax =   2.27014157472283E-10  1.84812134282143E-02
 cg2d: Sum(rhs),rhsMax =   2.27046353939997E-10  1.84815985748686E-02
 cg2d: Sum(rhs),rhsMax =   2.27089652637957E-10  1.84819852050339E-02
 cg2d: Sum(rhs),rhsMax =   2.27135033004089E-10  1.84823730716777E-02
 cg2d: Sum(rhs),rhsMax =   2.27169533184579E-10  1.84827619035382E-02
 cg2d: Sum(rhs),rhsMax =   2.27215191106467E-10  1.84831514077663E-02
 cg2d: Sum(rhs),rhsMax =   2.27249011275354E-10  1.84835412727088E-02
 cg2d: Sum(rhs),rhsMax =   2.27298471711102E-10  1.84839311743523E-02
 cg2d: Sum(rhs),rhsMax =   2.27335206215429E-10  1.84843207713166E-02
 cg2d: Sum(rhs),rhsMax =   2.27372703998086E-10  1.84847097125141E-02
 cg2d: Sum(rhs),rhsMax =   2.27404498009953E-10  1.84850976426456E-02
 cg2d: Sum(rhs),rhsMax =   2.27452293111163E-10  1.84854841899697E-02
 cg2d: Sum(rhs),rhsMax =   2.27485724701992E-10  1.84858690060750E-02
 cg2d: Sum(rhs),rhsMax =   2.27519225681760E-10  1.84862517241394E-02
 cg2d: Sum(rhs),rhsMax =   2.27562801935477E-10  1.84866319836016E-02
 cg2d: Sum(rhs),rhsMax =   2.27608584757455E-10  1.84870094406599E-02
 cg2d: Sum(rhs),rhsMax =   2.27641794303679E-10  1.84873837611105E-02
 cg2d: Sum(rhs),rhsMax =   2.27681845599292E-10  1.84877546100447E-02
 cg2d: Sum(rhs),rhsMax =   2.27714305744975E-10  1.84881216711513E-02
 cg2d: Sum(rhs),rhsMax =   2.27745308722938E-10  1.84884846549868E-02
 cg2d: Sum(rhs),rhsMax =   2.27789953566315E-10  1.84888432999759E-02
 cg2d: Sum(rhs),rhsMax =   2.27829852206263E-10  1.84891973629027E-02
 cg2d: Sum(rhs),rhsMax =   2.27856122858583E-10  1.84895466273815E-02
 cg2d: Sum(rhs),rhsMax =   2.27899796256814E-10  1.84898909053617E-02
 cg2d: Sum(rhs),rhsMax =   2.27937113628229E-10  1.84902300392392E-02
 cg2d: Sum(rhs),rhsMax =   2.27976415523301E-10  1.84905639052212E-02
 cg2d: Sum(rhs),rhsMax =   2.28018062764512E-10  1.84908924126868E-02
 cg2d: Sum(rhs),rhsMax =   2.28045637928886E-10  1.84912155074097E-02
 cg2d: Sum(rhs),rhsMax =   2.28079638509016E-10  1.84915331750090E-02
 cg2d: Sum(rhs),rhsMax =   2.28124574785937E-10  1.84918454412685E-02
 cg2d: Sum(rhs),rhsMax =   2.28169982907644E-10  1.84921523645815E-02
 cg2d: Sum(rhs),rhsMax =   2.28202359786600E-10  1.84924540598111E-02
 cg2d: Sum(rhs),rhsMax =   2.28252028389164E-10  1.84927506619751E-02
 cg2d: Sum(rhs),rhsMax =   2.28288485337735E-10  1.84930423950598E-02
 cg2d: Sum(rhs),rhsMax =   2.28332436291723E-10  1.84933294240033E-02
 cg2d: Sum(rhs),rhsMax =   2.28379634648057E-10  1.84936119718994E-02
 cg2d: Sum(rhs),rhsMax =   2.28416743852655E-10  1.84938903431036E-02
 cg2d: Sum(rhs),rhsMax =   2.28449578698608E-10  1.84941648849472E-02
 cg2d: Sum(rhs),rhsMax =   2.28481761288535E-10  1.84944359810852E-02
 cg2d: Sum(rhs),rhsMax =   2.28527016754576E-10  1.84947040431505E-02
 cg2d: Sum(rhs),rhsMax =   2.28570107285719E-10  1.84949695377827E-02
 cg2d: Sum(rhs),rhsMax =   2.28618596276320E-10  1.84952329326388E-02
 cg2d: Sum(rhs),rhsMax =   2.28650223754734E-10  1.84954947201219E-02
 cg2d: Sum(rhs),rhsMax =   2.28695215542807E-10  1.84957554272790E-02
 cg2d: Sum(rhs),rhsMax =   2.28735225205057E-10  1.84960156001008E-02
 cg2d: Sum(rhs),rhsMax =   2.28777663480173E-10  1.84962758085530E-02
 cg2d: Sum(rhs),rhsMax =   2.28830912551992E-10  1.84965366342217E-02
 cg2d: Sum(rhs),rhsMax =   2.28862651052708E-10  1.84967986787238E-02
 cg2d: Sum(rhs),rhsMax =   2.28915650324346E-10  1.84970625607200E-02
 cg2d: Sum(rhs),rhsMax =   2.28951302361224E-10  1.84973289047432E-02
 cg2d: Sum(rhs),rhsMax =   2.29000679530245E-10  1.84975983464926E-02
 cg2d: Sum(rhs),rhsMax =   2.29040272858860E-10  1.84978715217274E-02
 cg2d: Sum(rhs),rhsMax =   2.29094673787067E-10  1.84981490702621E-02
 cg2d: Sum(rhs),rhsMax =   2.29133767515322E-10  1.84984316215318E-02
 cg2d: Sum(rhs),rhsMax =   2.29173680033057E-10  1.84987198037000E-02
(PID.TID 0000.0001)      cg2d_init_res =   1.55424382367495E-04
(PID.TID 0000.0001)      cg2d_iters(min,last) =      -1      40
(PID.TID 0000.0001)      cg2d_last_res =   5.79046136186734E-14
(PID.TID 0000.0001) // =======================================================
(PID.TID 0000.0001) // Begin MONITOR dynamic field statistics
(PID.TID 0000.0001) // =======================================================
(PID.TID 0000.0001) %MON time_tsnumber                =                  6912
(PID.TID 0000.0001) %MON time_secondsf                =   1.7280000000000E+05
(PID.TID 0000.0001) %MON dynstat_eta_max              =   5.6292390987109E-03
(PID.TID 0000.0001) %MON dynstat_eta_min              =  -2.7063145670130E-03
(PID.TID 0000.0001) %MON dynstat_eta_mean             =  -2.8393963188245E-14
(PID.TID 0000.0001) %MON dynstat_eta_sd               =   2.8213009950300E-03
(PID.TID 0000.0001) %MON dynstat_eta_del2             =   2.4154650759496E-05
(PID.TID 0000.0001) %MON dynstat_uvel_max             =   4.8866730439403E-02
(PID.TID 0000.0001) %MON dynstat_uvel_min             =  -2.8557057373310E-02
(PID.TID 0000.0001) %MON dynstat_uvel_mean            =  -8.2548970930015E-09
(PID.TID 0000.0001) %MON dynstat_uvel_sd              =   5.7856368675359E-03
(PID.TID 0000.0001) %MON dynstat_uvel_del2            =   1.0756850813716E-04
(PID.TID 0000.0001) %MON dynstat_vvel_max             =   1.9670146315291E-02
(PID.TID 0000.0001) %MON dynstat_vvel_min             =  -3.2295416222959E-02
(PID.TID 0000.0001) %MON dynstat_vvel_mean            =  -8.0919748779950E-03
(PID.TID 0000.0001) %MON dynstat_vvel_sd              =   1.1237821017855E-02
(PID.TID 0000.0001) %MON dynstat_vvel_del2            =   9.4158679728540E-05
(PID.TID 0000.0001) %MON dynstat_wvel_max             =   1.3725157585125E-03
(PID.TID 0000.0001) %MON dynstat_wvel_min             =  -1.1889076656598E-03
(PID.TID 0000.0001) %MON dynstat_wvel_mean            =   4.1525389859839E-21
(PID.TID 0000.0001) %MON dynstat_wvel_sd              =   1.3205465917539E-04
(PID.TID 0000.0001) %MON dynstat_wvel_del2            =   6.4217068289067E-06
(PID.TID 0000.0001) %MON dynstat_theta_max            =   2.6931451612903E+00
(PID.TID 0000.0001) %MON dynstat_theta_min            =  -4.7744439444805E-02
(PID.TID 0000.0001) %MON dynstat_theta_mean           =   2.2408673602389E+00
(PID.TID 0000.0001) %MON dynstat_theta_sd             =   4.6683578577908E-01
(PID.TID 0000.0001) %MON dynstat_theta_del2           =   1.3969765873179E-03
(PID.TID 0000.0001) %MON dynstat_salt_max             =   3.4699999999999E+01
(PID.TID 0000.0001) %MON dynstat_salt_min             =   3.3041567191639E+01
(PID.TID 0000.0001) %MON dynstat_salt_mean            =   3.4365142611763E+01
(PID.TID 0000.0001) %MON dynstat_salt_sd              =   3.2035089592356E-01
(PID.TID 0000.0001) %MON dynstat_salt_del2            =   2.0001384986617E-04
(PID.TID 0000.0001) %MON advcfl_uvel_max              =   2.4433365219701E-03
(PID.TID 0000.0001) %MON advcfl_vvel_max              =   1.6147708111480E-03
(PID.TID 0000.0001) %MON advcfl_wvel_max              =   7.0141394920685E-04
(PID.TID 0000.0001) %MON advcfl_W_hf_max              =   2.0059017486158E-03
(PID.TID 0000.0001) %MON pe_b_mean                    =   6.6411534702217E-08
(PID.TID 0000.0001) %MON ke_max                       =   1.1171349327579E-03
(PID.TID 0000.0001) %MON ke_mean                      =   1.0266408246680E-04
(PID.TID 0000.0001) %MON ke_vol                       =   3.2921708585402E+10
(PID.TID 0000.0001) // =======================================================
(PID.TID 0000.0001) // End MONITOR dynamic field statistics
(PID.TID 0000.0001) // =======================================================
(PID.TID 0000.0001) // =======================================================
(PID.TID 0000.0001) // Begin OBCS MONITOR field statistics
(PID.TID 0000.0001) // =======================================================
(PID.TID 0000.0001) %MON obc_E_uVel_max               =   0.0000000000000E+00
(PID.TID 0000.0001) %MON obc_E_uVel_min               =   0.0000000000000E+00
(PID.TID 0000.0001) %MON obc_E_uVel_mean              =   0.0000000000000E+00
(PID.TID 0000.0001) %MON obc_E_uVel_sd                =   0.0000000000000E+00
(PID.TID 0000.0001) %MON obc_E_uVel_Int               =   0.0000000000000E+00
(PID.TID 0000.0001) %MON obc_N_vVel_max               =  -3.6115799844846E-05
(PID.TID 0000.0001) %MON obc_N_vVel_min               =  -3.0000000000000E-02
(PID.TID 0000.0001) %MON obc_N_vVel_mean              =  -1.3225455303334E-02
(PID.TID 0000.0001) %MON obc_N_vVel_sd                =   1.1350864292742E-02
(PID.TID 0000.0001) %MON obc_N_vVel_Int               =  -5.9514548865004E+04
(PID.TID 0000.0001) %MON obc_S_vVel_max               =  -3.6115799844846E-05
(PID.TID 0000.0001) %MON obc_S_vVel_min               =  -3.0000000000000E-02
(PID.TID 0000.0001) %MON obc_S_vVel_mean              =  -1.3225455303334E-02
(PID.TID 0000.0001) %MON obc_S_vVel_sd                =   1.1350864292742E-02
(PID.TID 0000.0001) %MON obc_S_vVel_Int               =  -5.9514548865004E+04
(PID.TID 0000.0001) // =======================================================
(PID.TID 0000.0001) // End OBCS MONITOR field statistics
(PID.TID 0000.0001) // =======================================================
 Computing Diagnostic #    26 "THETA   " (list#  1) Parms "SMR     MR      ", Count=     144
 Computing Diagnostic #    27 "SALT    " (list#  1) Parms "SMR     MR      ", Count=     144
 Computing Diagnostic #    30 "UVEL    " (list#  1) Parms "UUR     MR      ", Count=     144
             Vector  Mate for "UVEL    " :  Diagnostic #     31 "VVEL    " exists
 Computing Diagnostic #    32 "WVEL    " (list#  1) Parms "WM      LR      ", Count=     144
 Computing Diagnostic #    31 "VVEL    " (list#  1) Parms "VVR     MR      ", Count=     144
             Vector  Mate for "VVEL    " :  Diagnostic #     30 "UVEL    " exists
 Computing Diagnostic #   197 "BRGfwFlx" (list#  2) Parms "SM      MR      ", Count=     144
 Computing Diagnostic #   198 "BRGhtFlx" (list#  2) Parms "SM      MR      ", Count=     144
 Computing Diagnostic #   199 "BRGmltRt" (list#  2) Parms "SM      MR      ", Count=     144
 Computing Diagnostic #   201 "BRG_TauX" (list#  2) Parms "UU      MR      ", Count=    1728
 Computing Diagnostic #   202 "BRG_TauY" (list#  2) Parms "VV      MR      ", Count=    1728
 Computing Diagnostic #   203 "BRGhFacC" (list#  2) Parms "SM      MR      ", Count=    1728
(PID.TID 0000.0001) %CHECKPOINT      6912 0000006912
 cg2d: Sum(rhs),rhsMax =   2.29214577873726E-10  1.84990142275694E-02
 cg2d: Sum(rhs),rhsMax =   2.29249993988212E-10  1.84993154999247E-02
 cg2d: Sum(rhs),rhsMax =   2.29298927068022E-10  1.84996241659802E-02
 cg2d: Sum(rhs),rhsMax =   2.29331179046888E-10  1.84999407972811E-02
 cg2d: Sum(rhs),rhsMax =   2.29369689908054E-10  1.85002659251993E-02
 cg2d: Sum(rhs),rhsMax =   2.29405300311569E-10  1.85006000387697E-02
 cg2d: Sum(rhs),rhsMax =   2.29454164002441E-10  1.85009436032269E-02
 cg2d: Sum(rhs),rhsMax =   2.29493646308754E-10  1.85012970498775E-02
 cg2d: Sum(rhs),rhsMax =   2.29530783268928E-10  1.85016607763140E-02
 cg2d: Sum(rhs),rhsMax =   2.29566962661742E-10  1.85020351404649E-02
 cg2d: Sum(rhs),rhsMax =   2.29595564782414E-10  1.85024204574093E-02
 cg2d: Sum(rhs),rhsMax =   2.29630495174327E-10  1.85028169564788E-02
 cg2d: Sum(rhs),rhsMax =   2.29665661488632E-10  1.85032248633891E-02
 cg2d: Sum(rhs),rhsMax =   2.29699065323885E-10  1.85036443021114E-02
 cg2d: Sum(rhs),rhsMax =   2.29744168134260E-10  1.85040753797726E-02
 cg2d: Sum(rhs),rhsMax =   2.29785787619896E-10  1.85045181464000E-02
 cg2d: Sum(rhs),rhsMax =   2.29821536801289E-10  1.85049726051682E-02
 cg2d: Sum(rhs),rhsMax =   2.29857965994285E-10  1.85054387038463E-02
 cg2d: Sum(rhs),rhsMax =   2.29880128821414E-10  1.85059163430625E-02
 cg2d: Sum(rhs),rhsMax =   2.29925398165243E-10  1.85064053719511E-02
 cg2d: Sum(rhs),rhsMax =   2.29965546605371E-10  1.85069055858765E-02
 cg2d: Sum(rhs),rhsMax =   2.30008359580758E-10  1.85074167325380E-02
 cg2d: Sum(rhs),rhsMax =   2.30037711101971E-10  1.85079385110742E-02
 cg2d: Sum(rhs),rhsMax =   2.30077082385982E-10  1.85084705704833E-02
 cg2d: Sum(rhs),rhsMax =   2.30111874000016E-10  1.85090125137011E-02
 cg2d: Sum(rhs),rhsMax =   2.30151897540054E-10  1.85095638960999E-02
 cg2d: Sum(rhs),rhsMax =   2.30173921589305E-10  1.85101242320969E-02
 cg2d: Sum(rhs),rhsMax =   2.30224436736925E-10  1.85106929858915E-02
 cg2d: Sum(rhs),rhsMax =   2.30255897681886E-10  1.85112696022155E-02
 cg2d: Sum(rhs),rhsMax =   2.30283889179894E-10  1.85118534646441E-02
 cg2d: Sum(rhs),rhsMax =   2.30324592731534E-10  1.85124439289493E-02
 cg2d: Sum(rhs),rhsMax =   2.30362132147555E-10  1.85130403256804E-02
 cg2d: Sum(rhs),rhsMax =   2.30396507427955E-10  1.85136419497929E-02
 cg2d: Sum(rhs),rhsMax =   2.30427940617339E-10  1.85142480692136E-02
 cg2d: Sum(rhs),rhsMax =   2.30455751704106E-10  1.85148579324492E-02
 cg2d: Sum(rhs),rhsMax =   2.30486726926493E-10  1.85154707644805E-02
 cg2d: Sum(rhs),rhsMax =   2.30534299983098E-10  1.85160857777861E-02
 cg2d: Sum(rhs),rhsMax =   2.30572408388419E-10  1.85167021691021E-02
 cg2d: Sum(rhs),rhsMax =   2.30598207195953E-10  1.85173191264689E-02
 cg2d: Sum(rhs),rhsMax =   2.30629682018701E-10  1.85179358320416E-02
 cg2d: Sum(rhs),rhsMax =   2.30660462952059E-10  1.85185514651739E-02
 cg2d: Sum(rhs),rhsMax =   2.30700403225370E-10  1.85191652050632E-02
 cg2d: Sum(rhs),rhsMax =   2.30741759033037E-10  1.85197762414142E-02
 cg2d: Sum(rhs),rhsMax =   2.30774718779081E-10  1.85203837656158E-02
 cg2d: Sum(rhs),rhsMax =   2.30807303824854E-10  1.85209869865221E-02
 cg2d: Sum(rhs),rhsMax =   2.30855626282001E-10  1.85215851250976E-02
 cg2d: Sum(rhs),rhsMax =   2.30891916697118E-10  1.85221774223039E-02
 cg2d: Sum(rhs),rhsMax =   2.30924973587676E-10  1.85227631419984E-02
 cg2d: Sum(rhs),rhsMax =   2.30959487645954E-10  1.85233415722965E-02
 cg2d: Sum(rhs),rhsMax =   2.30984051330374E-10  1.85239120315639E-02
 cg2d: Sum(rhs),rhsMax =   2.31017080465357E-10  1.85244738675963E-02
 cg2d: Sum(rhs),rhsMax =   2.31056340727065E-10  1.85250264641370E-02
 cg2d: Sum(rhs),rhsMax =   2.31094698932566E-10  1.85255692416930E-02
 cg2d: Sum(rhs),rhsMax =   2.31125021898926E-10  1.85261016598718E-02
 cg2d: Sum(rhs),rhsMax =   2.31162103347948E-10  1.85266232192598E-02
 cg2d: Sum(rhs),rhsMax =   2.31196950473134E-10  1.85271334657203E-02
 cg2d: Sum(rhs),rhsMax =   2.31231464531412E-10  1.85276319877697E-02
 cg2d: Sum(rhs),rhsMax =   2.31267491268561E-10  1.85281184256938E-02
 cg2d: Sum(rhs),rhsMax =   2.31305599673881E-10  1.85285924662784E-02
 cg2d: Sum(rhs),rhsMax =   2.31333840972070E-10  1.85290538460978E-02
 cg2d: Sum(rhs),rhsMax =   2.31369826075856E-10  1.85295023504419E-02
 cg2d: Sum(rhs),rhsMax =   2.31406518946820E-10  1.85299378187404E-02
 cg2d: Sum(rhs),rhsMax =   2.31440311360132E-10  1.85303601422828E-02
 cg2d: Sum(rhs),rhsMax =   2.31480390411321E-10  1.85307692647344E-02
 cg2d: Sum(rhs),rhsMax =   2.31518998417002E-10  1.85311651806007E-02
 cg2d: Sum(rhs),rhsMax =   2.31558550112254E-10  1.85315479484176E-02
 cg2d: Sum(rhs),rhsMax =   2.31589039612068E-10  1.85319176336412E-02
 cg2d: Sum(rhs),rhsMax =   2.31625163493732E-10  1.85322744142458E-02
 cg2d: Sum(rhs),rhsMax =   2.31664007421806E-10  1.85326184885535E-02
 cg2d: Sum(rhs),rhsMax =   2.31701921538097E-10  1.85329501013156E-02
 cg2d: Sum(rhs),rhsMax =   2.31739516465268E-10  1.85332695418699E-02
 cg2d: Sum(rhs),rhsMax =   2.31780011850091E-10  1.85335771546403E-02
 cg2d: Sum(rhs),rhsMax =   2.31822866458842E-10  1.85338733255877E-02
 cg2d: Sum(rhs),rhsMax =   2.31857685828452E-10  1.85341584782935E-02
 cg2d: Sum(rhs),rhsMax =   2.31893615421086E-10  1.85344330763509E-02
 cg2d: Sum(rhs),rhsMax =   2.31936775341168E-10  1.85346976234386E-02
 cg2d: Sum(rhs),rhsMax =   2.31971927777685E-10  1.85349526584716E-02
 cg2d: Sum(rhs),rhsMax =   2.32011812539845E-10  1.85351987528550E-02
 cg2d: Sum(rhs),rhsMax =   2.32049879311802E-10  1.85354365065729E-02
 cg2d: Sum(rhs),rhsMax =   2.32098104624434E-10  1.85356665468854E-02
 cg2d: Sum(rhs),rhsMax =   2.32131036614902E-10  1.85358895249272E-02
 cg2d: Sum(rhs),rhsMax =   2.32166869063022E-10  1.85361061143278E-02
 cg2d: Sum(rhs),rhsMax =   2.32219521389965E-10  1.85363170033659E-02
 cg2d: Sum(rhs),rhsMax =   2.32259184107519E-10  1.85365228872250E-02
 cg2d: Sum(rhs),rhsMax =   2.32297681090898E-10  1.85367244839416E-02
 cg2d: Sum(rhs),rhsMax =   2.32338856487324E-10  1.85369225681021E-02
 cg2d: Sum(rhs),rhsMax =   2.32377700415398E-10  1.85371178679030E-02
 cg2d: Sum(rhs),rhsMax =   2.32422872614713E-10  1.85373110930184E-02
 cg2d: Sum(rhs),rhsMax =   2.32480715234296E-10  1.85375029693604E-02
 cg2d: Sum(rhs),rhsMax =   2.32508970410272E-10  1.85376942291973E-02
 cg2d: Sum(rhs),rhsMax =   2.32555641410670E-10  1.85378855922320E-02
 cg2d: Sum(rhs),rhsMax =   2.32603367122941E-10  1.85380777637586E-02
 cg2d: Sum(rhs),rhsMax =   2.32642127784288E-10  1.85382714346333E-02
 cg2d: Sum(rhs),rhsMax =   2.32690977597372E-10  1.85384672839814E-02
 cg2d: Sum(rhs),rhsMax =   2.32732833005400E-10  1.85386659764407E-02
 cg2d: Sum(rhs),rhsMax =   2.32765987040473E-10  1.85388681171864E-02
 cg2d: Sum(rhs),rhsMax =   2.32819416523533E-10  1.85390743577603E-02
 cg2d: Sum(rhs),rhsMax =   2.32852792603211E-10  1.85392852849467E-02
 cg2d: Sum(rhs),rhsMax =   2.32892025109344E-10  1.85395014503073E-02
 cg2d: Sum(rhs),rhsMax =   2.32944163958138E-10  1.85397233873683E-02
 cg2d: Sum(rhs),rhsMax =   2.32990265969235E-10  1.85399515946598E-02
 cg2d: Sum(rhs),rhsMax =   2.33028762952614E-10  1.85401865380563E-02
 cg2d: Sum(rhs),rhsMax =   2.33080901801408E-10  1.85404286484099E-02
 cg2d: Sum(rhs),rhsMax =   2.33119606951604E-10  1.85406783208843E-02
 cg2d: Sum(rhs),rhsMax =   2.33147071093676E-10  1.85409359146403E-02
 cg2d: Sum(rhs),rhsMax =   2.33180988407078E-10  1.85412017483890E-02
 cg2d: Sum(rhs),rhsMax =   2.33222288703594E-10  1.85414761050725E-02
 cg2d: Sum(rhs),rhsMax =   2.33263824922503E-10  1.85417592265239E-02
 cg2d: Sum(rhs),rhsMax =   2.33302308028094E-10  1.85420513179893E-02
 cg2d: Sum(rhs),rhsMax =   2.33343289135490E-10  1.85423525452037E-02
 cg2d: Sum(rhs),rhsMax =   2.33383340431104E-10  1.85426630254075E-02
 cg2d: Sum(rhs),rhsMax =   2.33426639129064E-10  1.85429716557453E-02
 cg2d: Sum(rhs),rhsMax =   2.33474364841335E-10  1.85432621987799E-02
 cg2d: Sum(rhs),rhsMax =   2.33517316594600E-10  1.85435648868041E-02
 cg2d: Sum(rhs),rhsMax =   2.33557409523577E-10  1.85438778568007E-02
 cg2d: Sum(rhs),rhsMax =   2.33585567555039E-10  1.85442007977999E-02
 cg2d: Sum(rhs),rhsMax =   2.33623551060269E-10  1.85445337675628E-02
 cg2d: Sum(rhs),rhsMax =   2.33661964776921E-10  1.85448768073223E-02
 cg2d: Sum(rhs),rhsMax =   2.33700767071632E-10  1.85452299348312E-02
 cg2d: Sum(rhs),rhsMax =   2.33735419907788E-10  1.85455929989636E-02
 cg2d: Sum(rhs),rhsMax =   2.33776595304214E-10  1.85459659948335E-02
 cg2d: Sum(rhs),rhsMax =   2.33816063732739E-10  1.85463489448301E-02
 cg2d: Sum(rhs),rhsMax =   2.33867161747447E-10  1.85467416998429E-02
 cg2d: Sum(rhs),rhsMax =   2.33892516465772E-10  1.85471440411028E-02
 cg2d: Sum(rhs),rhsMax =   2.33939603799804E-10  1.85475557552775E-02
 cg2d: Sum(rhs),rhsMax =   2.33972660690362E-10  1.85479765967497E-02
 cg2d: Sum(rhs),rhsMax =   2.34008826205390E-10  1.85484062886368E-02
 cg2d: Sum(rhs),rhsMax =   2.34050806513508E-10  1.85488445283831E-02
 cg2d: Sum(rhs),rhsMax =   2.34074509775084E-10  1.85492910028027E-02
 cg2d: Sum(rhs),rhsMax =   2.34103403329300E-10  1.85497453718287E-02
 cg2d: Sum(rhs),rhsMax =   2.34155625444821E-10  1.85502072820530E-02
 cg2d: Sum(rhs),rhsMax =   2.34192110148967E-10  1.85506763598868E-02
 cg2d: Sum(rhs),rhsMax =   2.34237892970945E-10  1.85511522194340E-02
 cg2d: Sum(rhs),rhsMax =   2.34261721132611E-10  1.85516344667180E-02
 cg2d: Sum(rhs),rhsMax =   2.34301619772559E-10  1.85521226428712E-02
 cg2d: Sum(rhs),rhsMax =   2.34341490656931E-10  1.85526163352343E-02
 cg2d: Sum(rhs),rhsMax =   2.34372424245954E-10  1.85531151044299E-02
 cg2d: Sum(rhs),rhsMax =   2.34411198785089E-10  1.85536184894196E-02
 cg2d: Sum(rhs),rhsMax =   2.34450042713163E-10  1.85541260243954E-02
 cg2d: Sum(rhs),rhsMax =   2.34475952543001E-10  1.85546372428735E-02
 cg2d: Sum(rhs),rhsMax =   2.34512465002723E-10  1.85551516770817E-02
 cg2d: Sum(rhs),rhsMax =   2.34557359646281E-10  1.85556688587662E-02
 cg2d: Sum(rhs),rhsMax =   2.34593178216613E-10  1.85561949267326E-02
 cg2d: Sum(rhs),rhsMax =   2.34629024542521E-10  1.85567247652944E-02
 Computing Diagnostic #    26 "THETA   " (list#  1) Parms "SMR     MR      ", Count=     144
 Computing Diagnostic #    27 "SALT    " (list#  1) Parms "SMR     MR      ", Count=     144
 Computing Diagnostic #    30 "UVEL    " (list#  1) Parms "UUR     MR      ", Count=     144
             Vector  Mate for "UVEL    " :  Diagnostic #     31 "VVEL    " exists
 Computing Diagnostic #    32 "WVEL    " (list#  1) Parms "WM      LR      ", Count=     144
 Computing Diagnostic #    31 "VVEL    " (list#  1) Parms "VVR     MR      ", Count=     144
             Vector  Mate for "VVEL    " :  Diagnostic #     30 "UVEL    " exists
 Computing Diagnostic #   197 "BRGfwFlx" (list#  2) Parms "SM      MR      ", Count=     144
 Computing Diagnostic #   198 "BRGhtFlx" (list#  2) Parms "SM      MR      ", Count=     144
 Computing Diagnostic #   199 "BRGmltRt" (list#  2) Parms "SM      MR      ", Count=     144
 Computing Diagnostic #   201 "BRG_TauX" (list#  2) Parms "UU      MR      ", Count=    1728
 Computing Diagnostic #   202 "BRG_TauY" (list#  2) Parms "VV      MR      ", Count=    1728
 Computing Diagnostic #   203 "BRGhFacC" (list#  2) Parms "SM      MR      ", Count=    1728
 cg2d: Sum(rhs),rhsMax =   2.34654448649785E-10  1.85572557993741E-02
 cg2d: Sum(rhs),rhsMax =   2.34696720391447E-10  1.85577875086418E-02
 cg2d: Sum(rhs),rhsMax =   2.34736022286519E-10  1.85583193649899E-02
 cg2d: Sum(rhs),rhsMax =   2.34772853935361E-10  1.85588508476761E-02
 cg2d: Sum(rhs),rhsMax =   2.34817512656527E-10  1.85593814532210E-02
 cg2d: Sum(rhs),rhsMax =   2.34859298675616E-10  1.85599106961753E-02
 cg2d: Sum(rhs),rhsMax =   2.34898753226354E-10  1.85604381151571E-02
 cg2d: Sum(rhs),rhsMax =   2.34942523769099E-10  1.85609632514710E-02
 cg2d: Sum(rhs),rhsMax =   2.34973679402728E-10  1.85614856820635E-02
 cg2d: Sum(rhs),rhsMax =   2.35003516646515E-10  1.85620050061064E-02
 cg2d: Sum(rhs),rhsMax =   2.35049174568402E-10  1.85625208368414E-02
 cg2d: Sum(rhs),rhsMax =   2.35080399590970E-10  1.85630328161949E-02
 cg2d: Sum(rhs),rhsMax =   2.35111999313808E-10  1.85635406085366E-02
 cg2d: Sum(rhs),rhsMax =   2.35155409034071E-10  1.85640439087735E-02
 cg2d: Sum(rhs),rhsMax =   2.35181249474969E-10  1.85645424351510E-02
 cg2d: Sum(rhs),rhsMax =   2.35218400312931E-10  1.85650359346746E-02
 cg2d: Sum(rhs),rhsMax =   2.35248376334596E-10  1.85655241821831E-02
 cg2d: Sum(rhs),rhsMax =   2.35282404670301E-10  1.85660069775447E-02
 cg2d: Sum(rhs),rhsMax =   2.35334293718914E-10  1.85664841497164E-02
 cg2d: Sum(rhs),rhsMax =   2.35363145639766E-10  1.85669555558563E-02
 cg2d: Sum(rhs),rhsMax =   2.35411939941699E-10  1.85674210784598E-02
 cg2d: Sum(rhs),rhsMax =   2.35438377127473E-10  1.85678806259500E-02
 cg2d: Sum(rhs),rhsMax =   2.35474292842319E-10  1.85683341353360E-02
 cg2d: Sum(rhs),rhsMax =   2.35509112211929E-10  1.85687815677736E-02
 cg2d: Sum(rhs),rhsMax =   2.35554492578061E-10  1.85692229054401E-02
 cg2d: Sum(rhs),rhsMax =   2.35587244157287E-10  1.85696581594401E-02
 cg2d: Sum(rhs),rhsMax =   2.35624367239673E-10  1.85700873606428E-02
 cg2d: Sum(rhs),rhsMax =   2.35661809511178E-10  1.85705105643561E-02
 cg2d: Sum(rhs),rhsMax =   2.35717736996044E-10  1.85709278439097E-02
 cg2d: Sum(rhs),rhsMax =   2.35754693544976E-10  1.85713392945253E-02
 cg2d: Sum(rhs),rhsMax =   2.35784697322217E-10  1.85717450298081E-02
 cg2d: Sum(rhs),rhsMax =   2.35816324800631E-10  1.85721451709875E-02
 cg2d: Sum(rhs),rhsMax =   2.35859137776018E-10  1.85725397380367E-02
 cg2d: Sum(rhs),rhsMax =   2.35902491985129E-10  1.85729289800958E-02
 cg2d: Sum(rhs),rhsMax =   2.35933189651760E-10  1.85733129567340E-02
 cg2d: Sum(rhs),rhsMax =   2.35971853168593E-10  1.85736918359284E-02
 cg2d: Sum(rhs),rhsMax =   2.36008504406193E-10  1.85740658329300E-02
 cg2d: Sum(rhs),rhsMax =   2.36049096935531E-10  1.85744351509111E-02
 cg2d: Sum(rhs),rhsMax =   2.36088190663786E-10  1.85747999931959E-02
 cg2d: Sum(rhs),rhsMax =   2.36133668174432E-10  1.85751605739524E-02
 cg2d: Sum(rhs),rhsMax =   2.36168987144403E-10  1.85755171163418E-02
 cg2d: Sum(rhs),rhsMax =   2.36214117710354E-10  1.85758698478221E-02
 cg2d: Sum(rhs),rhsMax =   2.36252212237886E-10  1.85762190006941E-02
 cg2d: Sum(rhs),rhsMax =   2.36292846400588E-10  1.85765648135051E-02
 cg2d: Sum(rhs),rhsMax =   2.36328775993222E-10  1.85769075239702E-02
 cg2d: Sum(rhs),rhsMax =   2.36361583083600E-10  1.85772473729605E-02
 cg2d: Sum(rhs),rhsMax =   2.36402800113389E-10  1.85775840922274E-02
 cg2d: Sum(rhs),rhsMax =   2.36432193267966E-10  1.85779178710647E-02
 cg2d: Sum(rhs),rhsMax =   2.36476990767009E-10  1.85782489548903E-02
 cg2d: Sum(rhs),rhsMax =   2.36508979067906E-10  1.85785775806825E-02
 cg2d: Sum(rhs),rhsMax =   2.36558009292231E-10  1.85789039744239E-02
 cg2d: Sum(rhs),rhsMax =   2.36601960246219E-10  1.85792283656459E-02
 cg2d: Sum(rhs),rhsMax =   2.36651434559754E-10  1.85795509749248E-02
 cg2d: Sum(rhs),rhsMax =   2.36688085797354E-10  1.85798720183784E-02
 cg2d: Sum(rhs),rhsMax =   2.36719949198161E-10  1.85801917150900E-02
 cg2d: Sum(rhs),rhsMax =   2.36760125393864E-10  1.85805102632857E-02
 cg2d: Sum(rhs),rhsMax =   2.36793126773271E-10  1.85808278642766E-02
 cg2d: Sum(rhs),rhsMax =   2.36830735578231E-10  1.85811447087379E-02
 cg2d: Sum(rhs),rhsMax =   2.36877142900660E-10  1.85814609814104E-02
 cg2d: Sum(rhs),rhsMax =   2.36913794138260E-10  1.85817768734343E-02
 cg2d: Sum(rhs),rhsMax =   2.36955177701503E-10  1.85820925534811E-02
 cg2d: Sum(rhs),rhsMax =   2.37005637337973E-10  1.85824081764919E-02
 cg2d: Sum(rhs),rhsMax =   2.37039027295438E-10  1.85827239025610E-02
 cg2d: Sum(rhs),rhsMax =   2.37085268084414E-10  1.85830398868347E-02
 cg2d: Sum(rhs),rhsMax =   2.37130620694970E-10  1.85833562755828E-02
 cg2d: Sum(rhs),rhsMax =   2.37183161999610E-10  1.85836732068541E-02
 cg2d: Sum(rhs),rhsMax =   2.37226266408541E-10  1.85839908105836E-02
 cg2d: Sum(rhs),rhsMax =   2.37267303027089E-10  1.85843092123273E-02
 cg2d: Sum(rhs),rhsMax =   2.37316111206809E-10  1.85846285305627E-02
 cg2d: Sum(rhs),rhsMax =   2.37350430976058E-10  1.85849488796748E-02
 cg2d: Sum(rhs),rhsMax =   2.37394631730226E-10  1.85852703673306E-02
 cg2d: Sum(rhs),rhsMax =   2.37426592275547E-10  1.85855930995502E-02
 cg2d: Sum(rhs),rhsMax =   2.37473471442762E-10  1.85859171726249E-02
 cg2d: Sum(rhs),rhsMax =   2.37511871281626E-10  1.85862426835251E-02
 cg2d: Sum(rhs),rhsMax =   2.37555003446133E-10  1.85865697217823E-02
 cg2d: Sum(rhs),rhsMax =   2.37588476670325E-10  1.85868983768867E-02
 cg2d: Sum(rhs),rhsMax =   2.37624739329867E-10  1.85872287324639E-02
 cg2d: Sum(rhs),rhsMax =   2.37658823176723E-10  1.85875608725685E-02
 cg2d: Sum(rhs),rhsMax =   2.37703842720371E-10  1.85878948754268E-02
 cg2d: Sum(rhs),rhsMax =   2.37744990361222E-10  1.85882308205917E-02
 cg2d: Sum(rhs),rhsMax =   2.37779809730831E-10  1.85885687790169E-02
 cg2d: Sum(rhs),rhsMax =   2.37821082271772E-10  1.85889088312622E-02
 cg2d: Sum(rhs),rhsMax =   2.37853819973211E-10  1.85892510491565E-02
 cg2d: Sum(rhs),rhsMax =   2.37899547284037E-10  1.85895955061661E-02
 cg2d: Sum(rhs),rhsMax =   2.37942068825880E-10  1.85899422736556E-02
 cg2d: Sum(rhs),rhsMax =   2.37978414752149E-10  1.85902914214625E-02
 cg2d: Sum(rhs),rhsMax =   2.38014302711420E-10  1.85906430222550E-02
 cg2d: Sum(rhs),rhsMax =   2.38050426593084E-10  1.85909971470272E-02
 cg2d: Sum(rhs),rhsMax =   2.38083983084003E-10  1.85913538439273E-02
 cg2d: Sum(rhs),rhsMax =   2.38113626038761E-10  1.85917132000493E-02
 cg2d: Sum(rhs),rhsMax =   2.38144060027423E-10  1.85920753081066E-02
 cg2d: Sum(rhs),rhsMax =   2.38183292533556E-10  1.85924402100447E-02
 cg2d: Sum(rhs),rhsMax =   2.38217473524927E-10  1.85928079775134E-02
 cg2d: Sum(rhs),rhsMax =   2.38253042295078E-10  1.85931786859484E-02
 cg2d: Sum(rhs),rhsMax =   2.38290151499676E-10  1.85935524035244E-02
 cg2d: Sum(rhs),rhsMax =   2.38321737344727E-10  1.85939291919961E-02
 cg2d: Sum(rhs),rhsMax =   2.38359817994471E-10  1.85943091135152E-02
 cg2d: Sum(rhs),rhsMax =   2.38397829255277E-10  1.85946922308527E-02
 cg2d: Sum(rhs),rhsMax =   2.38427194654278E-10  1.85950786068622E-02
 cg2d: Sum(rhs),rhsMax =   2.38473546465556E-10  1.85954683007912E-02
 cg2d: Sum(rhs),rhsMax =   2.38519953787986E-10  1.85958613673614E-02
 cg2d: Sum(rhs),rhsMax =   2.38546876696333E-10  1.85962578580350E-02
 cg2d: Sum(rhs),rhsMax =   2.38578684585988E-10  1.85966578224124E-02
 cg2d: Sum(rhs),rhsMax =   2.38619332626477E-10  1.85970613054150E-02
 cg2d: Sum(rhs),rhsMax =   2.38665989749087E-10  1.85974683451358E-02
 cg2d: Sum(rhs),rhsMax =   2.38701350352422E-10  1.85978789432817E-02
 cg2d: Sum(rhs),rhsMax =   2.38734865209977E-10  1.85982931504678E-02
 cg2d: Sum(rhs),rhsMax =   2.38767769444870E-10  1.85987110164090E-02
 cg2d: Sum(rhs),rhsMax =   2.38809111374749E-10  1.85991325598519E-02
 cg2d: Sum(rhs),rhsMax =   2.38835215493616E-10  1.85995577796330E-02
 cg2d: Sum(rhs),rhsMax =   2.38861583290451E-10  1.85999866761071E-02
 cg2d: Sum(rhs),rhsMax =   2.38901620708276E-10  1.86004192408363E-02
 cg2d: Sum(rhs),rhsMax =   2.38942657326824E-10  1.86008554636393E-02
 cg2d: Sum(rhs),rhsMax =   2.38968206334178E-10  1.86012953190820E-02
 cg2d: Sum(rhs),rhsMax =   2.38991978984693E-10  1.86017387728327E-02
 cg2d: Sum(rhs),rhsMax =   2.39033307036784E-10  1.86021857900362E-02
 cg2d: Sum(rhs),rhsMax =   2.39063893681113E-10  1.86026363140189E-02
 cg2d: Sum(rhs),rhsMax =   2.39106567878622E-10  1.86030902843947E-02
 cg2d: Sum(rhs),rhsMax =   2.39134961832477E-10  1.86035476315754E-02
 cg2d: Sum(rhs),rhsMax =   2.39177191940776E-10  1.86040065210209E-02
 cg2d: Sum(rhs),rhsMax =   2.39214967279189E-10  1.86044685706903E-02
 cg2d: Sum(rhs),rhsMax =   2.39259737022657E-10  1.86049337700396E-02
 cg2d: Sum(rhs),rhsMax =   2.39290559589378E-10  1.86054019942608E-02
 cg2d: Sum(rhs),rhsMax =   2.39330735785082E-10  1.86058731247570E-02
 cg2d: Sum(rhs),rhsMax =   2.39362848986069E-10  1.86063470402933E-02
 cg2d: Sum(rhs),rhsMax =   2.39402359047958E-10  1.86068236034269E-02
 cg2d: Sum(rhs),rhsMax =   2.39433722848403E-10  1.86073026667810E-02
 cg2d: Sum(rhs),rhsMax =   2.39466918516840E-10  1.86077840709582E-02
 cg2d: Sum(rhs),rhsMax =   2.39490705045142E-10  1.86082676397501E-02
 cg2d: Sum(rhs),rhsMax =   2.39524761136423E-10  1.86087532249202E-02
 cg2d: Sum(rhs),rhsMax =   2.39558137216100E-10  1.86092406132466E-02
 cg2d: Sum(rhs),rhsMax =   2.39600894680336E-10  1.86097295977882E-02
 cg2d: Sum(rhs),rhsMax =   2.39639405541503E-10  1.86102199753896E-02
 cg2d: Sum(rhs),rhsMax =   2.39678749069938E-10  1.86107115342211E-02
 cg2d: Sum(rhs),rhsMax =   2.39714734173724E-10  1.86112040535949E-02
 cg2d: Sum(rhs),rhsMax =   2.39756284270420E-10  1.86116973021230E-02
 cg2d: Sum(rhs),rhsMax =   2.39791492218089E-10  1.86121910425988E-02
 cg2d: Sum(rhs),rhsMax =   2.39825451164855E-10  1.86126850293355E-02
 cg2d: Sum(rhs),rhsMax =   2.39858868877896E-10  1.86131790132002E-02
 cg2d: Sum(rhs),rhsMax =   2.39892314346513E-10  1.86136727391693E-02
 cg2d: Sum(rhs),rhsMax =   2.39942579693952E-10  1.86141659486673E-02
 cg2d: Sum(rhs),rhsMax =   2.39977149263382E-10  1.86146583812293E-02
 cg2d: Sum(rhs),rhsMax =   2.40014633168251E-10  1.86151497729096E-02
 cg2d: Sum(rhs),rhsMax =   2.40043845911586E-10  1.86156398589148E-02
 Computing Diagnostic #    26 "THETA   " (list#  1) Parms "SMR     MR      ", Count=     144
 Computing Diagnostic #    27 "SALT    " (list#  1) Parms "SMR     MR      ", Count=     144
 Computing Diagnostic #    30 "UVEL    " (list#  1) Parms "UUR     MR      ", Count=     144
             Vector  Mate for "UVEL    " :  Diagnostic #     31 "VVEL    " exists
 Computing Diagnostic #    32 "WVEL    " (list#  1) Parms "WM      LR      ", Count=     144
 Computing Diagnostic #    31 "VVEL    " (list#  1) Parms "VVR     MR      ", Count=     144
             Vector  Mate for "VVEL    " :  Diagnostic #     30 "UVEL    " exists
 Computing Diagnostic #   197 "BRGfwFlx" (list#  2) Parms "SM      MR      ", Count=     144
 Computing Diagnostic #   198 "BRGhtFlx" (list#  2) Parms "SM      MR      ", Count=     144
 Computing Diagnostic #   199 "BRGmltRt" (list#  2) Parms "SM      MR      ", Count=     144
 Computing Diagnostic #   201 "BRG_TauX" (list#  2) Parms "UU      MR      ", Count=    1728
 Computing Diagnostic #   202 "BRG_TauY" (list#  2) Parms "VV      MR      ", Count=    1728
 Computing Diagnostic #   203 "BRGhFacC" (list#  2) Parms "SM      MR      ", Count=    1728
 cg2d: Sum(rhs),rhsMax =   2.40090849978891E-10  1.86161283776893E-02
 cg2d: Sum(rhs),rhsMax =   2.40133357642947E-10  1.86166150650389E-02
 cg2d: Sum(rhs),rhsMax =   2.40169314991157E-10  1.86170996613272E-02
 cg2d: Sum(rhs),rhsMax =   2.40195058287540E-10  1.86175819092794E-02
 cg2d: Sum(rhs),rhsMax =   2.40220371372502E-10  1.86180615554382E-02
 cg2d: Sum(rhs),rhsMax =   2.40248820837508E-10  1.86185383619245E-02
 cg2d: Sum(rhs),rhsMax =   2.40289371733482E-10  1.86190120864659E-02
 cg2d: Sum(rhs),rhsMax =   2.40324649070089E-10  1.86194824924946E-02
 cg2d: Sum(rhs),rhsMax =   2.40363534631527E-10  1.86199493525677E-02
 cg2d: Sum(rhs),rhsMax =   2.40398465023439E-10  1.86204124453262E-02
 cg2d: Sum(rhs),rhsMax =   2.40435879539369E-10  1.86208715858747E-02
 cg2d: Sum(rhs),rhsMax =   2.40481551339045E-10  1.86213265490603E-02
 cg2d: Sum(rhs),rhsMax =   2.40518438499038E-10  1.86217771424091E-02
 cg2d: Sum(rhs),rhsMax =   2.40553188479709E-10  1.86222232038168E-02
 cg2d: Sum(rhs),rhsMax =   2.40587105793111E-10  1.86226645767650E-02
 cg2d: Sum(rhs),rhsMax =   2.40625519509763E-10  1.86231011108948E-02
 cg2d: Sum(rhs),rhsMax =   2.40658423744655E-10  1.86235326725834E-02
 cg2d: Sum(rhs),rhsMax =   2.40697808906454E-10  1.86239591452804E-02
 cg2d: Sum(rhs),rhsMax =   2.40738429191367E-10  1.86243804289643E-02
 cg2d: Sum(rhs),rhsMax =   2.40766739878495E-10  1.86247964401027E-02
 cg2d: Sum(rhs),rhsMax =   2.40810135720970E-10  1.86252071093436E-02
 cg2d: Sum(rhs),rhsMax =   2.40846315113785E-10  1.86256123906101E-02
 cg2d: Sum(rhs),rhsMax =   2.40873820889220E-10  1.86260122484186E-02
 cg2d: Sum(rhs),rhsMax =   2.40928235695215E-10  1.86264066666240E-02
 cg2d: Sum(rhs),rhsMax =   2.40966385733898E-10  1.86267956472355E-02
 cg2d: Sum(rhs),rhsMax =   2.41007866441656E-10  1.86271792120637E-02
 cg2d: Sum(rhs),rhsMax =   2.41040590265307E-10  1.86275573988271E-02
 cg2d: Sum(rhs),rhsMax =   2.41080780338798E-10  1.86279302649982E-02
 cg2d: Sum(rhs),rhsMax =   2.41117917298972E-10  1.86282978859367E-02
 cg2d: Sum(rhs),rhsMax =   2.41154457514270E-10  1.86286603548634E-02
 cg2d: Sum(rhs),rhsMax =   2.41191538963292E-10  1.86290177807957E-02
 cg2d: Sum(rhs),rhsMax =   2.41233255593443E-10  1.86293702920201E-02
 cg2d: Sum(rhs),rhsMax =   2.41267478218177E-10  1.86297180324552E-02
 cg2d: Sum(rhs),rhsMax =   2.41295192160429E-10  1.86300611612441E-02
 cg2d: Sum(rhs),rhsMax =   2.41312997362186E-10  1.86303998568561E-02
 cg2d: Sum(rhs),rhsMax =   2.41355310737212E-10  1.86307343071749E-02
 cg2d: Sum(rhs),rhsMax =   2.41384676136214E-10  1.86310647174958E-02
 cg2d: Sum(rhs),rhsMax =   2.41429626290923E-10  1.86313913065837E-02
 cg2d: Sum(rhs),rhsMax =   2.41469219619539E-10  1.86317143060935E-02
 cg2d: Sum(rhs),rhsMax =   2.41506994957952E-10  1.86320339561451E-02
 cg2d: Sum(rhs),rhsMax =   2.41539427348059E-10  1.86323505131007E-02
 cg2d: Sum(rhs),rhsMax =   2.41571207482139E-10  1.86326642375560E-02
 cg2d: Sum(rhs),rhsMax =   2.41606179507414E-10  1.86329754031073E-02
 cg2d: Sum(rhs),rhsMax =   2.41634073860908E-10  1.86332842883129E-02
 cg2d: Sum(rhs),rhsMax =   2.41671821443745E-10  1.86335911813807E-02
 cg2d: Sum(rhs),rhsMax =   2.41707695525228E-10  1.86338963716854E-02
 cg2d: Sum(rhs),rhsMax =   2.41736533568293E-10  1.86342001565727E-02
 cg2d: Sum(rhs),rhsMax =   2.41775946485667E-10  1.86345028333540E-02
 cg2d: Sum(rhs),rhsMax =   2.41818995383447E-10  1.86348046998544E-02
 cg2d: Sum(rhs),rhsMax =   2.41866762729082E-10  1.86351060595416E-02
 cg2d: Sum(rhs),rhsMax =   2.41903455600045E-10  1.86354072093037E-02
 cg2d: Sum(rhs),rhsMax =   2.41941827683334E-10  1.86357084455672E-02
 cg2d: Sum(rhs),rhsMax =   2.41981476523101E-10  1.86360100626122E-02
 cg2d: Sum(rhs),rhsMax =   2.42013784013118E-10  1.86363123481898E-02
 cg2d: Sum(rhs),rhsMax =   2.42042427767153E-10  1.86366155858274E-02
 cg2d: Sum(rhs),rhsMax =   2.42081674151073E-10  1.86369200484793E-02
 cg2d: Sum(rhs),rhsMax =   2.42114522874814E-10  1.86372260028157E-02
 cg2d: Sum(rhs),rhsMax =   2.42155642760089E-10  1.86375337102555E-02
 cg2d: Sum(rhs),rhsMax =   2.42189698851369E-10  1.86378434166183E-02
 cg2d: Sum(rhs),rhsMax =   2.42230804858856E-10  1.86381553530908E-02
 cg2d: Sum(rhs),rhsMax =   2.42283401674648E-10  1.86384697649268E-02
 cg2d: Sum(rhs),rhsMax =   2.42320094545612E-10  1.86387868573306E-02
 cg2d: Sum(rhs),rhsMax =   2.42355760460278E-10  1.86391067968563E-02
 cg2d: Sum(rhs),rhsMax =   2.42410230777423E-10  1.86394297526908E-02
 cg2d: Sum(rhs),rhsMax =   2.42447326104234E-10  1.86397574846227E-02
 cg2d: Sum(rhs),rhsMax =   2.42489472945806E-10  1.86400885392642E-02
 cg2d: Sum(rhs),rhsMax =   2.42522765758757E-10  1.86404230227328E-02
 cg2d: Sum(rhs),rhsMax =   2.42559000662723E-10  1.86407610423051E-02
 cg2d: Sum(rhs),rhsMax =   2.42591960408767E-10  1.86411026745488E-02
 cg2d: Sum(rhs),rhsMax =   2.42620812329619E-10  1.86414479788099E-02
 cg2d: Sum(rhs),rhsMax =   2.42659503602027E-10  1.86417970174408E-02
 cg2d: Sum(rhs),rhsMax =   2.42681943984913E-10  1.86421497692445E-02
 cg2d: Sum(rhs),rhsMax =   2.42720218923687E-10  1.86425063045483E-02
 cg2d: Sum(rhs),rhsMax =   2.42767972391533E-10  1.86428666062157E-02
 cg2d: Sum(rhs),rhsMax =   2.42796990845839E-10  1.86432306223149E-02
 cg2d: Sum(rhs),rhsMax =   2.42832240426871E-10  1.86435983021456E-02
 cg2d: Sum(rhs),rhsMax =   2.42865116906188E-10  1.86439695721155E-02
 cg2d: Sum(rhs),rhsMax =   2.42900838332005E-10  1.86443443467580E-02
 cg2d: Sum(rhs),rhsMax =   2.42935296879132E-10  1.86447225199948E-02
 cg2d: Sum(rhs),rhsMax =   2.42967285180029E-10  1.86451039708174E-02
 cg2d: Sum(rhs),rhsMax =   2.42990169652124E-10  1.86454885629504E-02
 cg2d: Sum(rhs),rhsMax =   2.43034953273380E-10  1.86458761453514E-02
 cg2d: Sum(rhs),rhsMax =   2.43072534322764E-10  1.86462665520594E-02
 cg2d: Sum(rhs),rhsMax =   2.43110989672779E-10  1.86466596055882E-02
 cg2d: Sum(rhs),rhsMax =   2.43137690536521E-10  1.86470551148496E-02
 cg2d: Sum(rhs),rhsMax =   2.43167777580489E-10  1.86474528791175E-02
 cg2d: Sum(rhs),rhsMax =   2.43215586559486E-10  1.86478526850068E-02
 cg2d: Sum(rhs),rhsMax =   2.43247186282325E-10  1.86482543108503E-02
 cg2d: Sum(rhs),rhsMax =   2.43278175382500E-10  1.86486575262500E-02
 cg2d: Sum(rhs),rhsMax =   2.43316145009942E-10  1.86490620989420E-02
 cg2d: Sum(rhs),rhsMax =   2.43337058836168E-10  1.86494677828964E-02
 cg2d: Sum(rhs),rhsMax =   2.43380343656341E-10  1.86498743312479E-02
 cg2d: Sum(rhs),rhsMax =   2.43410486211459E-10  1.86502815037014E-02
 cg2d: Sum(rhs),rhsMax =   2.43441475311634E-10  1.86506890448616E-02
 cg2d: Sum(rhs),rhsMax =   2.43493891716184E-10  1.86510967024524E-02
 cg2d: Sum(rhs),rhsMax =   2.43529169052792E-10  1.86515042320081E-02
 cg2d: Sum(rhs),rhsMax =   2.43564807211882E-10  1.86519114303715E-02
 cg2d: Sum(rhs),rhsMax =   2.43599251881221E-10  1.86523179372698E-02
 cg2d: Sum(rhs),rhsMax =   2.43650544184959E-10  1.86527235648352E-02
 cg2d: Sum(rhs),rhsMax =   2.43693842882919E-10  1.86531281311253E-02
 cg2d: Sum(rhs),rhsMax =   2.43726719362236E-10  1.86535314007594E-02
 cg2d: Sum(rhs),rhsMax =   2.43768297214508E-10  1.86539331436567E-02
 cg2d: Sum(rhs),rhsMax =   2.43819076040097E-10  1.86543331477513E-02
 cg2d: Sum(rhs),rhsMax =   2.43848510828037E-10  1.86547312282828E-02
 cg2d: Sum(rhs),rhsMax =   2.43880554640086E-10  1.86551272110980E-02
 cg2d: Sum(rhs),rhsMax =   2.43915068698364E-10  1.86555209293031E-02
 cg2d: Sum(rhs),rhsMax =   2.43954551004677E-10  1.86559122296315E-02
 cg2d: Sum(rhs),rhsMax =   2.43988690362684E-10  1.86563009749800E-02
 cg2d: Sum(rhs),rhsMax =   2.44036471586107E-10  1.86566870421079E-02
 cg2d: Sum(rhs),rhsMax =   2.44055484155403E-10  1.86570703273908E-02
 cg2d: Sum(rhs),rhsMax =   2.44097131396614E-10  1.86574507444620E-02
 cg2d: Sum(rhs),rhsMax =   2.44121042825007E-10  1.86578281920168E-02
 cg2d: Sum(rhs),rhsMax =   2.44155681783376E-10  1.86582027367354E-02
 cg2d: Sum(rhs),rhsMax =   2.44197301269011E-10  1.86585742508827E-02
 cg2d: Sum(rhs),rhsMax =   2.44231579404897E-10  1.86589427122780E-02
 cg2d: Sum(rhs),rhsMax =   2.44267051030533E-10  1.86593081813497E-02
 cg2d: Sum(rhs),rhsMax =   2.44317802100547E-10  1.86596706887856E-02
 cg2d: Sum(rhs),rhsMax =   2.44354189660179E-10  1.86600302815592E-02
 cg2d: Sum(rhs),rhsMax =   2.44392880932587E-10  1.86603870333535E-02
 cg2d: Sum(rhs),rhsMax =   2.44439982144407E-10  1.86607410359694E-02
 cg2d: Sum(rhs),rhsMax =   2.44481018762954E-10  1.86610924055623E-02
 cg2d: Sum(rhs),rhsMax =   2.44523609693736E-10  1.86614397756677E-02
 cg2d: Sum(rhs),rhsMax =   2.44557374351473E-10  1.86617847509684E-02
 cg2d: Sum(rhs),rhsMax =   2.44593428844198E-10  1.86621275839628E-02
 cg2d: Sum(rhs),rhsMax =   2.44641668034618E-10  1.86624684507872E-02
 cg2d: Sum(rhs),rhsMax =   2.44677805794069E-10  1.86628075652674E-02
 cg2d: Sum(rhs),rhsMax =   2.44715789299299E-10  1.86631451597502E-02
 cg2d: Sum(rhs),rhsMax =   2.44752176858931E-10  1.86634814843118E-02
 cg2d: Sum(rhs),rhsMax =   2.44783623926104E-10  1.86638168236408E-02
 cg2d: Sum(rhs),rhsMax =   2.44820511086097E-10  1.86641514412979E-02
 cg2d: Sum(rhs),rhsMax =   2.44857772946361E-10  1.86644856047322E-02
 cg2d: Sum(rhs),rhsMax =   2.44900349999355E-10  1.86648196325008E-02
 cg2d: Sum(rhs),rhsMax =   2.44934780790906E-10  1.86651538627458E-02
 cg2d: Sum(rhs),rhsMax =   2.44970196905392E-10  1.86654886266215E-02
 cg2d: Sum(rhs),rhsMax =   2.45021392064615E-10  1.86658242595090E-02
 cg2d: Sum(rhs),rhsMax =   2.45064454840183E-10  1.86661611115850E-02
 cg2d: Sum(rhs),rhsMax =   2.45105227780762E-10  1.86664995407306E-02
 cg2d: Sum(rhs),rhsMax =   2.45144946009468E-10  1.86668399125272E-02
 cg2d: Sum(rhs),rhsMax =   2.45188119807338E-10  1.86671825990996E-02
 cg2d: Sum(rhs),rhsMax =   2.45235415308187E-10  1.86675279738092E-02
 cg2d: Sum(rhs),rhsMax =   2.45282266719826E-10  1.86678764112441E-02
 cg2d: Sum(rhs),rhsMax =   2.45326314818328E-10  1.86682282885619E-02
 cg2d: Sum(rhs),rhsMax =   2.45364853435071E-10  1.86685839832260E-02
 cg2d: Sum(rhs),rhsMax =   2.45413814270456E-10  1.86689438726257E-02
 Computing Diagnostic #    26 "THETA   " (list#  1) Parms "SMR     MR      ", Count=     144
 Computing Diagnostic #    27 "SALT    " (list#  1) Parms "SMR     MR      ", Count=     144
 Computing Diagnostic #    30 "UVEL    " (list#  1) Parms "UUR     MR      ", Count=     144
             Vector  Mate for "UVEL    " :  Diagnostic #     31 "VVEL    " exists
 Computing Diagnostic #    32 "WVEL    " (list#  1) Parms "WM      LR      ", Count=     144
 Computing Diagnostic #    31 "VVEL    " (list#  1) Parms "VVR     MR      ", Count=     144
             Vector  Mate for "VVEL    " :  Diagnostic #     30 "UVEL    " exists
 Computing Diagnostic #   197 "BRGfwFlx" (list#  2) Parms "SM      MR      ", Count=     144
 Computing Diagnostic #   198 "BRGhtFlx" (list#  2) Parms "SM      MR      ", Count=     144
 Computing Diagnostic #   199 "BRGmltRt" (list#  2) Parms "SM      MR      ", Count=     144
 Computing Diagnostic #   201 "BRG_TauX" (list#  2) Parms "UU      MR      ", Count=    1728
 Computing Diagnostic #   202 "BRG_TauY" (list#  2) Parms "VV      MR      ", Count=    1728
 Computing Diagnostic #   203 "BRGhFacC" (list#  2) Parms "SM      MR      ", Count=    1728
 cg2d: Sum(rhs),rhsMax =   2.45447356883588E-10  1.86693083294267E-02
 cg2d: Sum(rhs),rhsMax =   2.45479150895456E-10  1.86696777223906E-02
 cg2d: Sum(rhs),rhsMax =   2.45519604646915E-10  1.86700524168497E-02
 cg2d: Sum(rhs),rhsMax =   2.45562001288668E-10  1.86704327720504E-02
 cg2d: Sum(rhs),rhsMax =   2.45596432080220E-10  1.86708191362403E-02
 cg2d: Sum(rhs),rhsMax =   2.45629128148295E-10  1.86712118528669E-02
 cg2d: Sum(rhs),rhsMax =   2.45668804743637E-10  1.86716112511718E-02
 cg2d: Sum(rhs),rhsMax =   2.45711381796632E-10  1.86720176504261E-02
 cg2d: Sum(rhs),rhsMax =   2.45760162220776E-10  1.86724313516676E-02
 cg2d: Sum(rhs),rhsMax =   2.45790721109529E-10  1.86728526452487E-02
 cg2d: Sum(rhs),rhsMax =   2.45829079315030E-10  1.86732818038588E-02
 cg2d: Sum(rhs),rhsMax =   2.45880843463553E-10  1.86737190813055E-02
 cg2d: Sum(rhs),rhsMax =   2.45927292419346E-10  1.86741647131589E-02
 cg2d: Sum(rhs),rhsMax =   2.45961098710445E-10  1.86746189163884E-02
 cg2d: Sum(rhs),rhsMax =   2.45995931957843E-10  1.86750818833460E-02
 cg2d: Sum(rhs),rhsMax =   2.46023090788583E-10  1.86755537895008E-02
 cg2d: Sum(rhs),rhsMax =   2.46056425234897E-10  1.86760347824175E-02
 cg2d: Sum(rhs),rhsMax =   2.46093603828434E-10  1.86765249884556E-02
 cg2d: Sum(rhs),rhsMax =   2.46126230507571E-10  1.86770245084077E-02
 cg2d: Sum(rhs),rhsMax =   2.46174261531173E-10  1.86775334161307E-02
 cg2d: Sum(rhs),rhsMax =   2.46202197518031E-10  1.86780517607939E-02
 cg2d: Sum(rhs),rhsMax =   2.46245468460415E-10  1.86785795657748E-02
 cg2d: Sum(rhs),rhsMax =   2.46276041226956E-10  1.86791168227096E-02
 cg2d: Sum(rhs),rhsMax =   2.46311068763383E-10  1.86796634986226E-02
 cg2d: Sum(rhs),rhsMax =   2.46347192645047E-10  1.86802195297650E-02
 cg2d: Sum(rhs),rhsMax =   2.46378903390188E-10  1.86807848269983E-02
 cg2d: Sum(rhs),rhsMax =   2.46414028071129E-10  1.86813592684088E-02
 cg2d: Sum(rhs),rhsMax =   2.46447445784170E-10  1.86819427052018E-02
 cg2d: Sum(rhs),rhsMax =   2.46491910216307E-10  1.86825349590440E-02
 cg2d: Sum(rhs),rhsMax =   2.46514600399372E-10  1.86831358247588E-02
 cg2d: Sum(rhs),rhsMax =   2.46551515314941E-10  1.86837450646028E-02
 cg2d: Sum(rhs),rhsMax =   2.46594189512450E-10  1.86843624174746E-02
 cg2d: Sum(rhs),rhsMax =   2.46631590150592E-10  1.86849875923368E-02
 cg2d: Sum(rhs),rhsMax =   2.46660553093747E-10  1.86856202716129E-02
 cg2d: Sum(rhs),rhsMax =   2.46684214721959E-10  1.86862601097309E-02
 cg2d: Sum(rhs),rhsMax =   2.46718631635723E-10  1.86869067399372E-02
 cg2d: Sum(rhs),rhsMax =   2.46754450206055E-10  1.86875597660845E-02
 cg2d: Sum(rhs),rhsMax =   2.46795833769298E-10  1.86882187710715E-02
 cg2d: Sum(rhs),rhsMax =   2.46829556793671E-10  1.86888833167679E-02
 cg2d: Sum(rhs),rhsMax =   2.46869621967072E-10  1.86895529401944E-02
 cg2d: Sum(rhs),rhsMax =   2.46898501643500E-10  1.86902271617265E-02
 cg2d: Sum(rhs),rhsMax =   2.46934847569769E-10  1.86909054804069E-02
 cg2d: Sum(rhs),rhsMax =   2.46977049922492E-10  1.86915873874211E-02
 cg2d: Sum(rhs),rhsMax =   2.47001127884339E-10  1.86922723609534E-02
 cg2d: Sum(rhs),rhsMax =   2.47036668898915E-10  1.86929598321296E-02
 cg2d: Sum(rhs),rhsMax =   2.47080758630780E-10  1.86936492395926E-02
 cg2d: Sum(rhs),rhsMax =   2.47117215579351E-10  1.86943400241617E-02
 cg2d: Sum(rhs),rhsMax =   2.47156933808057E-10  1.86950406688994E-02
 cg2d: Sum(rhs),rhsMax =   2.47186854318571E-10  1.86957418083923E-02
 cg2d: Sum(rhs),rhsMax =   2.47221257354546E-10  1.86964423547135E-02
 cg2d: Sum(rhs),rhsMax =   2.47246917384203E-10  1.86971417993494E-02
 cg2d: Sum(rhs),rhsMax =   2.47292394894849E-10  1.86978395180768E-02
 cg2d: Sum(rhs),rhsMax =   2.47329240421479E-10  1.86985348697598E-02
 cg2d: Sum(rhs),rhsMax =   2.47371942374564E-10  1.86992272231607E-02
 cg2d: Sum(rhs),rhsMax =   2.47415130050221E-10  1.86999159528979E-02
 cg2d: Sum(rhs),rhsMax =   2.47443635026379E-10  1.87006004417237E-02
 cg2d: Sum(rhs),rhsMax =   2.47490250515625E-10  1.87012800875152E-02
 cg2d: Sum(rhs),rhsMax =   2.47523265772820E-10  1.87019543024571E-02
 cg2d: Sum(rhs),rhsMax =   2.47564899136243E-10  1.87026225120167E-02
 cg2d: Sum(rhs),rhsMax =   2.47589074242605E-10  1.87032841672231E-02
 cg2d: Sum(rhs),rhsMax =   2.47630707606028E-10  1.87039387356503E-02
 cg2d: Sum(rhs),rhsMax =   2.47669940112161E-10  1.87045857105696E-02
 cg2d: Sum(rhs),rhsMax =   2.47698708766286E-10  1.87052246089299E-02
 cg2d: Sum(rhs),rhsMax =   2.47751666404561E-10  1.87058554927511E-02
 cg2d: Sum(rhs),rhsMax =   2.47769443850743E-10  1.87064774330185E-02
 cg2d: Sum(rhs),rhsMax =   2.47814824216874E-10  1.87070900033673E-02
 cg2d: Sum(rhs),rhsMax =   2.47832143696058E-10  1.87076928468616E-02
 cg2d: Sum(rhs),rhsMax =   2.47863507496504E-10  1.87082856258608E-02
 cg2d: Sum(rhs),rhsMax =   2.47904016759115E-10  1.87088680421086E-02
 cg2d: Sum(rhs),rhsMax =   2.47946357889717E-10  1.87094398285309E-02
 cg2d: Sum(rhs),rhsMax =   2.47979220491246E-10  1.87100007584309E-02
 cg2d: Sum(rhs),rhsMax =   2.48011278181082E-10  1.87105506405293E-02
 cg2d: Sum(rhs),rhsMax =   2.48049039641707E-10  1.87110893211635E-02
 cg2d: Sum(rhs),rhsMax =   2.48086579057727E-10  1.87116166879217E-02
 cg2d: Sum(rhs),rhsMax =   2.48122300483544E-10  1.87121326679181E-02
 cg2d: Sum(rhs),rhsMax =   2.48168971483942E-10  1.87126372248033E-02
 cg2d: Sum(rhs),rhsMax =   2.48207510100684E-10  1.87131303658754E-02
 cg2d: Sum(rhs),rhsMax =   2.48248963052866E-10  1.87136121356143E-02
 cg2d: Sum(rhs),rhsMax =   2.48272680192230E-10  1.87140826189482E-02
 cg2d: Sum(rhs),rhsMax =   2.48315104589558E-10  1.87145419393730E-02
 cg2d: Sum(rhs),rhsMax =   2.48349382725443E-10  1.87149902590436E-02
 cg2d: Sum(rhs),rhsMax =   2.48393153268189E-10  1.87154277749560E-02
 cg2d: Sum(rhs),rhsMax =   2.48432385774322E-10  1.87158547267561E-02
 cg2d: Sum(rhs),rhsMax =   2.48483178477699E-10  1.87162713844313E-02
 cg2d: Sum(rhs),rhsMax =   2.48516693335255E-10  1.87166780491430E-02
 cg2d: Sum(rhs),rhsMax =   2.48557938120619E-10  1.87170750713683E-02
 cg2d: Sum(rhs),rhsMax =   2.48589662743548E-10  1.87174628138326E-02
 cg2d: Sum(rhs),rhsMax =   2.48627757271080E-10  1.87178416742942E-02
 cg2d: Sum(rhs),rhsMax =   2.48665699142947E-10  1.87182120825045E-02
 cg2d: Sum(rhs),rhsMax =   2.48708248440366E-10  1.87185744928714E-02
 cg2d: Sum(rhs),rhsMax =   2.48737683228306E-10  1.87189293835988E-02
 cg2d: Sum(rhs),rhsMax =   2.48794360113713E-10  1.87192772526284E-02
 cg2d: Sum(rhs),rhsMax =   2.48828249671540E-10  1.87196186220588E-02
 cg2d: Sum(rhs),rhsMax =   2.48876724784353E-10  1.87199540285964E-02
 cg2d: Sum(rhs),rhsMax =   2.48916220968454E-10  1.87202840195239E-02
 cg2d: Sum(rhs),rhsMax =   2.48952192194452E-10  1.87206091604689E-02
 cg2d: Sum(rhs),rhsMax =   2.48991313678282E-10  1.87209300252220E-02
 cg2d: Sum(rhs),rhsMax =   2.49037512833894E-10  1.87212471931263E-02
 cg2d: Sum(rhs),rhsMax =   2.49070458702150E-10  1.87215612526130E-02
 cg2d: Sum(rhs),rhsMax =   2.49111051231488E-10  1.87218727912135E-02
 cg2d: Sum(rhs),rhsMax =   2.49146980824122E-10  1.87221823968980E-02
 cg2d: Sum(rhs),rhsMax =   2.49194456736213E-10  1.87224906560645E-02
 cg2d: Sum(rhs),rhsMax =   2.49228526705281E-10  1.87227981472899E-02
 cg2d: Sum(rhs),rhsMax =   2.49268522489743E-10  1.87231054382866E-02
 cg2d: Sum(rhs),rhsMax =   2.49302578581023E-10  1.87234130896164E-02
 cg2d: Sum(rhs),rhsMax =   2.49360698756362E-10  1.87237216452368E-02
 cg2d: Sum(rhs),rhsMax =   2.49402429264300E-10  1.87240316350347E-02
 cg2d: Sum(rhs),rhsMax =   2.49438650290479E-10  1.87243435710110E-02
 cg2d: Sum(rhs),rhsMax =   2.49475440305957E-10  1.87246579445445E-02
 cg2d: Sum(rhs),rhsMax =   2.49508608218818E-10  1.87249752258346E-02
 cg2d: Sum(rhs),rhsMax =   2.49550685671451E-10  1.87252958592573E-02
 cg2d: Sum(rhs),rhsMax =   2.49583395617314E-10  1.87256202608476E-02
 cg2d: Sum(rhs),rhsMax =   2.49610207503359E-10  1.87259488229481E-02
 cg2d: Sum(rhs),rhsMax =   2.49652937212019E-10  1.87262819086809E-02
 cg2d: Sum(rhs),rhsMax =   2.49687520659236E-10  1.87266198463061E-02
 cg2d: Sum(rhs),rhsMax =   2.49727419299184E-10  1.87269629347057E-02
 cg2d: Sum(rhs),rhsMax =   2.49774895211274E-10  1.87273114355731E-02
 cg2d: Sum(rhs),rhsMax =   2.49811185626392E-10  1.87276655830318E-02
 cg2d: Sum(rhs),rhsMax =   2.49846310307333E-10  1.87280255652631E-02
 cg2d: Sum(rhs),rhsMax =   2.49886153436130E-10  1.87283915423684E-02
 cg2d: Sum(rhs),rhsMax =   2.49924664297296E-10  1.87287636371420E-02
 cg2d: Sum(rhs),rhsMax =   2.49966991550110E-10  1.87291419369255E-02
 cg2d: Sum(rhs),rhsMax =   2.50010095959041E-10  1.87295264871149E-02
 cg2d: Sum(rhs),rhsMax =   2.50047371697093E-10  1.87299173017457E-02
 cg2d: Sum(rhs),rhsMax =   2.50084286612662E-10  1.87303143550322E-02
 cg2d: Sum(rhs),rhsMax =   2.50121534595138E-10  1.87307175762692E-02
 cg2d: Sum(rhs),rhsMax =   2.50161835690932E-10  1.87311268920475E-02
 cg2d: Sum(rhs),rhsMax =   2.50202164542301E-10  1.87315421658641E-02
 cg2d: Sum(rhs),rhsMax =   2.50234055698684E-10  1.87319632274544E-02
 cg2d: Sum(rhs),rhsMax =   2.50272594315426E-10  1.87323898839257E-02
 cg2d: Sum(rhs),rhsMax =   2.50309079019573E-10  1.87328219159966E-02
 cg2d: Sum(rhs),rhsMax =   2.50349393993154E-10  1.87332590637329E-02
 cg2d: Sum(rhs),rhsMax =   2.50381770872110E-10  1.87337010403185E-02
 cg2d: Sum(rhs),rhsMax =   2.50422238501358E-10  1.87341475411594E-02
 cg2d: Sum(rhs),rhsMax =   2.50471463014712E-10  1.87345982323999E-02
 cg2d: Sum(rhs),rhsMax =   2.50502979470824E-10  1.87350527528682E-02
 cg2d: Sum(rhs),rhsMax =   2.50538187418492E-10  1.87355107469006E-02
 cg2d: Sum(rhs),rhsMax =   2.50587106620515E-10  1.87359718089494E-02
 cg2d: Sum(rhs),rhsMax =   2.50622619879515E-10  1.87364355064300E-02
 cg2d: Sum(rhs),rhsMax =   2.50660242562262E-10  1.87369014285870E-02
 cg2d: Sum(rhs),rhsMax =   2.50693063530427E-10  1.87373691479593E-02
 cg2d: Sum(rhs),rhsMax =   2.50727702488796E-10  1.87378382207527E-02
 cg2d: Sum(rhs),rhsMax =   2.50761619802198E-10  1.87383081984161E-02
 cg2d: Sum(rhs),rhsMax =   2.50802600909594E-10  1.87387786275414E-02
 Computing Diagnostic #    26 "THETA   " (list#  1) Parms "SMR     MR      ", Count=     144
 Computing Diagnostic #    27 "SALT    " (list#  1) Parms "SMR     MR      ", Count=     144
 Computing Diagnostic #    30 "UVEL    " (list#  1) Parms "UUR     MR      ", Count=     144
             Vector  Mate for "UVEL    " :  Diagnostic #     31 "VVEL    " exists
 Computing Diagnostic #    32 "WVEL    " (list#  1) Parms "WM      LR      ", Count=     144
 Computing Diagnostic #    31 "VVEL    " (list#  1) Parms "VVR     MR      ", Count=     144
             Vector  Mate for "VVEL    " :  Diagnostic #     30 "UVEL    " exists
 Computing Diagnostic #   197 "BRGfwFlx" (list#  2) Parms "SM      MR      ", Count=     144
 Computing Diagnostic #   198 "BRGhtFlx" (list#  2) Parms "SM      MR      ", Count=     144
 Computing Diagnostic #   199 "BRGmltRt" (list#  2) Parms "SM      MR      ", Count=     144
 Computing Diagnostic #   201 "BRG_TauX" (list#  2) Parms "UU      MR      ", Count=    1728
 Computing Diagnostic #   202 "BRG_TauY" (list#  2) Parms "VV      MR      ", Count=    1728
 Computing Diagnostic #   203 "BRGhFacC" (list#  2) Parms "SM      MR      ", Count=    1728
 cg2d: Sum(rhs),rhsMax =   2.50825513137265E-10  1.87392490593435E-02
 cg2d: Sum(rhs),rhsMax =   2.50856932448862E-10  1.87397190444467E-02
 cg2d: Sum(rhs),rhsMax =   2.50891710185108E-10  1.87401881291545E-02
 cg2d: Sum(rhs),rhsMax =   2.50928736122980E-10  1.87406558869364E-02
 cg2d: Sum(rhs),rhsMax =   2.50978168803151E-10  1.87411218785326E-02
 cg2d: Sum(rhs),rhsMax =   2.51009657503687E-10  1.87415856813094E-02
 cg2d: Sum(rhs),rhsMax =   2.51053636213250E-10  1.87420468865480E-02
 cg2d: Sum(rhs),rhsMax =   2.51081447300017E-10  1.87425051109766E-02
 cg2d: Sum(rhs),rhsMax =   2.51119625094276E-10  1.87429599799131E-02
 cg2d: Sum(rhs),rhsMax =   2.51155235497791E-10  1.87434111397100E-02
 cg2d: Sum(rhs),rhsMax =   2.51195675371463E-10  1.87438582600328E-02
 cg2d: Sum(rhs),rhsMax =   2.51241250026624E-10  1.87442991230358E-02
 cg2d: Sum(rhs),rhsMax =   2.51281204177722E-10  1.87447353779319E-02
 cg2d: Sum(rhs),rhsMax =   2.51315010468822E-10  1.87451668045083E-02
 cg2d: Sum(rhs),rhsMax =   2.51354381752833E-10  1.87455931910601E-02
 cg2d: Sum(rhs),rhsMax =   2.51389742356167E-10  1.87460143660172E-02
 cg2d: Sum(rhs),rhsMax =   2.51443990628708E-10  1.87464301896101E-02
 cg2d: Sum(rhs),rhsMax =   2.51483750490777E-10  1.87468405458963E-02
 cg2d: Sum(rhs),rhsMax =   2.51516849014699E-10  1.87472453558615E-02
 cg2d: Sum(rhs),rhsMax =   2.51563644915187E-10  1.87476445692288E-02
 cg2d: Sum(rhs),rhsMax =   2.51609483248316E-10  1.87480381717055E-02
 cg2d: Sum(rhs),rhsMax =   2.51636364523300E-10  1.87484261782368E-02
 cg2d: Sum(rhs),rhsMax =   2.51677040319365E-10  1.87488086364851E-02
 cg2d: Sum(rhs),rhsMax =   2.51713400123421E-10  1.87491856273223E-02
 cg2d: Sum(rhs),rhsMax =   2.51765053249642E-10  1.87495572624989E-02
 cg2d: Sum(rhs),rhsMax =   2.51800802431035E-10  1.87499236949982E-02
 cg2d: Sum(rhs),rhsMax =   2.51836010378703E-10  1.87502850727000E-02
 cg2d: Sum(rhs),rhsMax =   2.51880058477205E-10  1.87506416022294E-02
 cg2d: Sum(rhs),rhsMax =   2.51921386529297E-10  1.87509935322273E-02
 cg2d: Sum(rhs),rhsMax =   2.51966711384277E-10  1.87513411211493E-02
 cg2d: Sum(rhs),rhsMax =   2.51995591060705E-10  1.87516846458010E-02
 cg2d: Sum(rhs),rhsMax =   2.52036419512436E-10  1.87520244139648E-02
 cg2d: Sum(rhs),rhsMax =   2.52087670182810E-10  1.87523607619492E-02
 cg2d: Sum(rhs),rhsMax =   2.52119200516709E-10  1.87526940413308E-02
 cg2d: Sum(rhs),rhsMax =   2.52157711377876E-10  1.87530246266835E-02
 cg2d: Sum(rhs),rhsMax =   2.52195181404957E-10  1.87533529082900E-02
 cg2d: Sum(rhs),rhsMax =   2.52242143838899E-10  1.87536792923705E-02
 cg2d: Sum(rhs),rhsMax =   2.52296933345164E-10  1.87540041974675E-02
 cg2d: Sum(rhs),rhsMax =   2.52335111139423E-10  1.87543280558989E-02
 cg2d: Sum(rhs),rhsMax =   2.52364906749847E-10  1.87546513083126E-02
 cg2d: Sum(rhs),rhsMax =   2.52410023438010E-10  1.87549744000590E-02
 cg2d: Sum(rhs),rhsMax =   2.52454515625722E-10  1.87552977851659E-02
 cg2d: Sum(rhs),rhsMax =   2.52484186336055E-10  1.87556219158670E-02
 cg2d: Sum(rhs),rhsMax =   2.52519810617358E-10  1.87559472476217E-02
 cg2d: Sum(rhs),rhsMax =   2.52557599833558E-10  1.87562742340490E-02
 cg2d: Sum(rhs),rhsMax =   2.52589435478789E-10  1.87566033223027E-02
 cg2d: Sum(rhs),rhsMax =   2.52629930863613E-10  1.87569349709133E-02
 cg2d: Sum(rhs),rhsMax =   2.52654772103789E-10  1.87572696354007E-02
 cg2d: Sum(rhs),rhsMax =   2.52691034763330E-10  1.87576076099602E-02
 cg2d: Sum(rhs),rhsMax =   2.52734069783322E-10  1.87579493703039E-02
 cg2d: Sum(rhs),rhsMax =   2.52758730612257E-10  1.87582953867312E-02
 cg2d: Sum(rhs),rhsMax =   2.52801113376222E-10  1.87586460717329E-02
 cg2d: Sum(rhs),rhsMax =   2.52832074720821E-10  1.87590017721197E-02
 cg2d: Sum(rhs),rhsMax =   2.52875331785418E-10  1.87593628226293E-02
 cg2d: Sum(rhs),rhsMax =   2.52904183706271E-10  1.87597295650881E-02
 cg2d: Sum(rhs),rhsMax =   2.52931398048162E-10  1.87601023076252E-02
 cg2d: Sum(rhs),rhsMax =   2.52968410108245E-10  1.87604813275209E-02
 cg2d: Sum(rhs),rhsMax =   2.53012777395867E-10  1.87608668768515E-02
 cg2d: Sum(rhs),rhsMax =   2.53056881005520E-10  1.87612591692560E-02
 cg2d: Sum(rhs),rhsMax =   2.53097112712375E-10  1.87616584038454E-02
 cg2d: Sum(rhs),rhsMax =   2.53136928085596E-10  1.87620647434432E-02
 cg2d: Sum(rhs),rhsMax =   2.53174772812947E-10  1.87624783237938E-02
 cg2d: Sum(rhs),rhsMax =   2.53208218281564E-10  1.87628992510032E-02
 cg2d: Sum(rhs),rhsMax =   2.53228701896369E-10  1.87633275968545E-02
 cg2d: Sum(rhs),rhsMax =   2.53264853533608E-10  1.87637634088432E-02
 cg2d: Sum(rhs),rhsMax =   2.53307444464390E-10  1.87642067010526E-02
 cg2d: Sum(rhs),rhsMax =   2.53346343903615E-10  1.87646574569686E-02
 cg2d: Sum(rhs),rhsMax =   2.53379608960991E-10  1.87651156317139E-02
 cg2d: Sum(rhs),rhsMax =   2.53403659167262E-10  1.87655811487149E-02
 cg2d: Sum(rhs),rhsMax =   2.53448220743913E-10  1.87660539023615E-02
 cg2d: Sum(rhs),rhsMax =   2.53483942169730E-10  1.87665337599151E-02
 cg2d: Sum(rhs),rhsMax =   2.53514639836361E-10  1.87670205584177E-02
 cg2d: Sum(rhs),rhsMax =   2.53559534479919E-10  1.87675141081287E-02
 cg2d: Sum(rhs),rhsMax =   2.53593618326775E-10  1.87680141963154E-02
 cg2d: Sum(rhs),rhsMax =   2.53631199376159E-10  1.87685205841723E-02
 cg2d: Sum(rhs),rhsMax =   2.53677231998317E-10  1.87690330091300E-02
 cg2d: Sum(rhs),rhsMax =   2.53710830122600E-10  1.87695511891140E-02
 cg2d: Sum(rhs),rhsMax =   2.53739793065755E-10  1.87700748223139E-02
 cg2d: Sum(rhs),rhsMax =   2.53782939108049E-10  1.87706035875268E-02
 cg2d: Sum(rhs),rhsMax =   2.53812984518653E-10  1.87711371496585E-02
 cg2d: Sum(rhs),rhsMax =   2.53852661113996E-10  1.87716751682993E-02
 cg2d: Sum(rhs),rhsMax =   2.53899679059089E-10  1.87722172778413E-02
 cg2d: Sum(rhs),rhsMax =   2.53946114137094E-10  1.87727630974557E-02
 cg2d: Sum(rhs),rhsMax =   2.53978740816230E-10  1.87733111230521E-02
 cg2d: Sum(rhs),rhsMax =   2.54008120093019E-10  1.87738621101327E-02
 cg2d: Sum(rhs),rhsMax =   2.54031212731931E-10  1.87744156902462E-02
 cg2d: Sum(rhs),rhsMax =   2.54083004636030E-10  1.87749716601256E-02
 cg2d: Sum(rhs),rhsMax =   2.54116117037739E-10  1.87755294430474E-02
 cg2d: Sum(rhs),rhsMax =   2.54152879297642E-10  1.87760886535212E-02
 cg2d: Sum(rhs),rhsMax =   2.54191029336326E-10  1.87766470269081E-02
 cg2d: Sum(rhs),rhsMax =   2.54219104101061E-10  1.87772060755164E-02
 cg2d: Sum(rhs),rhsMax =   2.54250814846202E-10  1.87777654567483E-02
 cg2d: Sum(rhs),rhsMax =   2.54281207201501E-10  1.87783248034005E-02
 cg2d: Sum(rhs),rhsMax =   2.54316734338289E-10  1.87788837752763E-02
 cg2d: Sum(rhs),rhsMax =   2.54352316986228E-10  1.87794420401406E-02
 cg2d: Sum(rhs),rhsMax =   2.54394449950013E-10  1.87799992777013E-02
 cg2d: Sum(rhs),rhsMax =   2.54419235679038E-10  1.87805551857531E-02
 cg2d: Sum(rhs),rhsMax =   2.54452417469686E-10  1.87811094696381E-02
 cg2d: Sum(rhs),rhsMax =   2.54490817308550E-10  1.87816618860713E-02
 cg2d: Sum(rhs),rhsMax =   2.54528079168814E-10  1.87822121903789E-02
 cg2d: Sum(rhs),rhsMax =   2.54563023438514E-10  1.87827601400229E-02
 cg2d: Sum(rhs),rhsMax =   2.54586546288849E-10  1.87833055213659E-02
 cg2d: Sum(rhs),rhsMax =   2.54622586903785E-10  1.87838481255810E-02
 cg2d: Sum(rhs),rhsMax =   2.54660223464320E-10  1.87843877674391E-02
 cg2d: Sum(rhs),rhsMax =   2.54686910450275E-10  1.87849242859731E-02
 cg2d: Sum(rhs),rhsMax =   2.54715540326522E-10  1.87854575371663E-02
 cg2d: Sum(rhs),rhsMax =   2.54755869177892E-10  1.87859874013670E-02
 cg2d: Sum(rhs),rhsMax =   2.54784998654500E-10  1.87865137762374E-02
 cg2d: Sum(rhs),rhsMax =   2.54817666967000E-10  1.87870365787322E-02
 cg2d: Sum(rhs),rhsMax =   2.54859938708663E-10  1.87875557429299E-02
 cg2d: Sum(rhs),rhsMax =   2.54900503482425E-10  1.87880712286459E-02
 cg2d: Sum(rhs),rhsMax =   2.54927828846618E-10  1.87885830210055E-02
 cg2d: Sum(rhs),rhsMax =   2.54967824631080E-10  1.87890911207853E-02
 cg2d: Sum(rhs),rhsMax =   2.55010831895497E-10  1.87895955508301E-02
 cg2d: Sum(rhs),rhsMax =   2.55054963260726E-10  1.87900963508280E-02
 cg2d: Sum(rhs),rhsMax =   2.55083551503610E-10  1.87905935820138E-02
 cg2d: Sum(rhs),rhsMax =   2.55125767734121E-10  1.87910873161549E-02
 cg2d: Sum(rhs),rhsMax =   2.55162710405266E-10  1.87915776464634E-02
 cg2d: Sum(rhs),rhsMax =   2.55197418752573E-10  1.87920646779824E-02
 cg2d: Sum(rhs),rhsMax =   2.55232016077578E-10  1.87925485314163E-02
 cg2d: Sum(rhs),rhsMax =   2.55279464234093E-10  1.87930293397606E-02
 cg2d: Sum(rhs),rhsMax =   2.55314214214764E-10  1.87935072474082E-02
 cg2d: Sum(rhs),rhsMax =   2.55355500633492E-10  1.87939824083328E-02
 cg2d: Sum(rhs),rhsMax =   2.55385573799671E-10  1.87944549869125E-02
 cg2d: Sum(rhs),rhsMax =   2.55418075578717E-10  1.87949251532040E-02
 cg2d: Sum(rhs),rhsMax =   2.55455309683406E-10  1.87953930878186E-02
 cg2d: Sum(rhs),rhsMax =   2.55486090616763E-10  1.87958600727674E-02
 cg2d: Sum(rhs),rhsMax =   2.55523061043483E-10  1.87965284762709E-02
 cg2d: Sum(rhs),rhsMax =   2.55565457685236E-10  1.87971963008150E-02
 cg2d: Sum(rhs),rhsMax =   2.55606230625816E-10  1.87978623493682E-02
 cg2d: Sum(rhs),rhsMax =   2.55646934177456E-10  1.87985274483650E-02
 cg2d: Sum(rhs),rhsMax =   2.55688054062730E-10  1.87991909341120E-02
 cg2d: Sum(rhs),rhsMax =   2.55719515007691E-10  1.87998525247311E-02
 cg2d: Sum(rhs),rhsMax =   2.55763826784161E-10  1.88005119905484E-02
 cg2d: Sum(rhs),rhsMax =   2.55793233816526E-10  1.88011690904406E-02
 cg2d: Sum(rhs),rhsMax =   2.55834006757105E-10  1.88018235827438E-02
 cg2d: Sum(rhs),rhsMax =   2.55866591802878E-10  1.88024752278142E-02
 cg2d: Sum(rhs),rhsMax =   2.55890530986846E-10  1.88031237911128E-02
 cg2d: Sum(rhs),rhsMax =   2.55934426429683E-10  1.88037690395974E-02
 cg2d: Sum(rhs),rhsMax =   2.55968302109721E-10  1.88044107483500E-02
 cg2d: Sum(rhs),rhsMax =   2.55991144948453E-10  1.88050486987160E-02
 cg2d: Sum(rhs),rhsMax =   2.56026699840817E-10  1.88056826747848E-02
 cg2d: Sum(rhs),rhsMax =   2.56059562442346E-10  1.88063124712445E-02
 cg2d: Sum(rhs),rhsMax =   2.56086221672724E-10  1.88069378877856E-02
 Computing Diagnostic #    26 "THETA   " (list#  1) Parms "SMR     MR      ", Count=     144
 Computing Diagnostic #    27 "SALT    " (list#  1) Parms "SMR     MR      ", Count=     144
 Computing Diagnostic #    30 "UVEL    " (list#  1) Parms "UUR     MR      ", Count=     144
             Vector  Mate for "UVEL    " :  Diagnostic #     31 "VVEL    " exists
 Computing Diagnostic #    32 "WVEL    " (list#  1) Parms "WM      LR      ", Count=     144
 Computing Diagnostic #    31 "VVEL    " (list#  1) Parms "VVR     MR      ", Count=     144
             Vector  Mate for "VVEL    " :  Diagnostic #     30 "UVEL    " exists
 Computing Diagnostic #   197 "BRGfwFlx" (list#  2) Parms "SM      MR      ", Count=     144
 Computing Diagnostic #   198 "BRGhtFlx" (list#  2) Parms "SM      MR      ", Count=     144
 Computing Diagnostic #   199 "BRGmltRt" (list#  2) Parms "SM      MR      ", Count=     144
 Computing Diagnostic #   201 "BRG_TauX" (list#  2) Parms "UU      MR      ", Count=    1728
 Computing Diagnostic #   202 "BRG_TauY" (list#  2) Parms "VV      MR      ", Count=    1728
 Computing Diagnostic #   203 "BRGhFacC" (list#  2) Parms "SM      MR      ", Count=    1728
 cg2d: Sum(rhs),rhsMax =   2.56119306318858E-10  1.88075587298354E-02
 cg2d: Sum(rhs),rhsMax =   2.56160842537767E-10  1.88081748142790E-02
 cg2d: Sum(rhs),rhsMax =   2.56191040604037E-10  1.88087859625709E-02
 cg2d: Sum(rhs),rhsMax =   2.56220780703309E-10  1.88093920076741E-02
 cg2d: Sum(rhs),rhsMax =   2.56258278485966E-10  1.88099927870054E-02
 cg2d: Sum(rhs),rhsMax =   2.56288920641445E-10  1.88105881496665E-02
 cg2d: Sum(rhs),rhsMax =   2.56316828872727E-10  1.88111779530720E-02
 cg2d: Sum(rhs),rhsMax =   2.56352536420756E-10  1.88117620640517E-02
 cg2d: Sum(rhs),rhsMax =   2.56388160702059E-10  1.88123403587457E-02
 cg2d: Sum(rhs),rhsMax =   2.56403134835104E-10  1.88129127243362E-02
 cg2d: Sum(rhs),rhsMax =   2.56431376133293E-10  1.88134790555026E-02
 cg2d: Sum(rhs),rhsMax =   2.56471593962360E-10  1.88140392601244E-02
 cg2d: Sum(rhs),rhsMax =   2.56520277241989E-10  1.88145932521974E-02
 cg2d: Sum(rhs),rhsMax =   2.56551085930923E-10  1.88151409595536E-02
 cg2d: Sum(rhs),rhsMax =   2.56586071833986E-10  1.88156823174504E-02
 cg2d: Sum(rhs),rhsMax =   2.56624943517636E-10  1.88162172745604E-02
 cg2d: Sum(rhs),rhsMax =   2.56658083674921E-10  1.88167457864592E-02
 cg2d: Sum(rhs),rhsMax =   2.56699411727013E-10  1.88172678208248E-02
 cg2d: Sum(rhs),rhsMax =   2.56738352799601E-10  1.88177833541913E-02
 cg2d: Sum(rhs),rhsMax =   2.56761695238694E-10  1.88182923738408E-02
 cg2d: Sum(rhs),rhsMax =   2.56795709696611E-10  1.88187948805500E-02
 cg2d: Sum(rhs),rhsMax =   2.56833943002022E-10  1.88192908705056E-02
 cg2d: Sum(rhs),rhsMax =   2.56876214743684E-10  1.88197803613210E-02
 cg2d: Sum(rhs),rhsMax =   2.56897725314786E-10  1.88202633781905E-02
 cg2d: Sum(rhs),rhsMax =   2.56922358388145E-10  1.88207399516284E-02
 cg2d: Sum(rhs),rhsMax =   2.56951807053873E-10  1.88212101220193E-02
 cg2d: Sum(rhs),rhsMax =   2.56989041158562E-10  1.88216739346350E-02
 cg2d: Sum(rhs),rhsMax =   2.57023305416659E-10  1.88221314403200E-02
 cg2d: Sum(rhs),rhsMax =   2.57073723419765E-10  1.88225827039976E-02
 cg2d: Sum(rhs),rhsMax =   2.57108598300526E-10  1.88230277887129E-02
 cg2d: Sum(rhs),rhsMax =   2.57139934345396E-10  1.88234010647328E-02
 cg2d: Sum(rhs),rhsMax =   2.57176988038843E-10  1.88237894214634E-02
 cg2d: Sum(rhs),rhsMax =   2.57204396669763E-10  1.88241729178468E-02
 cg2d: Sum(rhs),rhsMax =   2.57245391654948E-10  1.88245515007744E-02
 cg2d: Sum(rhs),rhsMax =   2.57272744774717E-10  1.88249257024681E-02
 cg2d: Sum(rhs),rhsMax =   2.57310214801798E-10  1.88252958207193E-02
 cg2d: Sum(rhs),rhsMax =   2.57345714183010E-10  1.88256621585613E-02
 cg2d: Sum(rhs),rhsMax =   2.57393120706162E-10  1.88260250255439E-02
 cg2d: Sum(rhs),rhsMax =   2.57430909922363E-10  1.88263847345591E-02
 cg2d: Sum(rhs),rhsMax =   2.57473029008359E-10  1.88267415891598E-02
 cg2d: Sum(rhs),rhsMax =   2.57509985557292E-10  1.88270958752701E-02
 cg2d: Sum(rhs),rhsMax =   2.57550966664688E-10  1.88274478789402E-02
 cg2d: Sum(rhs),rhsMax =   2.57582233320619E-10  1.88277978635765E-02
 cg2d: Sum(rhs),rhsMax =   2.57614152232577E-10  1.88281460796136E-02
 cg2d: Sum(rhs),rhsMax =   2.57653037794014E-10  1.88284927614961E-02
 cg2d: Sum(rhs),rhsMax =   2.57685400795182E-10  1.88288381325183E-02
 cg2d: Sum(rhs),rhsMax =   2.57723759000683E-10  1.88291832678058E-02
 cg2d: Sum(rhs),rhsMax =   2.57761728628125E-10  1.88295275021755E-02
 cg2d: Sum(rhs),rhsMax =   2.57792634461573E-10  1.88298709487715E-02
 cg2d: Sum(rhs),rhsMax =   2.57836488271046E-10  1.88302137591755E-02
 cg2d: Sum(rhs),rhsMax =   2.57872362352529E-10  1.88305560489668E-02
 cg2d: Sum(rhs),rhsMax =   2.57917728840873E-10  1.88308979148078E-02
 cg2d: Sum(rhs),rhsMax =   2.57950230619919E-10  1.88312394290253E-02
 cg2d: Sum(rhs),rhsMax =   2.57978069462261E-10  1.88315806427823E-02
 cg2d: Sum(rhs),rhsMax =   2.58029361765999E-10  1.88319215852800E-02
 cg2d: Sum(rhs),rhsMax =   2.58061266800169E-10  1.88322622636612E-02
 cg2d: Sum(rhs),rhsMax =   2.58088578286575E-10  1.88326026616959E-02
 cg2d: Sum(rhs),rhsMax =   2.58131294117447E-10  1.88329427425781E-02
 cg2d: Sum(rhs),rhsMax =   2.58160826049902E-10  1.88332824482951E-02
 cg2d: Sum(rhs),rhsMax =   2.58200183456125E-10  1.88336216998765E-02
 cg2d: Sum(rhs),rhsMax =   2.58231519500995E-10  1.88339603968616E-02
 cg2d: Sum(rhs),rhsMax =   2.58279883591506E-10  1.88342984371732E-02
 cg2d: Sum(rhs),rhsMax =   2.58311275147527E-10  1.88346356918046E-02
 cg2d: Sum(rhs),rhsMax =   2.58341209535828E-10  1.88349720068500E-02
 cg2d: Sum(rhs),rhsMax =   2.58383925366701E-10  1.88353072118485E-02
 cg2d: Sum(rhs),rhsMax =   2.58433691113780E-10  1.88356411234340E-02
 cg2d: Sum(rhs),rhsMax =   2.58474533443298E-10  1.88359735415516E-02
 cg2d: Sum(rhs),rhsMax =   2.58520913010152E-10  1.88363042571908E-02
 cg2d: Sum(rhs),rhsMax =   2.58547724896196E-10  1.88366330499214E-02
 cg2d: Sum(rhs),rhsMax =   2.58583793266709E-10  1.88369596896025E-02
 cg2d: Sum(rhs),rhsMax =   2.58628479743450E-10  1.88372839403270E-02
 cg2d: Sum(rhs),rhsMax =   2.58663646057755E-10  1.88376055522617E-02
 cg2d: Sum(rhs),rhsMax =   2.58707749667408E-10  1.88379242869399E-02
 cg2d: Sum(rhs),rhsMax =   2.58749577319861E-10  1.88382398943205E-02
 cg2d: Sum(rhs),rhsMax =   2.58783966478049E-10  1.88385521211546E-02
 cg2d: Sum(rhs),rhsMax =   2.58813109832445E-10  1.88388607237516E-02
 cg2d: Sum(rhs),rhsMax =   2.58846444278760E-10  1.88391654566809E-02
 cg2d: Sum(rhs),rhsMax =   2.58879348513652E-10  1.88394660844975E-02
 cg2d: Sum(rhs),rhsMax =   2.58920176965383E-10  1.88397623739338E-02
 cg2d: Sum(rhs),rhsMax =   2.58961393995172E-10  1.88400540964110E-02
 cg2d: Sum(rhs),rhsMax =   2.58999890978551E-10  1.88403410446178E-02
 cg2d: Sum(rhs),rhsMax =   2.59039747985135E-10  1.88406230251113E-02
 cg2d: Sum(rhs),rhsMax =   2.59084712017632E-10  1.88408998801632E-02
 cg2d: Sum(rhs),rhsMax =   2.59118004830583E-10  1.88411714024355E-02
 cg2d: Sum(rhs),rhsMax =   2.59146884507011E-10  1.88414374265834E-02
 cg2d: Sum(rhs),rhsMax =   2.59183674522490E-10  1.88416978199783E-02
 cg2d: Sum(rhs),rhsMax =   2.59213220332732E-10  1.88419524678065E-02
 cg2d: Sum(rhs),rhsMax =   2.59243432276790E-10  1.88422012794844E-02
 cg2d: Sum(rhs),rhsMax =   2.59266247359946E-10  1.88424441901614E-02
 cg2d: Sum(rhs),rhsMax =   2.59299373639443E-10  1.88426811549325E-02
 cg2d: Sum(rhs),rhsMax =   2.59324325901922E-10  1.88429121499582E-02
 cg2d: Sum(rhs),rhsMax =   2.59363100441057E-10  1.88431371743123E-02
 cg2d: Sum(rhs),rhsMax =   2.59399071667055E-10  1.88433562513596E-02
 cg2d: Sum(rhs),rhsMax =   2.59433155513911E-10  1.88435694313040E-02
 cg2d: Sum(rhs),rhsMax =   2.59469098984333E-10  1.88437767881165E-02
 cg2d: Sum(rhs),rhsMax =   2.59518587175656E-10  1.88439784210626E-02
 cg2d: Sum(rhs),rhsMax =   2.59559540527476E-10  1.88441744588938E-02
 cg2d: Sum(rhs),rhsMax =   2.59600466123722E-10  1.88443650514246E-02
 cg2d: Sum(rhs),rhsMax =   2.59638172073196E-10  1.88445503834886E-02
 cg2d: Sum(rhs),rhsMax =   2.59679971970073E-10  1.88447306582605E-02
 cg2d: Sum(rhs),rhsMax =   2.59714236228170E-10  1.88449061077969E-02
 cg2d: Sum(rhs),rhsMax =   2.59753177300759E-10  1.88450769909308E-02
 cg2d: Sum(rhs),rhsMax =   2.59788759948698E-10  1.88452435855034E-02
 cg2d: Sum(rhs),rhsMax =   2.59830837401331E-10  1.88454062136743E-02
 cg2d: Sum(rhs),rhsMax =   2.59880603148410E-10  1.88455651693072E-02
 cg2d: Sum(rhs),rhsMax =   2.59925941881178E-10  1.88457208080192E-02
 cg2d: Sum(rhs),rhsMax =   2.59962135151781E-10  1.88458734983627E-02
 cg2d: Sum(rhs),rhsMax =   2.60000090901435E-10  1.88460236214432E-02
 cg2d: Sum(rhs),rhsMax =   2.60040225463776E-10  1.88461715726554E-02
 cg2d: Sum(rhs),rhsMax =   2.60082233527470E-10  1.88463177642947E-02
 cg2d: Sum(rhs),rhsMax =   2.60121119088907E-10  1.88464626198213E-02
 cg2d: Sum(rhs),rhsMax =   2.60156673981271E-10  1.88466065770594E-02
 cg2d: Sum(rhs),rhsMax =   2.60203039670337E-10  1.88467500811198E-02
 cg2d: Sum(rhs),rhsMax =   2.60241272975748E-10  1.88468935821190E-02
 cg2d: Sum(rhs),rhsMax =   2.60276411534477E-10  1.88470375363946E-02
 cg2d: Sum(rhs),rhsMax =   2.60316837530361E-10  1.88471824062165E-02
 cg2d: Sum(rhs),rhsMax =   2.60347965408414E-10  1.88473286509622E-02
 cg2d: Sum(rhs),rhsMax =   2.60390931039467E-10  1.88474767298191E-02
 cg2d: Sum(rhs),rhsMax =   2.60440904953363E-10  1.88476270997059E-02
 cg2d: Sum(rhs),rhsMax =   2.60486784919856E-10  1.88477802123783E-02
 cg2d: Sum(rhs),rhsMax =   2.60531873852443E-10  1.88479365120659E-02
 cg2d: Sum(rhs),rhsMax =   2.60573534971442E-10  1.88480964323488E-02
 cg2d: Sum(rhs),rhsMax =   2.60618096548093E-10  1.88482603957567E-02
 cg2d: Sum(rhs),rhsMax =   2.60653859607274E-10  1.88484288088955E-02
 cg2d: Sum(rhs),rhsMax =   2.60680504959865E-10  1.88486020662683E-02
 cg2d: Sum(rhs),rhsMax =   2.60706123356158E-10  1.88487805400599E-02
 cg2d: Sum(rhs),rhsMax =   2.60757609948925E-10  1.88489645861114E-02
 cg2d: Sum(rhs),rhsMax =   2.60785601446933E-10  1.88491545385279E-02
 cg2d: Sum(rhs),rhsMax =   2.60832522247512E-10  1.88493507069252E-02
 cg2d: Sum(rhs),rhsMax =   2.60859681078252E-10  1.88495533758776E-02
 cg2d: Sum(rhs),rhsMax =   2.60892876746688E-10  1.88497628025125E-02
 cg2d: Sum(rhs),rhsMax =   2.60921076411513E-10  1.88499792195652E-02
 cg2d: Sum(rhs),rhsMax =   2.60960281162070E-10  1.88502028282645E-02
 cg2d: Sum(rhs),rhsMax =   2.60996405043734E-10  1.88504337988586E-02
 cg2d: Sum(rhs),rhsMax =   2.61026450454338E-10  1.88506722718706E-02
 cg2d: Sum(rhs),rhsMax =   2.61067709117491E-10  1.88509183518707E-02
 cg2d: Sum(rhs),rhsMax =   2.61092175657396E-10  1.88511721164131E-02
 cg2d: Sum(rhs),rhsMax =   2.61122914957390E-10  1.88514336040061E-02
 cg2d: Sum(rhs),rhsMax =   2.61165894466231E-10  1.88517028228497E-02
 cg2d: Sum(rhs),rhsMax =   2.61211108298909E-10  1.88519797428819E-02
 cg2d: Sum(rhs),rhsMax =   2.61245539090460E-10  1.88522643038085E-02
 cg2d: Sum(rhs),rhsMax =   2.61280830304855E-10  1.88525564098468E-02
 cg2d: Sum(rhs),rhsMax =   2.61320229344442E-10  1.88528559278334E-02
 cg2d: Sum(rhs),rhsMax =   2.61361737807775E-10  1.88531626941062E-02
(PID.TID 0000.0001)      cg2d_init_res =   1.28170502631418E-04
(PID.TID 0000.0001)      cg2d_iters(min,last) =      -1      39
(PID.TID 0000.0001)      cg2d_last_res =   8.43470226841114E-14
(PID.TID 0000.0001) // =======================================================
(PID.TID 0000.0001) // Begin MONITOR dynamic field statistics
(PID.TID 0000.0001) // =======================================================
(PID.TID 0000.0001) %MON time_tsnumber                =                  7776
(PID.TID 0000.0001) %MON time_secondsf                =   1.9440000000000E+05
(PID.TID 0000.0001) %MON dynstat_eta_max              =   5.6550901844396E-03
(PID.TID 0000.0001) %MON dynstat_eta_min              =  -2.7230608006681E-03
(PID.TID 0000.0001) %MON dynstat_eta_mean             =  -3.3003819650570E-14
(PID.TID 0000.0001) %MON dynstat_eta_sd               =   2.8414144670374E-03
(PID.TID 0000.0001) %MON dynstat_eta_del2             =   2.4301688744688E-05
(PID.TID 0000.0001) %MON dynstat_uvel_max             =   4.9296432555263E-02
(PID.TID 0000.0001) %MON dynstat_uvel_min             =  -2.9433462636361E-02
(PID.TID 0000.0001) %MON dynstat_uvel_mean            =  -3.7540824676916E-09
(PID.TID 0000.0001) %MON dynstat_uvel_sd              =   5.8480963180641E-03
(PID.TID 0000.0001) %MON dynstat_uvel_del2            =   1.0711477597566E-04
(PID.TID 0000.0001) %MON dynstat_vvel_max             =   1.9965871076814E-02
(PID.TID 0000.0001) %MON dynstat_vvel_min             =  -3.2454764994348E-02
(PID.TID 0000.0001) %MON dynstat_vvel_mean            =  -8.0919747115135E-03
(PID.TID 0000.0001) %MON dynstat_vvel_sd              =   1.1274001962772E-02
(PID.TID 0000.0001) %MON dynstat_vvel_del2            =   9.3991106458899E-05
(PID.TID 0000.0001) %MON dynstat_wvel_max             =   1.3424732221793E-03
(PID.TID 0000.0001) %MON dynstat_wvel_min             =  -1.1668858626498E-03
(PID.TID 0000.0001) %MON dynstat_wvel_mean            =  -3.4459876171326E-21
(PID.TID 0000.0001) %MON dynstat_wvel_sd              =   1.3000090500867E-04
(PID.TID 0000.0001) %MON dynstat_wvel_del2            =   6.3435947284111E-06
(PID.TID 0000.0001) %MON dynstat_theta_max            =   2.6931451612903E+00
(PID.TID 0000.0001) %MON dynstat_theta_min            =  -1.2384780868924E-01
(PID.TID 0000.0001) %MON dynstat_theta_mean           =   2.2387798860431E+00
(PID.TID 0000.0001) %MON dynstat_theta_sd             =   4.7296975625802E-01
(PID.TID 0000.0001) %MON dynstat_theta_del2           =   1.4125172672808E-03
(PID.TID 0000.0001) %MON dynstat_salt_max             =   3.4699999999999E+01
(PID.TID 0000.0001) %MON dynstat_salt_min             =   3.3033460817227E+01
(PID.TID 0000.0001) %MON dynstat_salt_mean            =   3.4364963985883E+01
(PID.TID 0000.0001) %MON dynstat_salt_sd              =   3.2082382475845E-01
(PID.TID 0000.0001) %MON dynstat_salt_del2            =   2.0019701106739E-04
(PID.TID 0000.0001) %MON advcfl_uvel_max              =   2.4648216277632E-03
(PID.TID 0000.0001) %MON advcfl_vvel_max              =   1.6227382497174E-03
(PID.TID 0000.0001) %MON advcfl_wvel_max              =   7.0512666977036E-04
(PID.TID 0000.0001) %MON advcfl_W_hf_max              =   1.9815124447404E-03
(PID.TID 0000.0001) %MON pe_b_mean                    =   6.7361825355484E-08
(PID.TID 0000.0001) %MON ke_max                       =   1.1344540418544E-03
(PID.TID 0000.0001) %MON ke_mean                      =   1.0343494285767E-04
(PID.TID 0000.0001) %MON ke_vol                       =   3.2921708585402E+10
(PID.TID 0000.0001) // =======================================================
(PID.TID 0000.0001) // End MONITOR dynamic field statistics
(PID.TID 0000.0001) // =======================================================
(PID.TID 0000.0001) // =======================================================
(PID.TID 0000.0001) // Begin OBCS MONITOR field statistics
(PID.TID 0000.0001) // =======================================================
(PID.TID 0000.0001) %MON obc_E_uVel_max               =   0.0000000000000E+00
(PID.TID 0000.0001) %MON obc_E_uVel_min               =   0.0000000000000E+00
(PID.TID 0000.0001) %MON obc_E_uVel_mean              =   0.0000000000000E+00
(PID.TID 0000.0001) %MON obc_E_uVel_sd                =   0.0000000000000E+00
(PID.TID 0000.0001) %MON obc_E_uVel_Int               =   0.0000000000000E+00
(PID.TID 0000.0001) %MON obc_N_vVel_max               =  -3.6115799844846E-05
(PID.TID 0000.0001) %MON obc_N_vVel_min               =  -3.0000000000000E-02
(PID.TID 0000.0001) %MON obc_N_vVel_mean              =  -1.3225455303334E-02
(PID.TID 0000.0001) %MON obc_N_vVel_sd                =   1.1350864292742E-02
(PID.TID 0000.0001) %MON obc_N_vVel_Int               =  -5.9514548865004E+04
(PID.TID 0000.0001) %MON obc_S_vVel_max               =  -3.6115799844846E-05
(PID.TID 0000.0001) %MON obc_S_vVel_min               =  -3.0000000000000E-02
(PID.TID 0000.0001) %MON obc_S_vVel_mean              =  -1.3225455303334E-02
(PID.TID 0000.0001) %MON obc_S_vVel_sd                =   1.1350864292742E-02
(PID.TID 0000.0001) %MON obc_S_vVel_Int               =  -5.9514548865004E+04
(PID.TID 0000.0001) // =======================================================
(PID.TID 0000.0001) // End OBCS MONITOR field statistics
(PID.TID 0000.0001) // =======================================================
 Computing Diagnostic #    26 "THETA   " (list#  1) Parms "SMR     MR      ", Count=     144
 Computing Diagnostic #    27 "SALT    " (list#  1) Parms "SMR     MR      ", Count=     144
 Computing Diagnostic #    30 "UVEL    " (list#  1) Parms "UUR     MR      ", Count=     144
             Vector  Mate for "UVEL    " :  Diagnostic #     31 "VVEL    " exists
 Computing Diagnostic #    32 "WVEL    " (list#  1) Parms "WM      LR      ", Count=     144
 Computing Diagnostic #    31 "VVEL    " (list#  1) Parms "VVR     MR      ", Count=     144
             Vector  Mate for "VVEL    " :  Diagnostic #     30 "UVEL    " exists
 Computing Diagnostic #   197 "BRGfwFlx" (list#  2) Parms "SM      MR      ", Count=     144
 Computing Diagnostic #   198 "BRGhtFlx" (list#  2) Parms "SM      MR      ", Count=     144
 Computing Diagnostic #   199 "BRGmltRt" (list#  2) Parms "SM      MR      ", Count=     144
 Computing Diagnostic #   201 "BRG_TauX" (list#  2) Parms "UU      MR      ", Count=    1728
 Computing Diagnostic #   202 "BRG_TauY" (list#  2) Parms "VV      MR      ", Count=    1728
 Computing Diagnostic #   203 "BRGhFacC" (list#  2) Parms "SM      MR      ", Count=    1728
 cg2d: Sum(rhs),rhsMax =   2.61404314860769E-10  1.88534764750636E-02
 cg2d: Sum(rhs),rhsMax =   2.61432944737017E-10  1.88537970886379E-02
 cg2d: Sum(rhs),rhsMax =   2.61482488439491E-10  1.88541242657484E-02
 cg2d: Sum(rhs),rhsMax =   2.61524635281063E-10  1.88544576990176E-02
 cg2d: Sum(rhs),rhsMax =   2.61556831748777E-10  1.88547970587806E-02
 cg2d: Sum(rhs),rhsMax =   2.61587057570623E-10  1.88551419908270E-02
 cg2d: Sum(rhs),rhsMax =   2.61622182251564E-10  1.88554739166393E-02
 cg2d: Sum(rhs),rhsMax =   2.61670338175257E-10  1.88558100780777E-02
 cg2d: Sum(rhs),rhsMax =   2.61709057203241E-10  1.88561510513442E-02
 cg2d: Sum(rhs),rhsMax =   2.61755533914609E-10  1.88564962064857E-02
 cg2d: Sum(rhs),rhsMax =   2.61784802169096E-10  1.88568451214684E-02
 cg2d: Sum(rhs),rhsMax =   2.61820676250579E-10  1.88571973853499E-02
 cg2d: Sum(rhs),rhsMax =   2.61854371519377E-10  1.88575525635533E-02
 cg2d: Sum(rhs),rhsMax =   2.61889690489348E-10  1.88579102014647E-02
 cg2d: Sum(rhs),rhsMax =   2.61913782328982E-10  1.88582698286367E-02
 cg2d: Sum(rhs),rhsMax =   2.61954208324866E-10  1.88586310306083E-02
 cg2d: Sum(rhs),rhsMax =   2.61990262817591E-10  1.88589933378946E-02
 cg2d: Sum(rhs),rhsMax =   2.62021335184492E-10  1.88593562350854E-02
 cg2d: Sum(rhs),rhsMax =   2.62057250899339E-10  1.88597191949988E-02
 cg2d: Sum(rhs),rhsMax =   2.62078858614956E-10  1.88600816801974E-02
 cg2d: Sum(rhs),rhsMax =   2.62118729499328E-10  1.88604431498691E-02
 cg2d: Sum(rhs),rhsMax =   2.62159141617424E-10  1.88608030565199E-02
 cg2d: Sum(rhs),rhsMax =   2.62189839284055E-10  1.88611608489216E-02
 cg2d: Sum(rhs),rhsMax =   2.62221425129106E-10  1.88615159784406E-02
 cg2d: Sum(rhs),rhsMax =   2.62249638671719E-10  1.88618678951877E-02
 cg2d: Sum(rhs),rhsMax =   2.62282029428462E-10  1.88622160530565E-02
 cg2d: Sum(rhs),rhsMax =   2.62307953136087E-10  1.88625599139752E-02
 cg2d: Sum(rhs),rhsMax =   2.62340885126555E-10  1.88628989447190E-02
 cg2d: Sum(rhs),rhsMax =   2.62372679138423E-10  1.88632326210793E-02
 cg2d: Sum(rhs),rhsMax =   2.62406013584737E-10  1.88635604347653E-02
 cg2d: Sum(rhs),rhsMax =   2.62436808395883E-10  1.88638818856740E-02
 cg2d: Sum(rhs),rhsMax =   2.62477095613889E-10  1.88641964929278E-02
 cg2d: Sum(rhs),rhsMax =   2.62514204818487E-10  1.88645037907828E-02
 cg2d: Sum(rhs),rhsMax =   2.62544472273696E-10  1.88648033329436E-02
 cg2d: Sum(rhs),rhsMax =   2.62583371712921E-10  1.88650946924954E-02
 cg2d: Sum(rhs),rhsMax =   2.62619453961221E-10  1.88653774651116E-02
 cg2d: Sum(rhs),rhsMax =   2.62643545800856E-10  1.88656512686423E-02
 cg2d: Sum(rhs),rhsMax =   2.62684082819042E-10  1.88659157482119E-02
 cg2d: Sum(rhs),rhsMax =   2.62725147193166E-10  1.88661705688873E-02
 cg2d: Sum(rhs),rhsMax =   2.62754887292438E-10  1.88664154296287E-02
 cg2d: Sum(rhs),rhsMax =   2.62793176109000E-10  1.88666500527980E-02
 cg2d: Sum(rhs),rhsMax =   2.62845786802579E-10  1.88668741911623E-02
 cg2d: Sum(rhs),rhsMax =   2.62880897605733E-10  1.88670876257480E-02
 cg2d: Sum(rhs),rhsMax =   2.62933202987981E-10  1.88672901687834E-02
 cg2d: Sum(rhs),rhsMax =   2.62972643660930E-10  1.88674816603869E-02
 cg2d: Sum(rhs),rhsMax =   2.63012625567605E-10  1.88676619770930E-02
 cg2d: Sum(rhs),rhsMax =   2.63055591198658E-10  1.88678310241846E-02
 cg2d: Sum(rhs),rhsMax =   2.63105134901132E-10  1.88679887347557E-02
 cg2d: Sum(rhs),rhsMax =   2.63140023659680E-10  1.88681350767685E-02
 cg2d: Sum(rhs),rhsMax =   2.63186611393351E-10  1.88682700489489E-02
 cg2d: Sum(rhs),rhsMax =   2.63221999752261E-10  1.88683936819580E-02
 cg2d: Sum(rhs),rhsMax =   2.63261079602728E-10  1.88685060371711E-02
 cg2d: Sum(rhs),rhsMax =   2.63299340663714E-10  1.88686072161309E-02
 cg2d: Sum(rhs),rhsMax =   2.63351826457203E-10  1.88686973304141E-02
 cg2d: Sum(rhs),rhsMax =   2.63380026122029E-10  1.88687765264684E-02
 cg2d: Sum(rhs),rhsMax =   2.63418301060803E-10  1.88688449957589E-02
 cg2d: Sum(rhs),rhsMax =   2.63458171945175E-10  1.88689029397870E-02
 cg2d: Sum(rhs),rhsMax =   2.63504162933970E-10  1.88689505910739E-02
 cg2d: Sum(rhs),rhsMax =   2.63539912115363E-10  1.88689882130406E-02
 cg2d: Sum(rhs),rhsMax =   2.63590871352193E-10  1.88690160903374E-02
 cg2d: Sum(rhs),rhsMax =   2.63639693409701E-10  1.88690345352349E-02
 cg2d: Sum(rhs),rhsMax =   2.63687030543913E-10  1.88690438807936E-02
 cg2d: Sum(rhs),rhsMax =   2.63734215022460E-10  1.88690444809555E-02
 cg2d: Sum(rhs),rhsMax =   2.63785174259290E-10  1.88690367086616E-02
 cg2d: Sum(rhs),rhsMax =   2.63821214874227E-10  1.88690209571959E-02
 cg2d: Sum(rhs),rhsMax =   2.63861751892414E-10  1.88689976383321E-02
 cg2d: Sum(rhs),rhsMax =   2.63906133057823E-10  1.88689671762342E-02
 cg2d: Sum(rhs),rhsMax =   2.63954691437362E-10  1.88689300127942E-02
 cg2d: Sum(rhs),rhsMax =   2.63997032567964E-10  1.88688866027062E-02
 cg2d: Sum(rhs),rhsMax =   2.64037791630756E-10  1.88688374085739E-02
 cg2d: Sum(rhs),rhsMax =   2.64067434585513E-10  1.88687829099428E-02
 cg2d: Sum(rhs),rhsMax =   2.64119170978461E-10  1.88687235880361E-02
 cg2d: Sum(rhs),rhsMax =   2.64151173157146E-10  1.88686599355706E-02
 cg2d: Sum(rhs),rhsMax =   2.64195568200343E-10  1.88685924508897E-02
 cg2d: Sum(rhs),rhsMax =   2.64229846336228E-10  1.88685216333372E-02
 cg2d: Sum(rhs),rhsMax =   2.64278432471343E-10  1.88684479886361E-02
 cg2d: Sum(rhs),rhsMax =   2.64319080511832E-10  1.88683720215954E-02
 cg2d: Sum(rhs),rhsMax =   2.64372149172409E-10  1.88682942370288E-02
 cg2d: Sum(rhs),rhsMax =   2.64409868999671E-10  1.88682151397404E-02
 cg2d: Sum(rhs),rhsMax =   2.64445840225669E-10  1.88681352283337E-02
 cg2d: Sum(rhs),rhsMax =   2.64482283296452E-10  1.88680550008761E-02
 cg2d: Sum(rhs),rhsMax =   2.64519670056806E-10  1.88679749476319E-02
 cg2d: Sum(rhs),rhsMax =   2.64554392281902E-10  1.88678955547777E-02
 cg2d: Sum(rhs),rhsMax =   2.64604033128890E-10  1.88678172968529E-02
 cg2d: Sum(rhs),rhsMax =   2.64652411097188E-10  1.88677406418951E-02
 cg2d: Sum(rhs),rhsMax =   2.64685939832532E-10  1.88676660488028E-02
 cg2d: Sum(rhs),rhsMax =   2.64725769083540E-10  1.88675939649778E-02
 cg2d: Sum(rhs),rhsMax =   2.64763530544165E-10  1.88675248214865E-02
 cg2d: Sum(rhs),rhsMax =   2.64804192462442E-10  1.88674587420173E-02
 cg2d: Sum(rhs),rhsMax =   2.64851945930289E-10  1.88673964152992E-02
 cg2d: Sum(rhs),rhsMax =   2.64889249423916E-10  1.88673378801984E-02
 cg2d: Sum(rhs),rhsMax =   2.64927538240478E-10  1.88672835541308E-02
 cg2d: Sum(rhs),rhsMax =   2.64978719521913E-10  1.88672337967903E-02
 cg2d: Sum(rhs),rhsMax =   2.65020769218971E-10  1.88671889172232E-02
 cg2d: Sum(rhs),rhsMax =   2.65065497329076E-10  1.88671492069891E-02
 cg2d: Sum(rhs),rhsMax =   2.65109753594395E-10  1.88671149461307E-02
 cg2d: Sum(rhs),rhsMax =   2.65162058976642E-10  1.88670863998884E-02
 cg2d: Sum(rhs),rhsMax =   2.65197641624582E-10  1.88670643212688E-02
 cg2d: Sum(rhs),rhsMax =   2.65243021990713E-10  1.88670484386476E-02
 cg2d: Sum(rhs),rhsMax =   2.65281963063302E-10  1.88670389611084E-02
 cg2d: Sum(rhs),rhsMax =   2.65317351422212E-10  1.88670360961728E-02
 cg2d: Sum(rhs),rhsMax =   2.65363106488614E-10  1.88670400275168E-02
 cg2d: Sum(rhs),rhsMax =   2.65401853272174E-10  1.88670509242118E-02
 cg2d: Sum(rhs),rhsMax =   2.65439240032528E-10  1.88670689397258E-02
 cg2d: Sum(rhs),rhsMax =   2.65476848837487E-10  1.88670941901341E-02
 cg2d: Sum(rhs),rhsMax =   2.65525018638968E-10  1.88671268571592E-02
 cg2d: Sum(rhs),rhsMax =   2.65562558054988E-10  1.88671533540598E-02
 cg2d: Sum(rhs),rhsMax =   2.65611352356920E-10  1.88671799342036E-02
 cg2d: Sum(rhs),rhsMax =   2.65653499198493E-10  1.88672145991199E-02
 cg2d: Sum(rhs),rhsMax =   2.65693633760833E-10  1.88672576016117E-02
 cg2d: Sum(rhs),rhsMax =   2.65730576431977E-10  1.88673091875763E-02
 cg2d: Sum(rhs),rhsMax =   2.65774929841811E-10  1.88673696002780E-02
 cg2d: Sum(rhs),rhsMax =   2.65828054013539E-10  1.88674390484622E-02
 cg2d: Sum(rhs),rhsMax =   2.65861041515159E-10  1.88675177181373E-02
 cg2d: Sum(rhs),rhsMax =   2.65897109885671E-10  1.88676057755510E-02
 cg2d: Sum(rhs),rhsMax =   2.65932387222279E-10  1.88677033601842E-02
 cg2d: Sum(rhs),rhsMax =   2.65968885804213E-10  1.88678105869412E-02
 cg2d: Sum(rhs),rhsMax =   2.66021857320276E-10  1.88679275441844E-02
 cg2d: Sum(rhs),rhsMax =   2.66056732201037E-10  1.88680542954748E-02
 cg2d: Sum(rhs),rhsMax =   2.66110786184548E-10  1.88681908780827E-02
 cg2d: Sum(rhs),rhsMax =   2.66161565010137E-10  1.88683372995270E-02
 cg2d: Sum(rhs),rhsMax =   2.66192567988099E-10  1.88684935459358E-02
 cg2d: Sum(rhs),rhsMax =   2.66225833045475E-10  1.88686595727585E-02
 cg2d: Sum(rhs),rhsMax =   2.66253769032332E-10  1.88688353128355E-02
 cg2d: Sum(rhs),rhsMax =   2.66293001538465E-10  1.88690206648725E-02
 cg2d: Sum(rhs),rhsMax =   2.66321881214893E-10  1.88692157706792E-02
 cg2d: Sum(rhs),rhsMax =   2.66360003498001E-10  1.88694214678747E-02
 cg2d: Sum(rhs),rhsMax =   2.66399291515285E-10  1.88696376095883E-02
 cg2d: Sum(rhs),rhsMax =   2.66437510942907E-10  1.88698639778273E-02
 cg2d: Sum(rhs),rhsMax =   2.66481767208226E-10  1.88701003434599E-02
 cg2d: Sum(rhs),rhsMax =   2.66518529468129E-10  1.88703464534178E-02
 cg2d: Sum(rhs),rhsMax =   2.66550795324783E-10  1.88706020342598E-02
 cg2d: Sum(rhs),rhsMax =   2.66577662721978E-10  1.88708667875517E-02
 cg2d: Sum(rhs),rhsMax =   2.66608318755246E-10  1.88711403922613E-02
 cg2d: Sum(rhs),rhsMax =   2.66647440239076E-10  1.88714225087802E-02
 cg2d: Sum(rhs),rhsMax =   2.66687061323267E-10  1.88717127770717E-02
 cg2d: Sum(rhs),rhsMax =   2.66718286345835E-10  1.88720108171309E-02
 cg2d: Sum(rhs),rhsMax =   2.66768274137519E-10  1.88723162369411E-02
 cg2d: Sum(rhs),rhsMax =   2.66797015036069E-10  1.88726286431594E-02
 cg2d: Sum(rhs),rhsMax =   2.66836316931141E-10  1.88729475930884E-02
 cg2d: Sum(rhs),rhsMax =   2.66885472055556E-10  1.88732726316823E-02
 cg2d: Sum(rhs),rhsMax =   2.66916655444760E-10  1.88736033305414E-02
 cg2d: Sum(rhs),rhsMax =   2.66948838034686E-10  1.88739392380524E-02
 cg2d: Sum(rhs),rhsMax =   2.66988750552422E-10  1.88742798843376E-02
 Computing Diagnostic #    26 "THETA   " (list#  1) Parms "SMR     MR      ", Count=     144
 Computing Diagnostic #    27 "SALT    " (list#  1) Parms "SMR     MR      ", Count=     144
 Computing Diagnostic #    30 "UVEL    " (list#  1) Parms "UUR     MR      ", Count=     144
             Vector  Mate for "UVEL    " :  Diagnostic #     31 "VVEL    " exists
 Computing Diagnostic #    32 "WVEL    " (list#  1) Parms "WM      LR      ", Count=     144
 Computing Diagnostic #    31 "VVEL    " (list#  1) Parms "VVR     MR      ", Count=     144
             Vector  Mate for "VVEL    " :  Diagnostic #     30 "UVEL    " exists
 Computing Diagnostic #   197 "BRGfwFlx" (list#  2) Parms "SM      MR      ", Count=     144
 Computing Diagnostic #   198 "BRGhtFlx" (list#  2) Parms "SM      MR      ", Count=     144
 Computing Diagnostic #   199 "BRGmltRt" (list#  2) Parms "SM      MR      ", Count=     144
 Computing Diagnostic #   201 "BRG_TauX" (list#  2) Parms "UU      MR      ", Count=    1728
 Computing Diagnostic #   202 "BRG_TauY" (list#  2) Parms "VV      MR      ", Count=    1728
 Computing Diagnostic #   203 "BRGhFacC" (list#  2) Parms "SM      MR      ", Count=    1728
 cg2d: Sum(rhs),rhsMax =   2.67010483168129E-10  1.88746247956736E-02
 cg2d: Sum(rhs),rhsMax =   2.67038516299500E-10  1.88749734989968E-02
 cg2d: Sum(rhs),rhsMax =   2.67071267878727E-10  1.88753255203867E-02
 cg2d: Sum(rhs),rhsMax =   2.67108890561474E-10  1.88756803798651E-02
 cg2d: Sum(rhs),rhsMax =   2.67133801190589E-10  1.88760376014762E-02
 cg2d: Sum(rhs),rhsMax =   2.67174241064261E-10  1.88763967098109E-02
 cg2d: Sum(rhs),rhsMax =   2.67210975568588E-10  1.88767572363947E-02
 cg2d: Sum(rhs),rhsMax =   2.67251540342350E-10  1.88771187173478E-02
 cg2d: Sum(rhs),rhsMax =   2.67288802202614E-10  1.88774806951485E-02
 cg2d: Sum(rhs),rhsMax =   2.67321859093173E-10  1.88778427268655E-02
 cg2d: Sum(rhs),rhsMax =   2.67355332317365E-10  1.88782043075549E-02
 cg2d: Sum(rhs),rhsMax =   2.67392899488961E-10  1.88785652351455E-02
 cg2d: Sum(rhs),rhsMax =   2.67438141077214E-10  1.88789248956492E-02
 cg2d: Sum(rhs),rhsMax =   2.67482661020502E-10  1.88792829273220E-02
 cg2d: Sum(rhs),rhsMax =   2.67513025620225E-10  1.88796389827768E-02
 cg2d: Sum(rhs),rhsMax =   2.67556019006854E-10  1.88799927059016E-02
 cg2d: Sum(rhs),rhsMax =   2.67596916847523E-10  1.88803437527049E-02
 cg2d: Sum(rhs),rhsMax =   2.67636315887110E-10  1.88806918021967E-02
 cg2d: Sum(rhs),rhsMax =   2.67672384257622E-10  1.88810365542475E-02
 cg2d: Sum(rhs),rhsMax =   2.67698876954547E-10  1.88813777276551E-02
 cg2d: Sum(rhs),rhsMax =   2.67726951719283E-10  1.88817150685668E-02
 cg2d: Sum(rhs),rhsMax =   2.67759953098690E-10  1.88820483586600E-02
 cg2d: Sum(rhs),rhsMax =   2.67806748999178E-10  1.88823774235992E-02
 cg2d: Sum(rhs),rhsMax =   2.67833741296464E-10  1.88827019728456E-02
 cg2d: Sum(rhs),rhsMax =   2.67869532111220E-10  1.88830218843455E-02
 cg2d: Sum(rhs),rhsMax =   2.67909361362229E-10  1.88833370258084E-02
 cg2d: Sum(rhs),rhsMax =   2.67947330989671E-10  1.88836472806472E-02
 cg2d: Sum(rhs),rhsMax =   2.67984759383388E-10  1.88839525661286E-02
 cg2d: Sum(rhs),rhsMax =   2.68043462425815E-10  1.88842528306375E-02
 cg2d: Sum(rhs),rhsMax =   2.68095531885670E-10  1.88845480516216E-02
 cg2d: Sum(rhs),rhsMax =   2.68128297342685E-10  1.88848382253335E-02
 cg2d: Sum(rhs),rhsMax =   2.68165031847012E-10  1.88851233666592E-02
 cg2d: Sum(rhs),rhsMax =   2.68201266750978E-10  1.88854035159782E-02
 cg2d: Sum(rhs),rhsMax =   2.68232963618331E-10  1.88856787370819E-02
 cg2d: Sum(rhs),rhsMax =   2.68260941238552E-10  1.88859491163875E-02
 cg2d: Sum(rhs),rhsMax =   2.68310137996330E-10  1.88862147640686E-02
 cg2d: Sum(rhs),rhsMax =   2.68339794828876E-10  1.88864758141802E-02
 cg2d: Sum(rhs),rhsMax =   2.68373809286793E-10  1.88867324231354E-02
 cg2d: Sum(rhs),rhsMax =   2.68404437564485E-10  1.88869847689434E-02
 cg2d: Sum(rhs),rhsMax =   2.68449332208043E-10  1.88872330515907E-02
 cg2d: Sum(rhs),rhsMax =   2.68477337583839E-10  1.88874774905098E-02
 cg2d: Sum(rhs),rhsMax =   2.68517777457511E-10  1.88877183247523E-02
 cg2d: Sum(rhs),rhsMax =   2.68569028127885E-10  1.88879558075647E-02
 cg2d: Sum(rhs),rhsMax =   2.68605790387788E-10  1.88881902123787E-02
 cg2d: Sum(rhs),rhsMax =   2.68638028488866E-10  1.88884218213458E-02
 cg2d: Sum(rhs),rhsMax =   2.68684241522266E-10  1.88886509328910E-02
 cg2d: Sum(rhs),rhsMax =   2.68716812690251E-10  1.88888778535776E-02
 cg2d: Sum(rhs),rhsMax =   2.68760777522026E-10  1.88891029018243E-02
 cg2d: Sum(rhs),rhsMax =   2.68798427960348E-10  1.88893264038208E-02
 cg2d: Sum(rhs),rhsMax =   2.68836591876820E-10  1.88895486871839E-02
 cg2d: Sum(rhs),rhsMax =   2.68861377605845E-10  1.88897700909481E-02
 cg2d: Sum(rhs),rhsMax =   2.68899805200284E-10  1.88899909543779E-02
 cg2d: Sum(rhs),rhsMax =   2.68934527425380E-10  1.88902116182773E-02
 cg2d: Sum(rhs),rhsMax =   2.68973954220542E-10  1.88904324251695E-02
 cg2d: Sum(rhs),rhsMax =   2.69008412767668E-10  1.88906537124269E-02
 cg2d: Sum(rhs),rhsMax =   2.69058719748472E-10  1.88908758209858E-02
 cg2d: Sum(rhs),rhsMax =   2.69101893546342E-10  1.88910990825020E-02
 cg2d: Sum(rhs),rhsMax =   2.69149688647552E-10  1.88913238225700E-02
 cg2d: Sum(rhs),rhsMax =   2.69182690026959E-10  1.88915503579270E-02
 cg2d: Sum(rhs),rhsMax =   2.69217523274357E-10  1.88917790007392E-02
 cg2d: Sum(rhs),rhsMax =   2.69253869200625E-10  1.88920100446096E-02
 cg2d: Sum(rhs),rhsMax =   2.69292366184004E-10  1.88922437736157E-02
 cg2d: Sum(rhs),rhsMax =   2.69339758829368E-10  1.88924804615352E-02
 cg2d: Sum(rhs),rhsMax =   2.69371080996450E-10  1.88927203605793E-02
 cg2d: Sum(rhs),rhsMax =   2.69425384780142E-10  1.88929637085395E-02
 cg2d: Sum(rhs),rhsMax =   2.69470987190878E-10  1.88932107246578E-02
 cg2d: Sum(rhs),rhsMax =   2.69507721695206E-10  1.88934616075483E-02
 cg2d: Sum(rhs),rhsMax =   2.69546149289646E-10  1.88937165377206E-02
 cg2d: Sum(rhs),rhsMax =   2.69599703672796E-10  1.88939756723071E-02
 cg2d: Sum(rhs),rhsMax =   2.69635161420645E-10  1.88942391474255E-02
 cg2d: Sum(rhs),rhsMax =   2.69674504949080E-10  1.88945070759395E-02
 cg2d: Sum(rhs),rhsMax =   2.69702593591603E-10  1.88947795495907E-02
 cg2d: Sum(rhs),rhsMax =   2.69755287551909E-10  1.88950566321591E-02
 cg2d: Sum(rhs),rhsMax =   2.69789274254251E-10  1.88953383626599E-02
 cg2d: Sum(rhs),rhsMax =   2.69817251874471E-10  1.88956247588876E-02
 cg2d: Sum(rhs),rhsMax =   2.69848282608010E-10  1.88959158124019E-02
 cg2d: Sum(rhs),rhsMax =   2.69891151094548E-10  1.88962114848855E-02
 cg2d: Sum(rhs),rhsMax =   2.69926747620275E-10  1.88965117172076E-02
 cg2d: Sum(rhs),rhsMax =   2.69975222733088E-10  1.88968164235550E-02
 cg2d: Sum(rhs),rhsMax =   2.70012345815474E-10  1.88971254917359E-02
 cg2d: Sum(rhs),rhsMax =   2.70048525208288E-10  1.88974387871740E-02
 cg2d: Sum(rhs),rhsMax =   2.70086800147062E-10  1.88977561468029E-02
 cg2d: Sum(rhs),rhsMax =   2.70120259493467E-10  1.88980773870823E-02
 cg2d: Sum(rhs),rhsMax =   2.70153496795267E-10  1.88984023009736E-02
 cg2d: Sum(rhs),rhsMax =   2.70206051977695E-10  1.88987306597129E-02
 cg2d: Sum(rhs),rhsMax =   2.70235583910150E-10  1.88990622067113E-02
 cg2d: Sum(rhs),rhsMax =   2.70277952796327E-10  1.88993966682680E-02
 cg2d: Sum(rhs),rhsMax =   2.70323180506793E-10  1.88997337552244E-02
 cg2d: Sum(rhs),rhsMax =   2.70356334541866E-10  1.89000731584644E-02
 cg2d: Sum(rhs),rhsMax =   2.70386213419016E-10  1.89004145459647E-02
 cg2d: Sum(rhs),rhsMax =   2.70428929249888E-10  1.89007575738344E-02
 cg2d: Sum(rhs),rhsMax =   2.70456379514172E-10  1.89011018834837E-02
 cg2d: Sum(rhs),rhsMax =   2.70495681409244E-10  1.89014471009660E-02
 cg2d: Sum(rhs),rhsMax =   2.70541436475646E-10  1.89017928440778E-02
 cg2d: Sum(rhs),rhsMax =   2.70581959616045E-10  1.89021387182323E-02
 cg2d: Sum(rhs),rhsMax =   2.70614669561908E-10  1.89024843211302E-02
 cg2d: Sum(rhs),rhsMax =   2.70652847356168E-10  1.89028292314789E-02
 cg2d: Sum(rhs),rhsMax =   2.70691219439456E-10  1.89031730233693E-02
 cg2d: Sum(rhs),rhsMax =   2.70737335328342E-10  1.89035190347123E-02
 cg2d: Sum(rhs),rhsMax =   2.70775887822872E-10  1.89038702186934E-02
 cg2d: Sum(rhs),rhsMax =   2.70808320212979E-10  1.89042191288678E-02
 cg2d: Sum(rhs),rhsMax =   2.70835770477262E-10  1.89045649851419E-02
 cg2d: Sum(rhs),rhsMax =   2.70874989105607E-10  1.89049074214079E-02
 cg2d: Sum(rhs),rhsMax =   2.70916289402123E-10  1.89052459832084E-02
 cg2d: Sum(rhs),rhsMax =   2.70963029791460E-10  1.89055802113433E-02
 cg2d: Sum(rhs),rhsMax =   2.70989300443780E-10  1.89059096562309E-02
 cg2d: Sum(rhs),rhsMax =   2.71032571386165E-10  1.89062338854282E-02
 cg2d: Sum(rhs),rhsMax =   2.71074648838798E-10  1.89065524775177E-02
 cg2d: Sum(rhs),rhsMax =   2.71104624860463E-10  1.89068650290009E-02
 cg2d: Sum(rhs),rhsMax =   2.71149366848356E-10  1.89071711546719E-02
 cg2d: Sum(rhs),rhsMax =   2.71188932421396E-10  1.89074704859369E-02
 cg2d: Sum(rhs),rhsMax =   2.71231676007844E-10  1.89077626789030E-02
 cg2d: Sum(rhs),rhsMax =   2.71277014740612E-10  1.89080474087822E-02
 cg2d: Sum(rhs),rhsMax =   2.71315941935413E-10  1.89083243742753E-02
 cg2d: Sum(rhs),rhsMax =   2.71355382608363E-10  1.89085933021170E-02
 cg2d: Sum(rhs),rhsMax =   2.71394545725556E-10  1.89088539400344E-02
 cg2d: Sum(rhs),rhsMax =   2.71433847620628E-10  1.89091060658873E-02
 cg2d: Sum(rhs),rhsMax =   2.71482031299897E-10  1.89093494840635E-02
 cg2d: Sum(rhs),rhsMax =   2.71506941929012E-10  1.89095840294155E-02
 cg2d: Sum(rhs),rhsMax =   2.71558761588686E-10  1.89098095604790E-02
 cg2d: Sum(rhs),rhsMax =   2.71589500888680E-10  1.89100259706001E-02
 cg2d: Sum(rhs),rhsMax =   2.71627373371608E-10  1.89102331800814E-02
 cg2d: Sum(rhs),rhsMax =   2.71664413187267E-10  1.89104311405423E-02
 cg2d: Sum(rhs),rhsMax =   2.71687922159813E-10  1.89106198333113E-02
 cg2d: Sum(rhs),rhsMax =   2.71729957979083E-10  1.89107992697616E-02
 cg2d: Sum(rhs),rhsMax =   2.71769731718940E-10  1.89109694932169E-02
 cg2d: Sum(rhs),rhsMax =   2.71812503060964E-10  1.89111305737396E-02
 cg2d: Sum(rhs),rhsMax =   2.71848529798113E-10  1.89112826124260E-02
 cg2d: Sum(rhs),rhsMax =   2.71894715075938E-10  1.89114257403741E-02
 cg2d: Sum(rhs),rhsMax =   2.71935141071822E-10  1.89115601176188E-02
 cg2d: Sum(rhs),rhsMax =   2.71964478715248E-10  1.89116859273947E-02
 cg2d: Sum(rhs),rhsMax =   2.71989222810909E-10  1.89118033859110E-02
 cg2d: Sum(rhs),rhsMax =   2.72034519910314E-10  1.89119127331320E-02
 cg2d: Sum(rhs),rhsMax =   2.72061415063085E-10  1.89120142337622E-02
 cg2d: Sum(rhs),rhsMax =   2.72114969446235E-10  1.89121081773765E-02
 cg2d: Sum(rhs),rhsMax =   2.72152952951465E-10  1.89121948734081E-02
 cg2d: Sum(rhs),rhsMax =   2.72191935657418E-10  1.89122746589130E-02
 cg2d: Sum(rhs),rhsMax =   2.72227393405267E-10  1.89123478860409E-02
 cg2d: Sum(rhs),rhsMax =   2.72265848755282E-10  1.89124149291107E-02
 cg2d: Sum(rhs),rhsMax =   2.72305705761866E-10  1.89124761892554E-02
 cg2d: Sum(rhs),rhsMax =   2.72348504859465E-10  1.89125320644143E-02
 cg2d: Sum(rhs),rhsMax =   2.72395786482527E-10  1.89125829606390E-02
 cg2d: Sum(rhs),rhsMax =   2.72435490833445E-10  1.89126293080857E-02
 cg2d: Sum(rhs),rhsMax =   2.72470643269962E-10  1.89126715564116E-02
 Computing Diagnostic #    26 "THETA   " (list#  1) Parms "SMR     MR      ", Count=     144
 Computing Diagnostic #    27 "SALT    " (list#  1) Parms "SMR     MR      ", Count=     144
 Computing Diagnostic #    30 "UVEL    " (list#  1) Parms "UUR     MR      ", Count=     144
             Vector  Mate for "UVEL    " :  Diagnostic #     31 "VVEL    " exists
 Computing Diagnostic #    32 "WVEL    " (list#  1) Parms "WM      LR      ", Count=     144
 Computing Diagnostic #    31 "VVEL    " (list#  1) Parms "VVR     MR      ", Count=     144
             Vector  Mate for "VVEL    " :  Diagnostic #     30 "UVEL    " exists
 Computing Diagnostic #   197 "BRGfwFlx" (list#  2) Parms "SM      MR      ", Count=     144
 Computing Diagnostic #   198 "BRGhtFlx" (list#  2) Parms "SM      MR      ", Count=     144
 Computing Diagnostic #   199 "BRGmltRt" (list#  2) Parms "SM      MR      ", Count=     144
 Computing Diagnostic #   201 "BRG_TauX" (list#  2) Parms "UU      MR      ", Count=    1728
 Computing Diagnostic #   202 "BRG_TauY" (list#  2) Parms "VV      MR      ", Count=    1728
 Computing Diagnostic #   203 "BRGhFacC" (list#  2) Parms "SM      MR      ", Count=    1728
 cg2d: Sum(rhs),rhsMax =   2.72504199760881E-10  1.89127101685283E-02
 cg2d: Sum(rhs),rhsMax =   2.72547581725568E-10  1.89127456014178E-02
 cg2d: Sum(rhs),rhsMax =   2.72585745642040E-10  1.89127783243502E-02
 cg2d: Sum(rhs),rhsMax =   2.72625755304290E-10  1.89128088067825E-02
 cg2d: Sum(rhs),rhsMax =   2.72672856516110E-10  1.89128375224421E-02
 cg2d: Sum(rhs),rhsMax =   2.72709493875922E-10  1.89128649449745E-02
 cg2d: Sum(rhs),rhsMax =   2.72757164077042E-10  1.89128915474478E-02
 cg2d: Sum(rhs),rhsMax =   2.72800657064032E-10  1.89129178030324E-02
 cg2d: Sum(rhs),rhsMax =   2.72852893057340E-10  1.89129441762878E-02
 cg2d: Sum(rhs),rhsMax =   2.72897107689296E-10  1.89129711320307E-02
 cg2d: Sum(rhs),rhsMax =   2.72943126433667E-10  1.89129991231616E-02
 cg2d: Sum(rhs),rhsMax =   2.72982067506256E-10  1.89130285933157E-02
 cg2d: Sum(rhs),rhsMax =   2.73026240504848E-10  1.89130599817855E-02
 cg2d: Sum(rhs),rhsMax =   2.73064168498927E-10  1.89130937120968E-02
 cg2d: Sum(rhs),rhsMax =   2.73122136018600E-10  1.89131301997035E-02
 cg2d: Sum(rhs),rhsMax =   2.73164227349021E-10  1.89131698441852E-02
 cg2d: Sum(rhs),rhsMax =   2.73198463851543E-10  1.89132130322521E-02
 cg2d: Sum(rhs),rhsMax =   2.73233602410272E-10  1.89132601362406E-02
 cg2d: Sum(rhs),rhsMax =   2.73269198935999E-10  1.89133115086906E-02
 cg2d: Sum(rhs),rhsMax =   2.73310693521545E-10  1.89133674868039E-02
 cg2d: Sum(rhs),rhsMax =   2.73338615630614E-10  1.89134283865678E-02
 cg2d: Sum(rhs),rhsMax =   2.73386577265278E-10  1.89134945090109E-02
 cg2d: Sum(rhs),rhsMax =   2.73427669394977E-10  1.89135661342802E-02
 cg2d: Sum(rhs),rhsMax =   2.73476949419482E-10  1.89136435205653E-02
 cg2d: Sum(rhs),rhsMax =   2.73514821902410E-10  1.89137269098227E-02
 cg2d: Sum(rhs),rhsMax =   2.73550737617256E-10  1.89138165133118E-02
 cg2d: Sum(rhs),rhsMax =   2.73584530030568E-10  1.89139125283807E-02
 cg2d: Sum(rhs),rhsMax =   2.73636474590333E-10  1.89140151307076E-02
 cg2d: Sum(rhs),rhsMax =   2.73676650786037E-10  1.89141244734662E-02
 cg2d: Sum(rhs),rhsMax =   2.73711830978129E-10  1.89142406873495E-02
 cg2d: Sum(rhs),rhsMax =   2.73751757373653E-10  1.89144481787966E-02
 cg2d: Sum(rhs),rhsMax =   2.73791822547054E-10  1.89146652625467E-02
 cg2d: Sum(rhs),rhsMax =   2.73824074525919E-10  1.89148872690190E-02
 cg2d: Sum(rhs),rhsMax =   2.73867650779636E-10  1.89151150662678E-02
 cg2d: Sum(rhs),rhsMax =   2.73908312697912E-10  1.89153484127337E-02
 cg2d: Sum(rhs),rhsMax =   2.73937886263731E-10  1.89155868999123E-02
 cg2d: Sum(rhs),rhsMax =   2.73990705124127E-10  1.89158301200645E-02
 cg2d: Sum(rhs),rhsMax =   2.74017281087779E-10  1.89160776588260E-02
 cg2d: Sum(rhs),rhsMax =   2.74055958482400E-10  1.89163290987167E-02
 cg2d: Sum(rhs),rhsMax =   2.74099284935936E-10  1.89165840193062E-02
 cg2d: Sum(rhs),rhsMax =   2.74130718125321E-10  1.89168419959362E-02
 cg2d: Sum(rhs),rhsMax =   2.74177278103416E-10  1.89171026066303E-02
 cg2d: Sum(rhs),rhsMax =   2.74207101469415E-10  1.89173654308925E-02
 cg2d: Sum(rhs),rhsMax =   2.74247805021055E-10  1.89176300524296E-02
 cg2d: Sum(rhs),rhsMax =   2.74298778135673E-10  1.89178960599360E-02
 cg2d: Sum(rhs),rhsMax =   2.74330808069934E-10  1.89181630503103E-02
 cg2d: Sum(rhs),rhsMax =   2.74360895113901E-10  1.89184306267467E-02
 cg2d: Sum(rhs),rhsMax =   2.74392342181073E-10  1.89186984035880E-02
 cg2d: Sum(rhs),rhsMax =   2.74432990221563E-10  1.89189659986378E-02
 cg2d: Sum(rhs),rhsMax =   2.74461092741873E-10  1.89192330820173E-02
 cg2d: Sum(rhs),rhsMax =   2.74507250264122E-10  1.89194992948251E-02
 cg2d: Sum(rhs),rhsMax =   2.74541001044071E-10  1.89197642955640E-02
 cg2d: Sum(rhs),rhsMax =   2.74582245829436E-10  1.89200277760187E-02
 cg2d: Sum(rhs),rhsMax =   2.74622616314169E-10  1.89202894433383E-02
 cg2d: Sum(rhs),rhsMax =   2.74660572063823E-10  1.89205490193208E-02
 cg2d: Sum(rhs),rhsMax =   2.74693948143501E-10  1.89208062440966E-02
 cg2d: Sum(rhs),rhsMax =   2.74731432048370E-10  1.89210608772602E-02
 cg2d: Sum(rhs),rhsMax =   2.74759229257349E-10  1.89213126974173E-02
 cg2d: Sum(rhs),rhsMax =   2.74806954969620E-10  1.89215615061668E-02
 cg2d: Sum(rhs),rhsMax =   2.74850753267941E-10  1.89218071202381E-02
 cg2d: Sum(rhs),rhsMax =   2.74889430662562E-10  1.89220493815513E-02
 cg2d: Sum(rhs),rhsMax =   2.74926761911765E-10  1.89222881502410E-02
 cg2d: Sum(rhs),rhsMax =   2.74970254898754E-10  1.89225233046931E-02
 cg2d: Sum(rhs),rhsMax =   2.75001590943624E-10  1.89227547474567E-02
 cg2d: Sum(rhs),rhsMax =   2.75035563768178E-10  1.89229823931209E-02
 cg2d: Sum(rhs),rhsMax =   2.75063291588218E-10  1.89232061832940E-02
 cg2d: Sum(rhs),rhsMax =   2.75111933234484E-10  1.89234260703317E-02
 cg2d: Sum(rhs),rhsMax =   2.75141576189242E-10  1.89236420292724E-02
 cg2d: Sum(rhs),rhsMax =   2.75177811093208E-10  1.89238540495283E-02
 cg2d: Sum(rhs),rhsMax =   2.75213379863359E-10  1.89240621388111E-02
 cg2d: Sum(rhs),rhsMax =   2.75247866166062E-10  1.89242663170634E-02
 cg2d: Sum(rhs),rhsMax =   2.75291650586595E-10  1.89244666212871E-02
 cg2d: Sum(rhs),rhsMax =   2.75334241517378E-10  1.89246630986443E-02
 cg2d: Sum(rhs),rhsMax =   2.75373585045813E-10  1.89248558120988E-02
 cg2d: Sum(rhs),rhsMax =   2.75411221606348E-10  1.89250448346661E-02
 cg2d: Sum(rhs),rhsMax =   2.75445347086567E-10  1.89252302460330E-02
 cg2d: Sum(rhs),rhsMax =   2.75494141388499E-10  1.89254121415390E-02
 cg2d: Sum(rhs),rhsMax =   2.75531375493188E-10  1.89255906183568E-02
 cg2d: Sum(rhs),rhsMax =   2.75576284014534E-10  1.89257657820946E-02
 cg2d: Sum(rhs),rhsMax =   2.75605996358230E-10  1.89259377453786E-02
 cg2d: Sum(rhs),rhsMax =   2.75637762614522E-10  1.89261066244204E-02
 cg2d: Sum(rhs),rhsMax =   2.75684031159074E-10  1.89262725385670E-02
 cg2d: Sum(rhs),rhsMax =   2.75720474229857E-10  1.89264356088214E-02
 cg2d: Sum(rhs),rhsMax =   2.75758638146328E-10  1.89265959581597E-02
 cg2d: Sum(rhs),rhsMax =   2.75806794070022E-10  1.89267536233568E-02
 cg2d: Sum(rhs),rhsMax =   2.75857031661886E-10  1.89269089169665E-02
 cg2d: Sum(rhs),rhsMax =   2.75887937495334E-10  1.89270618819837E-02
 cg2d: Sum(rhs),rhsMax =   2.75927586335101E-10  1.89272125745355E-02
 cg2d: Sum(rhs),rhsMax =   2.75966749452294E-10  1.89273611311622E-02
 cg2d: Sum(rhs),rhsMax =   2.76010075905830E-10  1.89275076703343E-02
 cg2d: Sum(rhs),rhsMax =   2.76040551527856E-10  1.89276523042494E-02
 cg2d: Sum(rhs),rhsMax =   2.76072845140085E-10  1.89277951336936E-02
 cg2d: Sum(rhs),rhsMax =   2.76104680785316E-10  1.89279362426841E-02
 cg2d: Sum(rhs),rhsMax =   2.76157804957045E-10  1.89280757157226E-02
 cg2d: Sum(rhs),rhsMax =   2.76195927240153E-10  1.89282136313320E-02
 cg2d: Sum(rhs),rhsMax =   2.76243139474275E-10  1.89283500635945E-02
 cg2d: Sum(rhs),rhsMax =   2.76281386657473E-10  1.89284850780566E-02
 cg2d: Sum(rhs),rhsMax =   2.76328834813988E-10  1.89286187337886E-02
 cg2d: Sum(rhs),rhsMax =   2.76369191420933E-10  1.89287510784639E-02
 cg2d: Sum(rhs),rhsMax =   2.76403316901153E-10  1.89288821544868E-02
 cg2d: Sum(rhs),rhsMax =   2.76448960945253E-10  1.89290119939995E-02
 cg2d: Sum(rhs),rhsMax =   2.76481865180145E-10  1.89291406261641E-02
 cg2d: Sum(rhs),rhsMax =   2.76522776898602E-10  1.89292680744895E-02
 cg2d: Sum(rhs),rhsMax =   2.76553308031779E-10  1.89293943414418E-02
 cg2d: Sum(rhs),rhsMax =   2.76606001992086E-10  1.89295194316091E-02
 cg2d: Sum(rhs),rhsMax =   2.76639641749732E-10  1.89296433442382E-02
 cg2d: Sum(rhs),rhsMax =   2.76676292987332E-10  1.89297660761575E-02
 cg2d: Sum(rhs),rhsMax =   2.76709460900193E-10  1.89298876120781E-02
 cg2d: Sum(rhs),rhsMax =   2.76753384098605E-10  1.89300079345111E-02
 cg2d: Sum(rhs),rhsMax =   2.76785983022165E-10  1.89301270197942E-02
 cg2d: Sum(rhs),rhsMax =   2.76817374578187E-10  1.89302448473681E-02
 cg2d: Sum(rhs),rhsMax =   2.76855843805990E-10  1.89303553863984E-02
 cg2d: Sum(rhs),rhsMax =   2.76909092877808E-10  1.89304646502244E-02
 cg2d: Sum(rhs),rhsMax =   2.76944078780872E-10  1.89305727015317E-02
 cg2d: Sum(rhs),rhsMax =   2.76984213343212E-10  1.89306794998645E-02
 cg2d: Sum(rhs),rhsMax =   2.77029191253497E-10  1.89307851277881E-02
 cg2d: Sum(rhs),rhsMax =   2.77066342091459E-10  1.89308896593056E-02
 cg2d: Sum(rhs),rhsMax =   2.77110029367478E-10  1.89309930380868E-02
 cg2d: Sum(rhs),rhsMax =   2.77155742800517E-10  1.89310952939509E-02
 cg2d: Sum(rhs),rhsMax =   2.77209671883938E-10  1.89311964736038E-02
 cg2d: Sum(rhs),rhsMax =   2.77257758418692E-10  1.89312966106982E-02
 cg2d: Sum(rhs),rhsMax =   2.77295811312861E-10  1.89313957321080E-02
 cg2d: Sum(rhs),rhsMax =   2.77345438282062E-10  1.89314938657408E-02
 cg2d: Sum(rhs),rhsMax =   2.77390055369864E-10  1.89315910488398E-02
 cg2d: Sum(rhs),rhsMax =   2.77421141614553E-10  1.89316873143586E-02
 cg2d: Sum(rhs),rhsMax =   2.77453129915450E-10  1.89317827079415E-02
 cg2d: Sum(rhs),rhsMax =   2.77489212163751E-10  1.89318772767548E-02
 cg2d: Sum(rhs),rhsMax =   2.77539338733312E-10  1.89319710725443E-02
 cg2d: Sum(rhs),rhsMax =   2.77573589113622E-10  1.89320641444584E-02
 cg2d: Sum(rhs),rhsMax =   2.77617873134517E-10  1.89321565488234E-02
 cg2d: Sum(rhs),rhsMax =   2.77655301528235E-10  1.89322483552017E-02
 cg2d: Sum(rhs),rhsMax =   2.77691022954052E-10  1.89323396320626E-02
 cg2d: Sum(rhs),rhsMax =   2.77738970710928E-10  1.89324304558093E-02
 cg2d: Sum(rhs),rhsMax =   2.77778258728212E-10  1.89325209008474E-02
 cg2d: Sum(rhs),rhsMax =   2.77812814419853E-10  1.89326110533825E-02
 cg2d: Sum(rhs),rhsMax =   2.77853767771674E-10  1.89327010001941E-02
 cg2d: Sum(rhs),rhsMax =   2.77887046706837E-10  1.89327908362958E-02
 cg2d: Sum(rhs),rhsMax =   2.77937534098882E-10  1.89328806637956E-02
 cg2d: Sum(rhs),rhsMax =   2.77988410068986E-10  1.89329705861604E-02
 cg2d: Sum(rhs),rhsMax =   2.78037023959676E-10  1.89330315580283E-02
 cg2d: Sum(rhs),rhsMax =   2.78064821168655E-10  1.89330823825596E-02
 cg2d: Sum(rhs),rhsMax =   2.78101860984314E-10  1.89331338540058E-02
 cg2d: Sum(rhs),rhsMax =   2.78144396403945E-10  1.89331860996190E-02
 cg2d: Sum(rhs),rhsMax =   2.78183934221410E-10  1.89332393329138E-02
 Computing Diagnostic #    26 "THETA   " (list#  1) Parms "SMR     MR      ", Count=     144
 Computing Diagnostic #    27 "SALT    " (list#  1) Parms "SMR     MR      ", Count=     144
 Computing Diagnostic #    30 "UVEL    " (list#  1) Parms "UUR     MR      ", Count=     144
             Vector  Mate for "UVEL    " :  Diagnostic #     31 "VVEL    " exists
 Computing Diagnostic #    32 "WVEL    " (list#  1) Parms "WM      LR      ", Count=     144
 Computing Diagnostic #    31 "VVEL    " (list#  1) Parms "VVR     MR      ", Count=     144
             Vector  Mate for "VVEL    " :  Diagnostic #     30 "UVEL    " exists
 Computing Diagnostic #   197 "BRGfwFlx" (list#  2) Parms "SM      MR      ", Count=     144
 Computing Diagnostic #   198 "BRGhtFlx" (list#  2) Parms "SM      MR      ", Count=     144
 Computing Diagnostic #   199 "BRGmltRt" (list#  2) Parms "SM      MR      ", Count=     144
 Computing Diagnostic #   201 "BRG_TauX" (list#  2) Parms "UU      MR      ", Count=    1728
 Computing Diagnostic #   202 "BRG_TauY" (list#  2) Parms "VV      MR      ", Count=    1728
 Computing Diagnostic #   203 "BRGhFacC" (list#  2) Parms "SM      MR      ", Count=    1728
 cg2d: Sum(rhs),rhsMax =   2.78236017559053E-10  1.89332938073222E-02
 cg2d: Sum(rhs),rhsMax =   2.78279108090196E-10  1.89333497361929E-02
 cg2d: Sum(rhs),rhsMax =   2.78319325919263E-10  1.89334073215695E-02
 cg2d: Sum(rhs),rhsMax =   2.78370229644942E-10  1.89334667766636E-02
 cg2d: Sum(rhs),rhsMax =   2.78401315889631E-10  1.89335283209147E-02
 cg2d: Sum(rhs),rhsMax =   2.78461101399508E-10  1.89335921671383E-02
 cg2d: Sum(rhs),rhsMax =   2.78502498840538E-10  1.89336585209040E-02
 cg2d: Sum(rhs),rhsMax =   2.78547032661614E-10  1.89337275849536E-02
 cg2d: Sum(rhs),rhsMax =   2.78588388469281E-10  1.89337995545662E-02
 cg2d: Sum(rhs),rhsMax =   2.78631256955819E-10  1.89338746227063E-02
 cg2d: Sum(rhs),rhsMax =   2.78676040577075E-10  1.89339529724216E-02
 cg2d: Sum(rhs),rhsMax =   2.78720796442755E-10  1.89340347790123E-02
 cg2d: Sum(rhs),rhsMax =   2.78745790338597E-10  1.89341202132680E-02
 cg2d: Sum(rhs),rhsMax =   2.78788866991952E-10  1.89342094304871E-02
 cg2d: Sum(rhs),rhsMax =   2.78841186251988E-10  1.89343025793788E-02
 cg2d: Sum(rhs),rhsMax =   2.78879391801823E-10  1.89343997968703E-02
 cg2d: Sum(rhs),rhsMax =   2.78918652063531E-10  1.89345012062990E-02
 cg2d: Sum(rhs),rhsMax =   2.78961617694584E-10  1.89346069041194E-02
 cg2d: Sum(rhs),rhsMax =   2.79004055969700E-10  1.89347170221152E-02
 cg2d: Sum(rhs),rhsMax =   2.79044828910280E-10  1.89348316515896E-02
 cg2d: Sum(rhs),rhsMax =   2.79076400877543E-10  1.89349508434569E-02
 cg2d: Sum(rhs),rhsMax =   2.79124084956450E-10  1.89350746497961E-02
 cg2d: Sum(rhs),rhsMax =   2.79165024430483E-10  1.89352031200996E-02
 cg2d: Sum(rhs),rhsMax =   2.79209752540588E-10  1.89353362875340E-02
 cg2d: Sum(rhs),rhsMax =   2.79261960778321E-10  1.89354741702230E-02
 cg2d: Sum(rhs),rhsMax =   2.79305509276462E-10  1.89356167657276E-02
 cg2d: Sum(rhs),rhsMax =   2.79350903520381E-10  1.89357640615636E-02
 cg2d: Sum(rhs),rhsMax =   2.79385667378840E-10  1.89359160295983E-02
 cg2d: Sum(rhs),rhsMax =   2.79428147287319E-10  1.89360726078806E-02
 cg2d: Sum(rhs),rhsMax =   2.79466658148486E-10  1.89362337406526E-02
 cg2d: Sum(rhs),rhsMax =   2.79507111899946E-10  1.89363993676613E-02
 cg2d: Sum(rhs),rhsMax =   2.79546427672805E-10  1.89365694054261E-02
 cg2d: Sum(rhs),rhsMax =   2.79585146700789E-10  1.89367437483475E-02
 cg2d: Sum(rhs),rhsMax =   2.79632705879607E-10  1.89369222747753E-02
 cg2d: Sum(rhs),rhsMax =   2.79666831359826E-10  1.89371048614597E-02
 cg2d: Sum(rhs),rhsMax =   2.79708603501128E-10  1.89372913724846E-02
 cg2d: Sum(rhs),rhsMax =   2.79732584318459E-10  1.89374816596932E-02
 cg2d: Sum(rhs),rhsMax =   2.79780240641792E-10  1.89376755605148E-02
 cg2d: Sum(rhs),rhsMax =   2.79818307413748E-10  1.89378729139943E-02
 cg2d: Sum(rhs),rhsMax =   2.79856818274915E-10  1.89380735479790E-02
 cg2d: Sum(rhs),rhsMax =   2.79895828736443E-10  1.89382772440831E-02
 cg2d: Sum(rhs),rhsMax =   2.79928247248762E-10  1.89384838264287E-02
 cg2d: Sum(rhs),rhsMax =   2.79973350059137E-10  1.89386931432738E-02
 cg2d: Sum(rhs),rhsMax =   2.80017301013125E-10  1.89389050042258E-02
 cg2d: Sum(rhs),rhsMax =   2.80055076351537E-10  1.89391192014479E-02
 cg2d: Sum(rhs),rhsMax =   2.80082693149275E-10  1.89393355246078E-02
 cg2d: Sum(rhs),rhsMax =   2.80117179451977E-10  1.89395537652458E-02
 cg2d: Sum(rhs),rhsMax =   2.80150888598563E-10  1.89397737177596E-02
 cg2d: Sum(rhs),rhsMax =   2.80182113621130E-10  1.89399951818062E-02
 cg2d: Sum(rhs),rhsMax =   2.80215115000537E-10  1.89402179608360E-02
 cg2d: Sum(rhs),rhsMax =   2.80270084918044E-10  1.89404418621427E-02
 cg2d: Sum(rhs),rhsMax =   2.80308221078940E-10  1.89406666951088E-02
 cg2d: Sum(rhs),rhsMax =   2.80346801329046E-10  1.89408922838605E-02
 cg2d: Sum(rhs),rhsMax =   2.80395109908405E-10  1.89411184519233E-02
 cg2d: Sum(rhs),rhsMax =   2.80439935163024E-10  1.89413450366936E-02
 cg2d: Sum(rhs),rhsMax =   2.80488077208929E-10  1.89415718817886E-02
 cg2d: Sum(rhs),rhsMax =   2.80524076190503E-10  1.89417988389573E-02
 cg2d: Sum(rhs),rhsMax =   2.80558326570812E-10  1.89420257730946E-02
 cg2d: Sum(rhs),rhsMax =   2.80592771240151E-10  1.89422525599102E-02
 cg2d: Sum(rhs),rhsMax =   2.80631726190528E-10  1.89424790866190E-02
 cg2d: Sum(rhs),rhsMax =   2.80670639507541E-10  1.89427052554893E-02
 cg2d: Sum(rhs),rhsMax =   2.80704653965458E-10  1.89429309807329E-02
 cg2d: Sum(rhs),rhsMax =   2.80759138160391E-10  1.89431561914856E-02
 cg2d: Sum(rhs),rhsMax =   2.80804088315101E-10  1.89433808339564E-02
 cg2d: Sum(rhs),rhsMax =   2.80845222078163E-10  1.89436048676728E-02
 cg2d: Sum(rhs),rhsMax =   2.80882844760910E-10  1.89438282693916E-02
 cg2d: Sum(rhs),rhsMax =   2.80931722329569E-10  1.89440510324665E-02
 cg2d: Sum(rhs),rhsMax =   2.80966777621572E-10  1.89442731668146E-02
 cg2d: Sum(rhs),rhsMax =   2.81014336800389E-10  1.89444946949970E-02
 cg2d: Sum(rhs),rhsMax =   2.81052695005890E-10  1.89447156612860E-02
 cg2d: Sum(rhs),rhsMax =   2.81100309695859E-10  1.89449361203429E-02
 cg2d: Sum(rhs),rhsMax =   2.81139847513323E-10  1.89451561476273E-02
 cg2d: Sum(rhs),rhsMax =   2.81180037586815E-10  1.89453758282814E-02
 cg2d: Sum(rhs),rhsMax =   2.81224904474797E-10  1.89455952681330E-02
 cg2d: Sum(rhs),rhsMax =   2.81258974443865E-10  1.89458145826692E-02
 cg2d: Sum(rhs),rhsMax =   2.81294279536048E-10  1.89460339052045E-02
 cg2d: Sum(rhs),rhsMax =   2.81332068752249E-10  1.89462533772591E-02
 cg2d: Sum(rhs),rhsMax =   2.81366083210166E-10  1.89464731508258E-02
 cg2d: Sum(rhs),rhsMax =   2.81411866032144E-10  1.89466933939764E-02
 cg2d: Sum(rhs),rhsMax =   2.81448628292047E-10  1.89469142856835E-02
 cg2d: Sum(rhs),rhsMax =   2.81500656118538E-10  1.89471360150074E-02
 cg2d: Sum(rhs),rhsMax =   2.81535433854785E-10  1.89473587698635E-02
 cg2d: Sum(rhs),rhsMax =   2.81574680238705E-10  1.89475827559375E-02
 cg2d: Sum(rhs),rhsMax =   2.81625514575445E-10  1.89478081806045E-02
 cg2d: Sum(rhs),rhsMax =   2.81668285917469E-10  1.89480352526703E-02
 cg2d: Sum(rhs),rhsMax =   2.81701398319179E-10  1.89482641868849E-02
 cg2d: Sum(rhs),rhsMax =   2.81737980167840E-10  1.89484951983692E-02
 cg2d: Sum(rhs),rhsMax =   2.81775838772980E-10  1.89487285035525E-02
 cg2d: Sum(rhs),rhsMax =   2.81808687496721E-10  1.89489643167776E-02
 cg2d: Sum(rhs),rhsMax =   2.81840509264164E-10  1.89492028509949E-02
 cg2d: Sum(rhs),rhsMax =   2.81881532004924E-10  1.89494443126166E-02
 cg2d: Sum(rhs),rhsMax =   2.81915657485143E-10  1.89496889044393E-02
 cg2d: Sum(rhs),rhsMax =   2.81960330084097E-10  1.89499368209239E-02
 cg2d: Sum(rhs),rhsMax =   2.81994677608921E-10  1.89501882491359E-02
 cg2d: Sum(rhs),rhsMax =   2.82033854603903E-10  1.89504433644421E-02
 cg2d: Sum(rhs),rhsMax =   2.82064524514958E-10  1.89507023321600E-02
 cg2d: Sum(rhs),rhsMax =   2.82115678040817E-10  1.89509653030412E-02
 cg2d: Sum(rhs),rhsMax =   2.82145778962573E-10  1.89512324138041E-02
 cg2d: Sum(rhs),rhsMax =   2.82192755274302E-10  1.89515037855804E-02
 cg2d: Sum(rhs),rhsMax =   2.82231737980254E-10  1.89517795224069E-02
 cg2d: Sum(rhs),rhsMax =   2.82266224282957E-10  1.89520597109450E-02
 cg2d: Sum(rhs),rhsMax =   2.82301307330535E-10  1.89523444150560E-02
 cg2d: Sum(rhs),rhsMax =   2.82352433100819E-10  1.89526336800244E-02
 cg2d: Sum(rhs),rhsMax =   2.82376164117970E-10  1.89529275374139E-02
 cg2d: Sum(rhs),rhsMax =   2.82413828434080E-10  1.89532259432926E-02
 cg2d: Sum(rhs),rhsMax =   2.82453699318452E-10  1.89535288703939E-02
 cg2d: Sum(rhs),rhsMax =   2.82504644677495E-10  1.89538363379919E-02
 cg2d: Sum(rhs),rhsMax =   2.82538048512748E-10  1.89541482852335E-02
 cg2d: Sum(rhs),rhsMax =   2.82579709631747E-10  1.89544645961105E-02
 cg2d: Sum(rhs),rhsMax =   2.82614875946052E-10  1.89547851289718E-02
 cg2d: Sum(rhs),rhsMax =   2.82652748428980E-10  1.89551097291864E-02
 cg2d: Sum(rhs),rhsMax =   2.82684889385543E-10  1.89554382193040E-02
 cg2d: Sum(rhs),rhsMax =   2.82725856615151E-10  1.89557703955496E-02
 cg2d: Sum(rhs),rhsMax =   2.82761383751939E-10  1.89561060281050E-02
 cg2d: Sum(rhs),rhsMax =   2.82795162287464E-10  1.89564448594161E-02
 cg2d: Sum(rhs),rhsMax =   2.82828399589263E-10  1.89567866117711E-02
 cg2d: Sum(rhs),rhsMax =   2.82860984635036E-10  1.89571309766379E-02
 cg2d: Sum(rhs),rhsMax =   2.82903575565818E-10  1.89574776227703E-02
 cg2d: Sum(rhs),rhsMax =   2.82937229201252E-10  1.89578261925692E-02
 cg2d: Sum(rhs),rhsMax =   2.82972853482555E-10  1.89581763052745E-02
 cg2d: Sum(rhs),rhsMax =   2.83022966174329E-10  1.89585275566504E-02
 cg2d: Sum(rhs),rhsMax =   2.83068721240731E-10  1.89588795175092E-02
 cg2d: Sum(rhs),rhsMax =   2.83113393839685E-10  1.89592313523804E-02
 cg2d: Sum(rhs),rhsMax =   2.83151266322612E-10  1.89595823157602E-02
 cg2d: Sum(rhs),rhsMax =   2.83197632011678E-10  1.89599316572416E-02
 cg2d: Sum(rhs),rhsMax =   2.83239584564221E-10  1.89602781357473E-02
 cg2d: Sum(rhs),rhsMax =   2.83277734602905E-10  1.89606209260865E-02
 cg2d: Sum(rhs),rhsMax =   2.83319062654996E-10  1.89609590925922E-02
 cg2d: Sum(rhs),rhsMax =   2.83353299157518E-10  1.89612914773263E-02
 cg2d: Sum(rhs),rhsMax =   2.83392892486134E-10  1.89615944029236E-02
 cg2d: Sum(rhs),rhsMax =   2.83438106318812E-10  1.89618900802035E-02
 cg2d: Sum(rhs),rhsMax =   2.83465556583096E-10  1.89621779824864E-02
 cg2d: Sum(rhs),rhsMax =   2.83510742660198E-10  1.89624573675875E-02
 cg2d: Sum(rhs),rhsMax =   2.83550419255540E-10  1.89627277239809E-02
 cg2d: Sum(rhs),rhsMax =   2.83589735028400E-10  1.89629885240985E-02
 cg2d: Sum(rhs),rhsMax =   2.83622195174082E-10  1.89632392799508E-02
 cg2d: Sum(rhs),rhsMax =   2.83654738586492E-10  1.89634795494455E-02
 cg2d: Sum(rhs),rhsMax =   2.83701659387070E-10  1.89637089347519E-02
 cg2d: Sum(rhs),rhsMax =   2.83738157969005E-10  1.89639270854137E-02
 cg2d: Sum(rhs),rhsMax =   2.83775530851571E-10  1.89641337041701E-02
 cg2d: Sum(rhs),rhsMax =   2.83819079349712E-10  1.89643285389535E-02
 cg2d: Sum(rhs),rhsMax =   2.83860712713135E-10  1.89645113922221E-02
 cg2d: Sum(rhs),rhsMax =   2.83899778685814E-10  1.89646821171653E-02
 cg2d: Sum(rhs),rhsMax =   2.83950363222374E-10  1.89648406195248E-02
 Computing Diagnostic #    26 "THETA   " (list#  1) Parms "SMR     MR      ", Count=     144
 Computing Diagnostic #    27 "SALT    " (list#  1) Parms "SMR     MR      ", Count=     144
 Computing Diagnostic #    30 "UVEL    " (list#  1) Parms "UUR     MR      ", Count=     144
             Vector  Mate for "UVEL    " :  Diagnostic #     31 "VVEL    " exists
 Computing Diagnostic #    32 "WVEL    " (list#  1) Parms "WM      LR      ", Count=     144
 Computing Diagnostic #    31 "VVEL    " (list#  1) Parms "VVR     MR      ", Count=     144
             Vector  Mate for "VVEL    " :  Diagnostic #     30 "UVEL    " exists
 Computing Diagnostic #   197 "BRGfwFlx" (list#  2) Parms "SM      MR      ", Count=     144
 Computing Diagnostic #   198 "BRGhtFlx" (list#  2) Parms "SM      MR      ", Count=     144
 Computing Diagnostic #   199 "BRGmltRt" (list#  2) Parms "SM      MR      ", Count=     144
 Computing Diagnostic #   201 "BRG_TauX" (list#  2) Parms "UU      MR      ", Count=    1728
 Computing Diagnostic #   202 "BRG_TauY" (list#  2) Parms "VV      MR      ", Count=    1728
 Computing Diagnostic #   203 "BRGhFacC" (list#  2) Parms "SM      MR      ", Count=    1728
 cg2d: Sum(rhs),rhsMax =   2.83988832450177E-10  1.89649868597557E-02
 cg2d: Sum(rhs),rhsMax =   2.84026399621773E-10  1.89651208502121E-02
 cg2d: Sum(rhs),rhsMax =   2.84075735157430E-10  1.89652426534598E-02
 cg2d: Sum(rhs),rhsMax =   2.84127360528075E-10  1.89653523853289E-02
 cg2d: Sum(rhs),rhsMax =   2.84172754771994E-10  1.89654502129178E-02
 cg2d: Sum(rhs),rhsMax =   2.84214735080113E-10  1.89655363494661E-02
 cg2d: Sum(rhs),rhsMax =   2.84261100769179E-10  1.89656110561241E-02
 cg2d: Sum(rhs),rhsMax =   2.84296169938969E-10  1.89656746362746E-02
 cg2d: Sum(rhs),rhsMax =   2.84337456357697E-10  1.89657274380001E-02
 cg2d: Sum(rhs),rhsMax =   2.84372012049339E-10  1.89657698482616E-02
 cg2d: Sum(rhs),rhsMax =   2.84421763918630E-10  1.89658023611723E-02
 cg2d: Sum(rhs),rhsMax =   2.84454987342642E-10  1.89658254761152E-02
 cg2d: Sum(rhs),rhsMax =   2.84492096547240E-10  1.89658396641751E-02
 cg2d: Sum(rhs),rhsMax =   2.84547413409442E-10  1.89658455378996E-02
 cg2d: Sum(rhs),rhsMax =   2.84597179156520E-10  1.89658436142698E-02
 cg2d: Sum(rhs),rhsMax =   2.84636966774166E-10  1.89658344532017E-02
 cg2d: Sum(rhs),rhsMax =   2.84669565697726E-10  1.89658186342276E-02
 cg2d: Sum(rhs),rhsMax =   2.84708007169954E-10  1.89657968000958E-02
 cg2d: Sum(rhs),rhsMax =   2.84752138535183E-10  1.89657695526355E-02
 cg2d: Sum(rhs),rhsMax =   2.84806053740816E-10  1.89657375067878E-02
 cg2d: Sum(rhs),rhsMax =   2.84859608123966E-10  1.89657012909543E-02
 cg2d: Sum(rhs),rhsMax =   2.84893650337459E-10  1.89656615306417E-02
 cg2d: Sum(rhs),rhsMax =   2.84931092608964E-10  1.89656188452239E-02
 cg2d: Sum(rhs),rhsMax =   2.84984619236539E-10  1.89655738476369E-02
 cg2d: Sum(rhs),rhsMax =   2.85010279266196E-10  1.89655271366690E-02
 cg2d: Sum(rhs),rhsMax =   2.85039603031834E-10  1.89654792961434E-02
 cg2d: Sum(rhs),rhsMax =   2.85070744787674E-10  1.89654308987807E-02
 cg2d: Sum(rhs),rhsMax =   2.85135318134344E-10  1.89653824279653E-02
 cg2d: Sum(rhs),rhsMax =   2.85173856751086E-10  1.89653344859892E-02
 cg2d: Sum(rhs),rhsMax =   2.85214657447241E-10  1.89652875818207E-02
 cg2d: Sum(rhs),rhsMax =   2.85259885157707E-10  1.89652421685606E-02
 cg2d: Sum(rhs),rhsMax =   2.85308360270520E-10  1.89651986807346E-02
 cg2d: Sum(rhs),rhsMax =   2.85346204997872E-10  1.89651575258618E-02
 cg2d: Sum(rhs),rhsMax =   2.85385423626217E-10  1.89651190758029E-02
 cg2d: Sum(rhs),rhsMax =   2.85433052193973E-10  1.89650837013134E-02
 cg2d: Sum(rhs),rhsMax =   2.85496015717257E-10  1.89650517157667E-02
 cg2d: Sum(rhs),rhsMax =   2.85530515897747E-10  1.89650233745864E-02
 cg2d: Sum(rhs),rhsMax =   2.85582252290695E-10  1.89649989070356E-02
 cg2d: Sum(rhs),rhsMax =   2.85621845619310E-10  1.89649784922665E-02
 cg2d: Sum(rhs),rhsMax =   2.85665047172756E-10  1.89649622745291E-02
 cg2d: Sum(rhs),rhsMax =   2.85709081393470E-10  1.89649503579459E-02
 cg2d: Sum(rhs),rhsMax =   2.85758791629398E-10  1.89649427878813E-02
 cg2d: Sum(rhs),rhsMax =   2.85791904031107E-10  1.89649395892922E-02
 cg2d: Sum(rhs),rhsMax =   2.85834120261619E-10  1.89649407572451E-02
 cg2d: Sum(rhs),rhsMax =   2.85863888116467E-10  1.89649462378886E-02
 cg2d: Sum(rhs),rhsMax =   2.85912529762733E-10  1.89649559272686E-02
 cg2d: Sum(rhs),rhsMax =   2.85960241597216E-10  1.89649696896709E-02
 cg2d: Sum(rhs),rhsMax =   2.85999501858925E-10  1.89649873591155E-02
 cg2d: Sum(rhs),rhsMax =   2.86047519004740E-10  1.89650087345426E-02
 cg2d: Sum(rhs),rhsMax =   2.86085266587577E-10  1.89650335852429E-02
 cg2d: Sum(rhs),rhsMax =   2.86139570371269E-10  1.89650616504581E-02
 cg2d: Sum(rhs),rhsMax =   2.86189585918528E-10  1.89650926415524E-02
 cg2d: Sum(rhs),rhsMax =   2.86228457602178E-10  1.89651262454899E-02
 cg2d: Sum(rhs),rhsMax =   2.86267468063706E-10  1.89651621271144E-02
 cg2d: Sum(rhs),rhsMax =   2.86295626095168E-10  1.89651999321230E-02
 cg2d: Sum(rhs),rhsMax =   2.86340062771728E-10  1.89652392857675E-02
 cg2d: Sum(rhs),rhsMax =   2.86396448223591E-10  1.89652798005613E-02
 cg2d: Sum(rhs),rhsMax =   2.86430587581599E-10  1.89653210768289E-02
 cg2d: Sum(rhs),rhsMax =   2.86483822775629E-10  1.89653627034830E-02
 cg2d: Sum(rhs),rhsMax =   2.86536461224784E-10  1.89654042674373E-02
 cg2d: Sum(rhs),rhsMax =   2.86574902697012E-10  1.89654453467575E-02
 cg2d: Sum(rhs),rhsMax =   2.86613940914116E-10  1.89654855239225E-02
 cg2d: Sum(rhs),rhsMax =   2.86658211057222E-10  1.89655243788553E-02
 cg2d: Sum(rhs),rhsMax =   2.86707893537574E-10  1.89655614969539E-02
 cg2d: Sum(rhs),rhsMax =   2.86745030497748E-10  1.89655964367190E-02
 cg2d: Sum(rhs),rhsMax =   2.86782930736251E-10  1.89656288040281E-02
 cg2d: Sum(rhs),rhsMax =   2.86836249197009E-10  1.89656582193476E-02
 cg2d: Sum(rhs),rhsMax =   2.86877507860162E-10  1.89656843153446E-02
 cg2d: Sum(rhs),rhsMax =   2.86915838310087E-10  1.89657067452245E-02
 cg2d: Sum(rhs),rhsMax =   2.86956736150756E-10  1.89657251821788E-02
 cg2d: Sum(rhs),rhsMax =   2.87000381793412E-10  1.89657393206446E-02
 cg2d: Sum(rhs),rhsMax =   2.87042126179138E-10  1.89657488798191E-02
 cg2d: Sum(rhs),rhsMax =   2.87080248462246E-10  1.89657536059669E-02
 cg2d: Sum(rhs),rhsMax =   2.87126988851583E-10  1.89657532705028E-02
 cg2d: Sum(rhs),rhsMax =   2.87176768476449E-10  1.89657476742976E-02
 cg2d: Sum(rhs),rhsMax =   2.87219831252017E-10  1.89657366506517E-02
 cg2d: Sum(rhs),rhsMax =   2.87265947140902E-10  1.89657200626127E-02
 cg2d: Sum(rhs),rhsMax =   2.87310480961978E-10  1.89656978054913E-02
 cg2d: Sum(rhs),rhsMax =   2.87336293647300E-10  1.89656698064959E-02
 cg2d: Sum(rhs),rhsMax =   2.87387447173160E-10  1.89656360297214E-02
 cg2d: Sum(rhs),rhsMax =   2.87428247869315E-10  1.89655964683355E-02
 cg2d: Sum(rhs),rhsMax =   2.87474224980322E-10  1.89655511515580E-02
 cg2d: Sum(rhs),rhsMax =   2.87499163365013E-10  1.89655001420733E-02
 cg2d: Sum(rhs),rhsMax =   2.87536577880942E-10  1.89654435360569E-02
 cg2d: Sum(rhs),rhsMax =   2.87577628377278E-10  1.89653814622242E-02
 cg2d: Sum(rhs),rhsMax =   2.87620344208150E-10  1.89653140833125E-02
 cg2d: Sum(rhs),rhsMax =   2.87655135822185E-10  1.89652415905345E-02
 cg2d: Sum(rhs),rhsMax =   2.87694285061590E-10  1.89651642084948E-02
 cg2d: Sum(rhs),rhsMax =   2.87729423620320E-10  1.89650821903730E-02
 cg2d: Sum(rhs),rhsMax =   2.87774706841937E-10  1.89649958181113E-02
 cg2d: Sum(rhs),rhsMax =   2.87823653799535E-10  1.89649054005609E-02
 cg2d: Sum(rhs),rhsMax =   2.87865772885532E-10  1.89648112706504E-02
 cg2d: Sum(rhs),rhsMax =   2.87917148455996E-10  1.89647137886350E-02
 cg2d: Sum(rhs),rhsMax =   2.87970064460907E-10  1.89646133299971E-02
 cg2d: Sum(rhs),rhsMax =   2.88017845684330E-10  1.89645102982193E-02
 cg2d: Sum(rhs),rhsMax =   2.88076493215605E-10  1.89644051125683E-02
 cg2d: Sum(rhs),rhsMax =   2.88126508762865E-10  1.89642982089968E-02
 cg2d: Sum(rhs),rhsMax =   2.88175719398431E-10  1.89641900333114E-02
 cg2d: Sum(rhs),rhsMax =   2.88216006616437E-10  1.89640810472722E-02
 cg2d: Sum(rhs),rhsMax =   2.88260304515120E-10  1.89639717211045E-02
 cg2d: Sum(rhs),rhsMax =   2.88304768947256E-10  1.89638625379257E-02
 cg2d: Sum(rhs),rhsMax =   2.88346888033253E-10  1.89637539698942E-02
 cg2d: Sum(rhs),rhsMax =   2.88396917458300E-10  1.89636465089064E-02
 cg2d: Sum(rhs),rhsMax =   2.88441548423890E-10  1.89635406496902E-02
 cg2d: Sum(rhs),rhsMax =   2.88485652033543E-10  1.89634368753430E-02
 cg2d: Sum(rhs),rhsMax =   2.88532420178456E-10  1.89633356670129E-02
 cg2d: Sum(rhs),rhsMax =   2.88590387698129E-10  1.89632374839347E-02
 cg2d: Sum(rhs),rhsMax =   2.88625567890222E-10  1.89631428108088E-02
 cg2d: Sum(rhs),rhsMax =   2.88673765447278E-10  1.89630521411729E-02
 cg2d: Sum(rhs),rhsMax =   2.88717577623387E-10  1.89629659177993E-02
 cg2d: Sum(rhs),rhsMax =   2.88754298249927E-10  1.89628846035243E-02
 cg2d: Sum(rhs),rhsMax =   2.88795792835472E-10  1.89628086407198E-02
 cg2d: Sum(rhs),rhsMax =   2.88851234597765E-10  1.89627384439068E-02
 cg2d: Sum(rhs),rhsMax =   2.88891757738163E-10  1.89626744134822E-02
 cg2d: Sum(rhs),rhsMax =   2.88930115943664E-10  1.89626169245372E-02
 cg2d: Sum(rhs),rhsMax =   2.88974885687132E-10  1.89625663320063E-02
 cg2d: Sum(rhs),rhsMax =   2.89018461940849E-10  1.89625229650836E-02
 cg2d: Sum(rhs),rhsMax =   2.89062648817229E-10  1.89624871247095E-02
 cg2d: Sum(rhs),rhsMax =   2.89098939232346E-10  1.89624590852018E-02
 cg2d: Sum(rhs),rhsMax =   2.89134785558254E-10  1.89624390918547E-02
 cg2d: Sum(rhs),rhsMax =   2.89186063984204E-10  1.89624273630653E-02
 cg2d: Sum(rhs),rhsMax =   2.89230361882886E-10  1.89624240842179E-02
 cg2d: Sum(rhs),rhsMax =   2.89284970977910E-10  1.89624294127415E-02
 cg2d: Sum(rhs),rhsMax =   2.89319776469732E-10  1.89624434724453E-02
 cg2d: Sum(rhs),rhsMax =   2.89360577165887E-10  1.89624663565586E-02
 cg2d: Sum(rhs),rhsMax =   2.89404417097572E-10  1.89624981286244E-02
 cg2d: Sum(rhs),rhsMax =   2.89446425161266E-10  1.89625388213665E-02
 cg2d: Sum(rhs),rhsMax =   2.89482757209747E-10  1.89625884332222E-02
 cg2d: Sum(rhs),rhsMax =   2.89526347341251E-10  1.89626469361050E-02
 cg2d: Sum(rhs),rhsMax =   2.89565357802779E-10  1.89627142714631E-02
 cg2d: Sum(rhs),rhsMax =   2.89591572943948E-10  1.89627903467859E-02
 cg2d: Sum(rhs),rhsMax =   2.89624227378660E-10  1.89628750432804E-02
 cg2d: Sum(rhs),rhsMax =   2.89664320307637E-10  1.89629682076401E-02
 cg2d: Sum(rhs),rhsMax =   2.89697751898466E-10  1.89630696728936E-02
 cg2d: Sum(rhs),rhsMax =   2.89735763159271E-10  1.89631792495021E-02
 cg2d: Sum(rhs),rhsMax =   2.89782128848337E-10  1.89632967174009E-02
 cg2d: Sum(rhs),rhsMax =   2.89829896193972E-10  1.89634218311126E-02
 cg2d: Sum(rhs),rhsMax =   2.89870946690307E-10  1.89635543254034E-02
 cg2d: Sum(rhs),rhsMax =   2.89918658524790E-10  1.89636939185939E-02
 cg2d: Sum(rhs),rhsMax =   2.89961860078236E-10  1.89638403082008E-02
 cg2d: Sum(rhs),rhsMax =   2.89991822222113E-10  1.89639931796729E-02
 cg2d: Sum(rhs),rhsMax =   2.90031790251000E-10  1.89641521991970E-02
 cg2d: Sum(rhs),rhsMax =   2.90059254393071E-10  1.89643170227149E-02
 cg2d: Sum(rhs),rhsMax =   2.90098806088324E-10  1.89644872963766E-02
 Computing Diagnostic #    26 "THETA   " (list#  1) Parms "SMR     MR      ", Count=     144
 Computing Diagnostic #    27 "SALT    " (list#  1) Parms "SMR     MR      ", Count=     144
 Computing Diagnostic #    30 "UVEL    " (list#  1) Parms "UUR     MR      ", Count=     144
             Vector  Mate for "UVEL    " :  Diagnostic #     31 "VVEL    " exists
 Computing Diagnostic #    32 "WVEL    " (list#  1) Parms "WM      LR      ", Count=     144
 Computing Diagnostic #    31 "VVEL    " (list#  1) Parms "VVR     MR      ", Count=     144
             Vector  Mate for "VVEL    " :  Diagnostic #     30 "UVEL    " exists
 Computing Diagnostic #   197 "BRGfwFlx" (list#  2) Parms "SM      MR      ", Count=     144
 Computing Diagnostic #   198 "BRGhtFlx" (list#  2) Parms "SM      MR      ", Count=     144
 Computing Diagnostic #   199 "BRGmltRt" (list#  2) Parms "SM      MR      ", Count=     144
 Computing Diagnostic #   201 "BRG_TauX" (list#  2) Parms "UU      MR      ", Count=    1728
 Computing Diagnostic #   202 "BRG_TauY" (list#  2) Parms "VV      MR      ", Count=    1728
 Computing Diagnostic #   203 "BRGhFacC" (list#  2) Parms "SM      MR      ", Count=    1728
 cg2d: Sum(rhs),rhsMax =   2.90145643622175E-10  1.89646626548998E-02
 cg2d: Sum(rhs),rhsMax =   2.90177354367316E-10  1.89648427264834E-02
 cg2d: Sum(rhs),rhsMax =   2.90225274368616E-10  1.89650271381055E-02
 cg2d: Sum(rhs),rhsMax =   2.90265478319895E-10  1.89652155077496E-02
 cg2d: Sum(rhs),rhsMax =   2.90299145833117E-10  1.89654074569501E-02
 cg2d: Sum(rhs),rhsMax =   2.90343415976224E-10  1.89656026035245E-02
 cg2d: Sum(rhs),rhsMax =   2.90388935120234E-10  1.89658005697081E-02
 cg2d: Sum(rhs),rhsMax =   2.90434606919909E-10  1.89660009814689E-02
 cg2d: Sum(rhs),rhsMax =   2.90472645936291E-10  1.89662034698555E-02
 cg2d: Sum(rhs),rhsMax =   2.90518137324725E-10  1.89664076723694E-02
 cg2d: Sum(rhs),rhsMax =   2.90554857951264E-10  1.89666132356174E-02
 cg2d: Sum(rhs),rhsMax =   2.90586485429678E-10  1.89668198156509E-02
 cg2d: Sum(rhs),rhsMax =   2.90624579957210E-10  1.89670270831352E-02
 cg2d: Sum(rhs),rhsMax =   2.90663548785375E-10  1.89672347171553E-02
 cg2d: Sum(rhs),rhsMax =   2.90704280092591E-10  1.89674424134397E-02
 cg2d: Sum(rhs),rhsMax =   2.90752810716555E-10  1.89676498835325E-02
 cg2d: Sum(rhs),rhsMax =   2.90788268464404E-10  1.89678568524585E-02
 cg2d: Sum(rhs),rhsMax =   2.90824156423675E-10  1.89680630626824E-02
 cg2d: Sum(rhs),rhsMax =   2.90857296580960E-10  1.89682682779941E-02
 cg2d: Sum(rhs),rhsMax =   2.90899471178108E-10  1.89684722770211E-02
 cg2d: Sum(rhs),rhsMax =   2.90938023672638E-10  1.89686748606340E-02
 cg2d: Sum(rhs),rhsMax =   2.90981502781840E-10  1.89688758457809E-02
 cg2d: Sum(rhs),rhsMax =   2.91013727005129E-10  1.89690754283242E-02
 cg2d: Sum(rhs),rhsMax =   2.91058746548778E-10  1.89692756942955E-02
 cg2d: Sum(rhs),rhsMax =   2.91085988646245E-10  1.89694739380578E-02
 cg2d: Sum(rhs),rhsMax =   2.91129731433415E-10  1.89696700099787E-02
 cg2d: Sum(rhs),rhsMax =   2.91158083753906E-10  1.89698638160659E-02
 cg2d: Sum(rhs),rhsMax =   2.91205004554485E-10  1.89700552769834E-02
 cg2d: Sum(rhs),rhsMax =   2.91231622151500E-10  1.89702443302211E-02
 cg2d: Sum(rhs),rhsMax =   2.91255061735107E-10  1.89704309366545E-02
 cg2d: Sum(rhs),rhsMax =   2.91291449294739E-10  1.89706150717604E-02
 cg2d: Sum(rhs),rhsMax =   2.91339924407552E-10  1.89707967381538E-02
 cg2d: Sum(rhs),rhsMax =   2.91376173189306E-10  1.89709759560612E-02
 cg2d: Sum(rhs),rhsMax =   2.91418361664242E-10  1.89711527629773E-02
 cg2d: Sum(rhs),rhsMax =   2.91460564016965E-10  1.89713272165388E-02
 cg2d: Sum(rhs),rhsMax =   2.91496646265266E-10  1.89714993912768E-02
 cg2d: Sum(rhs),rhsMax =   2.91539084540382E-10  1.89716693775254E-02
 cg2d: Sum(rhs),rhsMax =   2.91580176670081E-10  1.89718372850912E-02
 cg2d: Sum(rhs),rhsMax =   2.91620783077207E-10  1.89720032335170E-02
 cg2d: Sum(rhs),rhsMax =   2.91652244022167E-10  1.89721673596844E-02
 cg2d: Sum(rhs),rhsMax =   2.91702204058275E-10  1.89723298140967E-02
 cg2d: Sum(rhs),rhsMax =   2.91738647129058E-10  1.89724907558052E-02
 cg2d: Sum(rhs),rhsMax =   2.91775423266749E-10  1.89726503583897E-02
 cg2d: Sum(rhs),rhsMax =   2.91814031272430E-10  1.89728088040854E-02
 cg2d: Sum(rhs),rhsMax =   2.91840149269085E-10  1.89729662854003E-02
 cg2d: Sum(rhs),rhsMax =   2.91887763959053E-10  1.89731230039885E-02
 cg2d: Sum(rhs),rhsMax =   2.91918808570379E-10  1.89732791349753E-02
 cg2d: Sum(rhs),rhsMax =   2.91957999443149E-10  1.89734349098459E-02
 cg2d: Sum(rhs),rhsMax =   2.92007501512259E-10  1.89735905491944E-02
 cg2d: Sum(rhs),rhsMax =   2.92047858119204E-10  1.89737462602843E-02
 cg2d: Sum(rhs),rhsMax =   2.92081234198882E-10  1.89739022592530E-02
 cg2d: Sum(rhs),rhsMax =   2.92117566247363E-10  1.89740587578419E-02
 cg2d: Sum(rhs),rhsMax =   2.92171342675118E-10  1.89742159654981E-02
 cg2d: Sum(rhs),rhsMax =   2.92208757191048E-10  1.89743741070910E-02
 cg2d: Sum(rhs),rhsMax =   2.92242618993299E-10  1.89745333998070E-02
 cg2d: Sum(rhs),rhsMax =   2.92295299075818E-10  1.89746940499518E-02
 cg2d: Sum(rhs),rhsMax =   2.92326329809356E-10  1.89748562560854E-02
 cg2d: Sum(rhs),rhsMax =   2.92356014397477E-10  1.89750202150584E-02
 cg2d: Sum(rhs),rhsMax =   2.92400825774308E-10  1.89751861192792E-02
 cg2d: Sum(rhs),rhsMax =   2.92453353201161E-10  1.89753541566590E-02
 cg2d: Sum(rhs),rhsMax =   2.92480220598357E-10  1.89755245021605E-02
 cg2d: Sum(rhs),rhsMax =   2.92521923350719E-10  1.89756973259474E-02
 cg2d: Sum(rhs),rhsMax =   2.92548693603401E-10  1.89758728029414E-02
 cg2d: Sum(rhs),rhsMax =   2.92588661632287E-10  1.89760511467744E-02
 cg2d: Sum(rhs),rhsMax =   2.92625104703070E-10  1.89762325018161E-02
 cg2d: Sum(rhs),rhsMax =   2.92665613965681E-10  1.89764169946793E-02
 cg2d: Sum(rhs),rhsMax =   2.92704749327299E-10  1.89766047459674E-02
 cg2d: Sum(rhs),rhsMax =   2.92740623408783E-10  1.89767958636466E-02
 cg2d: Sum(rhs),rhsMax =   2.92777288524171E-10  1.89769904436544E-02
 cg2d: Sum(rhs),rhsMax =   2.92807347812563E-10  1.89771885695488E-02
 cg2d: Sum(rhs),rhsMax =   2.92847815441810E-10  1.89773903185762E-02
 cg2d: Sum(rhs),rhsMax =   2.92893653774939E-10  1.89775957484083E-02
 cg2d: Sum(rhs),rhsMax =   2.92937951673622E-10  1.89778049116877E-02
 cg2d: Sum(rhs),rhsMax =   2.92976060078942E-10  1.89780178451386E-02
 cg2d: Sum(rhs),rhsMax =   2.93018623254149E-10  1.89782345768346E-02
 cg2d: Sum(rhs),rhsMax =   2.93052221378431E-10  1.89784551210364E-02
 cg2d: Sum(rhs),rhsMax =   2.93093688208401E-10  1.89786794832151E-02
 cg2d: Sum(rhs),rhsMax =   2.93133087247988E-10  1.89789076571140E-02
 cg2d: Sum(rhs),rhsMax =   2.93172056076152E-10  1.89791396253650E-02
 cg2d: Sum(rhs),rhsMax =   2.93205390522466E-10  1.89793753605338E-02
 cg2d: Sum(rhs),rhsMax =   2.93241167459435E-10  1.89796148271238E-02
 cg2d: Sum(rhs),rhsMax =   2.93273794138571E-10  1.89798579775552E-02
 cg2d: Sum(rhs),rhsMax =   2.93306517962222E-10  1.89801047565298E-02
 cg2d: Sum(rhs),rhsMax =   2.93332608203301E-10  1.89803550998655E-02
 cg2d: Sum(rhs),rhsMax =   2.93372007242887E-10  1.89806089371796E-02
 cg2d: Sum(rhs),rhsMax =   2.93409768703512E-10  1.89808661867751E-02
 cg2d: Sum(rhs),rhsMax =   2.93444893384454E-10  1.89811267649160E-02
 cg2d: Sum(rhs),rhsMax =   2.93472218748647E-10  1.89813905767134E-02
 cg2d: Sum(rhs),rhsMax =   2.93516197458210E-10  1.89816575229137E-02
 cg2d: Sum(rhs),rhsMax =   2.93548005347866E-10  1.89819274994876E-02
 cg2d: Sum(rhs),rhsMax =   2.93568627740548E-10  1.89822003973529E-02
 cg2d: Sum(rhs),rhsMax =   2.93610802337696E-10  1.89824761017389E-02
 cg2d: Sum(rhs),rhsMax =   2.93637614223741E-10  1.89827544728728E-02
 cg2d: Sum(rhs),rhsMax =   2.93680926799489E-10  1.89830353366459E-02
 cg2d: Sum(rhs),rhsMax =   2.93725072042506E-10  1.89833185677303E-02
 cg2d: Sum(rhs),rhsMax =   2.93769286674461E-10  1.89836046832285E-02
 cg2d: Sum(rhs),rhsMax =   2.93804661155583E-10  1.89838943026242E-02
 cg2d: Sum(rhs),rhsMax =   2.93842769560904E-10  1.89841858844347E-02
 cg2d: Sum(rhs),rhsMax =   2.93878615886811E-10  1.89844792708789E-02
 cg2d: Sum(rhs),rhsMax =   2.93931934347569E-10  1.89847743189608E-02
 cg2d: Sum(rhs),rhsMax =   2.93965657371942E-10  1.89850708742870E-02
 cg2d: Sum(rhs),rhsMax =   2.93997728939566E-10  1.89853688092831E-02
 cg2d: Sum(rhs),rhsMax =   2.94043234205787E-10  1.89856679349462E-02
 cg2d: Sum(rhs),rhsMax =   2.94075944151651E-10  1.89859681227734E-02
 cg2d: Sum(rhs),rhsMax =   2.94108293275031E-10  1.89862692450481E-02
 cg2d: Sum(rhs),rhsMax =   2.94148511104098E-10  1.89865711579781E-02
 cg2d: Sum(rhs),rhsMax =   2.94190366512126E-10  1.89868737212929E-02
 cg2d: Sum(rhs),rhsMax =   2.94230029229681E-10  1.89871768036856E-02
 cg2d: Sum(rhs),rhsMax =   2.94265667388771E-10  1.89874802779551E-02
 cg2d: Sum(rhs),rhsMax =   2.94303095782489E-10  1.89877840224069E-02
 cg2d: Sum(rhs),rhsMax =   2.94336499617742E-10  1.89880879177959E-02
 cg2d: Sum(rhs),rhsMax =   2.94372637377194E-10  1.89883918501532E-02
 cg2d: Sum(rhs),rhsMax =   2.94408109002831E-10  1.89886957129935E-02
 cg2d: Sum(rhs),rhsMax =   2.94446439452756E-10  1.89889993997625E-02
 cg2d: Sum(rhs),rhsMax =   2.94478649798258E-10  1.89893028169634E-02
 cg2d: Sum(rhs),rhsMax =   2.94522406463216E-10  1.89896058668521E-02
 cg2d: Sum(rhs),rhsMax =   2.94552673918425E-10  1.89899084573146E-02
 cg2d: Sum(rhs),rhsMax =   2.94577570669752E-10  1.89902105047454E-02
 cg2d: Sum(rhs),rhsMax =   2.94604618478189E-10  1.89905119321124E-02
 cg2d: Sum(rhs),rhsMax =   2.94651317234162E-10  1.89908126669828E-02
 cg2d: Sum(rhs),rhsMax =   2.94673258016687E-10  1.89911126431211E-02
 cg2d: Sum(rhs),rhsMax =   2.94714280757447E-10  1.89914117933034E-02
 cg2d: Sum(rhs),rhsMax =   2.94751875684618E-10  1.89917100612885E-02
 cg2d: Sum(rhs),rhsMax =   2.94795798883030E-10  1.89920073888703E-02
 cg2d: Sum(rhs),rhsMax =   2.94825955315936E-10  1.89923037263283E-02
 cg2d: Sum(rhs),rhsMax =   2.94860594274304E-10  1.89925990271562E-02
 cg2d: Sum(rhs),rhsMax =   2.94900825981159E-10  1.89928932456779E-02
 cg2d: Sum(rhs),rhsMax =   2.94939531131355E-10  1.89931863406566E-02
 cg2d: Sum(rhs),rhsMax =   2.94974114578572E-10  1.89934782761872E-02
 cg2d: Sum(rhs),rhsMax =   2.95004645711749E-10  1.89937690171926E-02
 cg2d: Sum(rhs),rhsMax =   2.95040367137567E-10  1.89940585305382E-02
 cg2d: Sum(rhs),rhsMax =   2.95088356527806E-10  1.89943467863540E-02
 cg2d: Sum(rhs),rhsMax =   2.95134888750326E-10  1.89946337557634E-02
 cg2d: Sum(rhs),rhsMax =   2.95167237873706E-10  1.89949194116467E-02
 cg2d: Sum(rhs),rhsMax =   2.95211161072118E-10  1.89952037290207E-02
 cg2d: Sum(rhs),rhsMax =   2.95239624414911E-10  1.89954866811129E-02
 cg2d: Sum(rhs),rhsMax =   2.95284352525016E-10  1.89957682439507E-02
 cg2d: Sum(rhs),rhsMax =   2.95306015751784E-10  1.89960483919921E-02
 cg2d: Sum(rhs),rhsMax =   2.95343291489836E-10  1.89963271003621E-02
 cg2d: Sum(rhs),rhsMax =   2.95381594184185E-10  1.89966043442986E-02
 cg2d: Sum(rhs),rhsMax =   2.95423713270182E-10  1.89968800948528E-02
 cg2d: Sum(rhs),rhsMax =   2.95460711452478E-10  1.89971543263841E-02
 cg2d: Sum(rhs),rhsMax =   2.95498986391252E-10  1.89974270072761E-02
 cg2d: Sum(rhs),rhsMax =   2.95542992856390E-10  1.89976981085099E-02
(PID.TID 0000.0001)      cg2d_init_res =   1.41743046095872E-04
(PID.TID 0000.0001)      cg2d_iters(min,last) =      -1      39
(PID.TID 0000.0001)      cg2d_last_res =   9.00129093881680E-14
(PID.TID 0000.0001) // =======================================================
(PID.TID 0000.0001) // Begin MONITOR dynamic field statistics
(PID.TID 0000.0001) // =======================================================
(PID.TID 0000.0001) %MON time_tsnumber                =                  8640
(PID.TID 0000.0001) %MON time_secondsf                =   2.1600000000000E+05
(PID.TID 0000.0001) %MON dynstat_eta_max              =   5.6558159701328E-03
(PID.TID 0000.0001) %MON dynstat_eta_min              =  -2.7287514603053E-03
(PID.TID 0000.0001) %MON dynstat_eta_mean             =  -3.7602336483620E-14
(PID.TID 0000.0001) %MON dynstat_eta_sd               =   2.8469913603443E-03
(PID.TID 0000.0001) %MON dynstat_eta_del2             =   2.4368997977755E-05
(PID.TID 0000.0001) %MON dynstat_uvel_max             =   4.9565575309373E-02
(PID.TID 0000.0001) %MON dynstat_uvel_min             =  -3.0403533641382E-02
(PID.TID 0000.0001) %MON dynstat_uvel_mean            =  -7.6900929779456E-11
(PID.TID 0000.0001) %MON dynstat_uvel_sd              =   5.9037597847873E-03
(PID.TID 0000.0001) %MON dynstat_uvel_del2            =   1.0637186359282E-04
(PID.TID 0000.0001) %MON dynstat_vvel_max             =   1.9721731627917E-02
(PID.TID 0000.0001) %MON dynstat_vvel_min             =  -3.2524711662102E-02
(PID.TID 0000.0001) %MON dynstat_vvel_mean            =  -8.0919745957568E-03
(PID.TID 0000.0001) %MON dynstat_vvel_sd              =   1.1302470169850E-02
(PID.TID 0000.0001) %MON dynstat_vvel_del2            =   9.3701775452925E-05
(PID.TID 0000.0001) %MON dynstat_wvel_max             =   1.3397681489642E-03
(PID.TID 0000.0001) %MON dynstat_wvel_min             =  -1.1294618307823E-03
(PID.TID 0000.0001) %MON dynstat_wvel_mean            =   1.0783424095858E-21
(PID.TID 0000.0001) %MON dynstat_wvel_sd              =   1.2799914773776E-04
(PID.TID 0000.0001) %MON dynstat_wvel_del2            =   6.2373527354455E-06
(PID.TID 0000.0001) %MON dynstat_theta_max            =   2.6931451612903E+00
(PID.TID 0000.0001) %MON dynstat_theta_min            =  -1.9086229228170E-01
(PID.TID 0000.0001) %MON dynstat_theta_mean           =   2.2369077563073E+00
(PID.TID 0000.0001) %MON dynstat_theta_sd             =   4.7854778169051E-01
(PID.TID 0000.0001) %MON dynstat_theta_del2           =   1.4294379136126E-03
(PID.TID 0000.0001) %MON dynstat_salt_max             =   3.4699999999999E+01
(PID.TID 0000.0001) %MON dynstat_salt_min             =   3.3027048578158E+01
(PID.TID 0000.0001) %MON dynstat_salt_mean            =   3.4364818012124E+01
(PID.TID 0000.0001) %MON dynstat_salt_sd              =   3.2120016946903E-01
(PID.TID 0000.0001) %MON dynstat_salt_del2            =   2.0044829850935E-04
(PID.TID 0000.0001) %MON advcfl_uvel_max              =   2.4782787654687E-03
(PID.TID 0000.0001) %MON advcfl_vvel_max              =   1.6262355831051E-03
(PID.TID 0000.0001) %MON advcfl_wvel_max              =   6.8137072026652E-04
(PID.TID 0000.0001) %MON advcfl_W_hf_max              =   1.9543232743196E-03
(PID.TID 0000.0001) %MON pe_b_mean                    =   6.7626509289525E-08
(PID.TID 0000.0001) %MON ke_max                       =   1.1492530504511E-03
(PID.TID 0000.0001) %MON ke_mean                      =   1.0408339665956E-04
(PID.TID 0000.0001) %MON ke_vol                       =   3.2921708585402E+10
(PID.TID 0000.0001) // =======================================================
(PID.TID 0000.0001) // End MONITOR dynamic field statistics
(PID.TID 0000.0001) // =======================================================
(PID.TID 0000.0001) // =======================================================
(PID.TID 0000.0001) // Begin OBCS MONITOR field statistics
(PID.TID 0000.0001) // =======================================================
(PID.TID 0000.0001) %MON obc_E_uVel_max               =   0.0000000000000E+00
(PID.TID 0000.0001) %MON obc_E_uVel_min               =   0.0000000000000E+00
(PID.TID 0000.0001) %MON obc_E_uVel_mean              =   0.0000000000000E+00
(PID.TID 0000.0001) %MON obc_E_uVel_sd                =   0.0000000000000E+00
(PID.TID 0000.0001) %MON obc_E_uVel_Int               =   0.0000000000000E+00
(PID.TID 0000.0001) %MON obc_N_vVel_max               =  -3.6115799844846E-05
(PID.TID 0000.0001) %MON obc_N_vVel_min               =  -3.0000000000000E-02
(PID.TID 0000.0001) %MON obc_N_vVel_mean              =  -1.3225455303334E-02
(PID.TID 0000.0001) %MON obc_N_vVel_sd                =   1.1350864292742E-02
(PID.TID 0000.0001) %MON obc_N_vVel_Int               =  -5.9514548865004E+04
(PID.TID 0000.0001) %MON obc_S_vVel_max               =  -3.6115799844846E-05
(PID.TID 0000.0001) %MON obc_S_vVel_min               =  -3.0000000000000E-02
(PID.TID 0000.0001) %MON obc_S_vVel_mean              =  -1.3225455303334E-02
(PID.TID 0000.0001) %MON obc_S_vVel_sd                =   1.1350864292742E-02
(PID.TID 0000.0001) %MON obc_S_vVel_Int               =  -5.9514548865004E+04
(PID.TID 0000.0001) // =======================================================
(PID.TID 0000.0001) // End OBCS MONITOR field statistics
(PID.TID 0000.0001) // =======================================================
 Computing Diagnostic #    26 "THETA   " (list#  1) Parms "SMR     MR      ", Count=     144
 Computing Diagnostic #    27 "SALT    " (list#  1) Parms "SMR     MR      ", Count=     144
 Computing Diagnostic #    30 "UVEL    " (list#  1) Parms "UUR     MR      ", Count=     144
             Vector  Mate for "UVEL    " :  Diagnostic #     31 "VVEL    " exists
 Computing Diagnostic #    32 "WVEL    " (list#  1) Parms "WM      LR      ", Count=     144
 Computing Diagnostic #    31 "VVEL    " (list#  1) Parms "VVR     MR      ", Count=     144
             Vector  Mate for "VVEL    " :  Diagnostic #     30 "UVEL    " exists
 Computing Diagnostic #   197 "BRGfwFlx" (list#  2) Parms "SM      MR      ", Count=     144
 Computing Diagnostic #   198 "BRGhtFlx" (list#  2) Parms "SM      MR      ", Count=     144
 Computing Diagnostic #   199 "BRGmltRt" (list#  2) Parms "SM      MR      ", Count=     144
 Computing Diagnostic #   201 "BRG_TauX" (list#  2) Parms "UU      MR      ", Count=    1728
 Computing Diagnostic #   202 "BRG_TauY" (list#  2) Parms "VV      MR      ", Count=    1728
 Computing Diagnostic #   203 "BRGhFacC" (list#  2) Parms "SM      MR      ", Count=    1728
 cg2d: Sum(rhs),rhsMax =   2.95571858655030E-10  1.89979675960873E-02
 cg2d: Sum(rhs),rhsMax =   2.95608496014843E-10  1.89982354343803E-02
 cg2d: Sum(rhs),rhsMax =   2.95639263070413E-10  1.89985015868611E-02
 cg2d: Sum(rhs),rhsMax =   2.95680924189412E-10  1.89987660106046E-02
 cg2d: Sum(rhs),rhsMax =   2.95733992849989E-10  1.89990286639011E-02
 cg2d: Sum(rhs),rhsMax =   2.95772378811066E-10  1.89992894995184E-02
 cg2d: Sum(rhs),rhsMax =   2.95804700178870E-10  1.89995484547339E-02
 cg2d: Sum(rhs),rhsMax =   2.95846333542293E-10  1.89998055018570E-02
 cg2d: Sum(rhs),rhsMax =   2.95885385637185E-10  1.90000605824938E-02
 cg2d: Sum(rhs),rhsMax =   2.95932042759794E-10  1.90003136205147E-02
 cg2d: Sum(rhs),rhsMax =   2.95971760988500E-10  1.90005645552931E-02
 cg2d: Sum(rhs),rhsMax =   2.96005400746147E-10  1.90008133261307E-02
 cg2d: Sum(rhs),rhsMax =   2.96029784019325E-10  1.90010598631527E-02
 cg2d: Sum(rhs),rhsMax =   2.96082963702204E-10  1.90013040915307E-02
 cg2d: Sum(rhs),rhsMax =   2.96119059828293E-10  1.90015459297734E-02
 cg2d: Sum(rhs),rhsMax =   2.96167299018713E-10  1.90017852964732E-02
 cg2d: Sum(rhs),rhsMax =   2.96200661220603E-10  1.90020221060752E-02
 cg2d: Sum(rhs),rhsMax =   2.96231997265473E-10  1.90022562701626E-02
 cg2d: Sum(rhs),rhsMax =   2.96272381627993E-10  1.90024876981936E-02
 cg2d: Sum(rhs),rhsMax =   2.96314028869205E-10  1.90027162940340E-02
 cg2d: Sum(rhs),rhsMax =   2.96360325169331E-10  1.90029419610095E-02
 cg2d: Sum(rhs),rhsMax =   2.96403498967202E-10  1.90031645996658E-02
 cg2d: Sum(rhs),rhsMax =   2.96446062142408E-10  1.90033841070082E-02
 cg2d: Sum(rhs),rhsMax =   2.96480534567323E-10  1.90036003584838E-02
 cg2d: Sum(rhs),rhsMax =   2.96513563702305E-10  1.90038132157524E-02
 cg2d: Sum(rhs),rhsMax =   2.96556251777602E-10  1.90040225782424E-02
 cg2d: Sum(rhs),rhsMax =   2.96579608094483E-10  1.90042283394746E-02
 cg2d: Sum(rhs),rhsMax =   2.96615232375785E-10  1.90044303868648E-02
 cg2d: Sum(rhs),rhsMax =   2.96653354658893E-10  1.90046286106633E-02
 cg2d: Sum(rhs),rhsMax =   2.96693739021414E-10  1.90048228990920E-02
 cg2d: Sum(rhs),rhsMax =   2.96730279236712E-10  1.90050131456088E-02
 cg2d: Sum(rhs),rhsMax =   2.96765695351198E-10  1.90051992458222E-02
 cg2d: Sum(rhs),rhsMax =   2.96800084509385E-10  1.90053810818405E-02
 cg2d: Sum(rhs),rhsMax =   2.96842536662290E-10  1.90055585638859E-02
 cg2d: Sum(rhs),rhsMax =   2.96872249005986E-10  1.90057315951434E-02
 cg2d: Sum(rhs),rhsMax =   2.96913452157987E-10  1.90059000861649E-02
 cg2d: Sum(rhs),rhsMax =   2.96945731892428E-10  1.90060639470411E-02
 cg2d: Sum(rhs),rhsMax =   2.96982022307546E-10  1.90062230887030E-02
 cg2d: Sum(rhs),rhsMax =   2.97025237738779E-10  1.90063774290469E-02
 cg2d: Sum(rhs),rhsMax =   2.97075405941705E-10  1.90065268886811E-02
 cg2d: Sum(rhs),rhsMax =   2.97106686475423E-10  1.90066713896800E-02
 cg2d: Sum(rhs),rhsMax =   2.97146376948554E-10  1.90068108650169E-02
 cg2d: Sum(rhs),rhsMax =   2.97191021791932E-10  1.90069451030386E-02
 cg2d: Sum(rhs),rhsMax =   2.97227464862715E-10  1.90070738921566E-02
 cg2d: Sum(rhs),rhsMax =   2.97260716042302E-10  1.90071972865984E-02
 cg2d: Sum(rhs),rhsMax =   2.97315103092721E-10  1.90073152314951E-02
 cg2d: Sum(rhs),rhsMax =   2.97358984657770E-10  1.90074276274370E-02
 cg2d: Sum(rhs),rhsMax =   2.97402782956091E-10  1.90075344067043E-02
 cg2d: Sum(rhs),rhsMax =   2.97445873487234E-10  1.90076355300417E-02
 cg2d: Sum(rhs),rhsMax =   2.97480443056664E-10  1.90077309674063E-02
 cg2d: Sum(rhs),rhsMax =   2.97504423873995E-10  1.90078206995827E-02
 cg2d: Sum(rhs),rhsMax =   2.97541574711957E-10  1.90079047189646E-02
 cg2d: Sum(rhs),rhsMax =   2.97585428521430E-10  1.90079830315084E-02
 cg2d: Sum(rhs),rhsMax =   2.97619734412891E-10  1.90080556534786E-02
 cg2d: Sum(rhs),rhsMax =   2.97673705129675E-10  1.90081226147427E-02
 cg2d: Sum(rhs),rhsMax =   2.97722402287093E-10  1.90081839529895E-02
 cg2d: Sum(rhs),rhsMax =   2.97755584077741E-10  1.90082397153352E-02
 cg2d: Sum(rhs),rhsMax =   2.97794858217237E-10  1.90082899559705E-02
 cg2d: Sum(rhs),rhsMax =   2.97823932182695E-10  1.90083347402857E-02
 cg2d: Sum(rhs),rhsMax =   2.97874350185801E-10  1.90083741340567E-02
 cg2d: Sum(rhs),rhsMax =   2.97936814108724E-10  1.90084082226408E-02
 cg2d: Sum(rhs),rhsMax =   2.97975269458739E-10  1.90084370916038E-02
 cg2d: Sum(rhs),rhsMax =   2.98011615385008E-10  1.90084608148088E-02
 cg2d: Sum(rhs),rhsMax =   2.98055954917054E-10  1.90084795297113E-02
 cg2d: Sum(rhs),rhsMax =   2.98091065720207E-10  1.90084933350607E-02
 cg2d: Sum(rhs),rhsMax =   2.98117822095101E-10  1.90085023203710E-02
 cg2d: Sum(rhs),rhsMax =   2.98165395151706E-10  1.90085066094000E-02
 cg2d: Sum(rhs),rhsMax =   2.98198687964657E-10  1.90085063514867E-02
 cg2d: Sum(rhs),rhsMax =   2.98245761420901E-10  1.90085017154656E-02
 cg2d: Sum(rhs),rhsMax =   2.98283384103648E-10  1.90084928485297E-02
 cg2d: Sum(rhs),rhsMax =   2.98318383884499E-10  1.90084799005106E-02
 cg2d: Sum(rhs),rhsMax =   2.98361765849187E-10  1.90084630263826E-02
 cg2d: Sum(rhs),rhsMax =   2.98418914579379E-10  1.90084426857284E-02
 cg2d: Sum(rhs),rhsMax =   2.98448113444927E-10  1.90084187415056E-02
 cg2d: Sum(rhs),rhsMax =   2.98496616313315E-10  1.90083913428183E-02
 cg2d: Sum(rhs),rhsMax =   2.98535612897055E-10  1.90083606531479E-02
 cg2d: Sum(rhs),rhsMax =   2.98577024215874E-10  1.90083268539224E-02
 cg2d: Sum(rhs),rhsMax =   2.98634089679339E-10  1.90082901338463E-02
 cg2d: Sum(rhs),rhsMax =   2.98674251997255E-10  1.90082506645346E-02
 cg2d: Sum(rhs),rhsMax =   2.98716343327676E-10  1.90082086101489E-02
 cg2d: Sum(rhs),rhsMax =   2.98777391716243E-10  1.90081641445870E-02
 cg2d: Sum(rhs),rhsMax =   2.98811267396282E-10  1.90081174474476E-02
 cg2d: Sum(rhs),rhsMax =   2.98851041136139E-10  1.90080686954027E-02
 cg2d: Sum(rhs),rhsMax =   2.98900071360464E-10  1.90080180676393E-02
 cg2d: Sum(rhs),rhsMax =   2.98945770915715E-10  1.90079657378265E-02
 cg2d: Sum(rhs),rhsMax =   2.98984684232728E-10  1.90079118885116E-02
 cg2d: Sum(rhs),rhsMax =   2.99027344552449E-10  1.90078566912545E-02
 cg2d: Sum(rhs),rhsMax =   2.99064426001472E-10  1.90077039083834E-02
 cg2d: Sum(rhs),rhsMax =   2.99109237378303E-10  1.90075472885430E-02
 cg2d: Sum(rhs),rhsMax =   2.99144931048545E-10  1.90073924411558E-02
 cg2d: Sum(rhs),rhsMax =   2.99183039453865E-10  1.90072386911734E-02
 cg2d: Sum(rhs),rhsMax =   2.99235317080537E-10  1.90070865727898E-02
 cg2d: Sum(rhs),rhsMax =   2.99270996872991E-10  1.90069367856178E-02
 cg2d: Sum(rhs),rhsMax =   2.99309382834068E-10  1.90067899967879E-02
 cg2d: Sum(rhs),rhsMax =   2.99356095467829E-10  1.90066468457665E-02
 cg2d: Sum(rhs),rhsMax =   2.99392496905249E-10  1.90065079486087E-02
 cg2d: Sum(rhs),rhsMax =   2.99429592232059E-10  1.90063738931939E-02
 cg2d: Sum(rhs),rhsMax =   2.99460456432143E-10  1.90062452383370E-02
 cg2d: Sum(rhs),rhsMax =   2.99503477574348E-10  1.90061225131288E-02
 cg2d: Sum(rhs),rhsMax =   2.99558960970003E-10  1.90060062098681E-02
 cg2d: Sum(rhs),rhsMax =   2.99602842535052E-10  1.90058967953870E-02
 cg2d: Sum(rhs),rhsMax =   2.99648375556849E-10  1.90057946871373E-02
 cg2d: Sum(rhs),rhsMax =   2.99697738848081E-10  1.90057002808419E-02
 cg2d: Sum(rhs),rhsMax =   2.99744618015296E-10  1.90056139374069E-02
 cg2d: Sum(rhs),rhsMax =   2.99788707747162E-10  1.90055359702770E-02
 cg2d: Sum(rhs),rhsMax =   2.99829425176590E-10  1.90054666504802E-02
 cg2d: Sum(rhs),rhsMax =   2.99890320909491E-10  1.90054062107236E-02
 cg2d: Sum(rhs),rhsMax =   2.99930982827767E-10  1.90053548408009E-02
 cg2d: Sum(rhs),rhsMax =   2.99980346119000E-10  1.90053126934617E-02
 cg2d: Sum(rhs),rhsMax =   3.00020619459218E-10  1.90052798804117E-02
 cg2d: Sum(rhs),rhsMax =   3.00058450308782E-10  1.90052564739932E-02
 cg2d: Sum(rhs),rhsMax =   3.00106342554507E-10  1.90052425053769E-02
 cg2d: Sum(rhs),rhsMax =   3.00152208643212E-10  1.90052379671438E-02
 cg2d: Sum(rhs),rhsMax =   3.00193161995033E-10  1.90052428173153E-02
 cg2d: Sum(rhs),rhsMax =   3.00225705407442E-10  1.90052569655281E-02
 cg2d: Sum(rhs),rhsMax =   3.00268365727163E-10  1.90052802903072E-02
 cg2d: Sum(rhs),rhsMax =   3.00298216848738E-10  1.90053126411241E-02
 cg2d: Sum(rhs),rhsMax =   3.00350674886651E-10  1.90053538323806E-02
 cg2d: Sum(rhs),rhsMax =   3.00394209507004E-10  1.90054036412064E-02
 cg2d: Sum(rhs),rhsMax =   3.00428112942619E-10  1.90054618056702E-02
 cg2d: Sum(rhs),rhsMax =   3.00476157844010E-10  1.90055280414870E-02
 cg2d: Sum(rhs),rhsMax =   3.00510963335832E-10  1.90056020347237E-02
 cg2d: Sum(rhs),rhsMax =   3.00552221998984E-10  1.90056834457501E-02
 cg2d: Sum(rhs),rhsMax =   3.00596630919969E-10  1.90057719121568E-02
 cg2d: Sum(rhs),rhsMax =   3.00644675821360E-10  1.90058670457457E-02
 cg2d: Sum(rhs),rhsMax =   3.00670488506682E-10  1.90059684431976E-02
 cg2d: Sum(rhs),rhsMax =   3.00720948143152E-10  1.90060756801262E-02
 cg2d: Sum(rhs),rhsMax =   3.00755725879398E-10  1.90061883182797E-02
 cg2d: Sum(rhs),rhsMax =   3.00801675234830E-10  1.90063059062829E-02
 cg2d: Sum(rhs),rhsMax =   3.00838173816764E-10  1.90064279782859E-02
 cg2d: Sum(rhs),rhsMax =   3.00883040704747E-10  1.90065540640447E-02
 cg2d: Sum(rhs),rhsMax =   3.00920718898645E-10  1.90066836842393E-02
 cg2d: Sum(rhs),rhsMax =   3.00949654086224E-10  1.90068163557949E-02
 cg2d: Sum(rhs),rhsMax =   3.00995048330144E-10  1.90069515937026E-02
 cg2d: Sum(rhs),rhsMax =   3.01045327555372E-10  1.90070889143040E-02
 cg2d: Sum(rhs),rhsMax =   3.01089653209630E-10  1.90072278331773E-02
 cg2d: Sum(rhs),rhsMax =   3.01132854763075E-10  1.90073678752263E-02
 cg2d: Sum(rhs),rhsMax =   3.01170963168396E-10  1.90075085716283E-02
 cg2d: Sum(rhs),rhsMax =   3.01210209552316E-10  1.90076494885574E-02
 cg2d: Sum(rhs),rhsMax =   3.01247943257366E-10  1.90077901756069E-02
 cg2d: Sum(rhs),rhsMax =   3.01285135728691E-10  1.90079301654805E-02
 cg2d: Sum(rhs),rhsMax =   3.01328975660375E-10  1.90080690195926E-02
 cg2d: Sum(rhs),rhsMax =   3.01372690691970E-10  1.90082063398238E-02
 cg2d: Sum(rhs),rhsMax =   3.01417127368531E-10  1.90083417466133E-02
 Computing Diagnostic #    26 "THETA   " (list#  1) Parms "SMR     MR      ", Count=     144
 Computing Diagnostic #    27 "SALT    " (list#  1) Parms "SMR     MR      ", Count=     144
 Computing Diagnostic #    30 "UVEL    " (list#  1) Parms "UUR     MR      ", Count=     144
             Vector  Mate for "UVEL    " :  Diagnostic #     31 "VVEL    " exists
 Computing Diagnostic #    32 "WVEL    " (list#  1) Parms "WM      LR      ", Count=     144
 Computing Diagnostic #    31 "VVEL    " (list#  1) Parms "VVR     MR      ", Count=     144
             Vector  Mate for "VVEL    " :  Diagnostic #     30 "UVEL    " exists
 Computing Diagnostic #   197 "BRGfwFlx" (list#  2) Parms "SM      MR      ", Count=     144
 Computing Diagnostic #   198 "BRGhtFlx" (list#  2) Parms "SM      MR      ", Count=     144
 Computing Diagnostic #   199 "BRGmltRt" (list#  2) Parms "SM      MR      ", Count=     144
 Computing Diagnostic #   201 "BRG_TauX" (list#  2) Parms "UU      MR      ", Count=    1728
 Computing Diagnostic #   202 "BRG_TauY" (list#  2) Parms "VV      MR      ", Count=    1728
 Computing Diagnostic #   203 "BRGhFacC" (list#  2) Parms "SM      MR      ", Count=    1728
 cg2d: Sum(rhs),rhsMax =   3.01459288087891E-10  1.90084748818010E-02
 cg2d: Sum(rhs),rhsMax =   3.01492261711722E-10  1.90086053969907E-02
 cg2d: Sum(rhs),rhsMax =   3.01527566803905E-10  1.90087329783665E-02
 cg2d: Sum(rhs),rhsMax =   3.01568256477758E-10  1.90088573323434E-02
 cg2d: Sum(rhs),rhsMax =   3.01605213026690E-10  1.90089781581994E-02
 cg2d: Sum(rhs),rhsMax =   3.01648622746953E-10  1.90090952029216E-02
 cg2d: Sum(rhs),rhsMax =   3.01696292948073E-10  1.90092082501593E-02
 cg2d: Sum(rhs),rhsMax =   3.01729322083055E-10  1.90093171065652E-02
 cg2d: Sum(rhs),rhsMax =   3.01767708044132E-10  1.90094216008550E-02
 cg2d: Sum(rhs),rhsMax =   3.01804692348639E-10  1.90095215936345E-02
 cg2d: Sum(rhs),rhsMax =   3.01847200012695E-10  1.90096169696347E-02
 cg2d: Sum(rhs),rhsMax =   3.01893732235214E-10  1.90097076479897E-02
 cg2d: Sum(rhs),rhsMax =   3.01932451263198E-10  1.90097935752037E-02
 cg2d: Sum(rhs),rhsMax =   3.01961067261658E-10  1.90098747302144E-02
 cg2d: Sum(rhs),rhsMax =   3.01996011531358E-10  1.90099511152892E-02
 cg2d: Sum(rhs),rhsMax =   3.02035743637852E-10  1.90100227642638E-02
 cg2d: Sum(rhs),rhsMax =   3.02083025260913E-10  1.90100897396221E-02
 cg2d: Sum(rhs),rhsMax =   3.02112598826731E-10  1.90101521260205E-02
 cg2d: Sum(rhs),rhsMax =   3.02156910603202E-10  1.90102100440454E-02
 cg2d: Sum(rhs),rhsMax =   3.02195019008522E-10  1.90102636400217E-02
 cg2d: Sum(rhs),rhsMax =   3.02248032157948E-10  1.90103130754684E-02
 cg2d: Sum(rhs),rhsMax =   3.02287958553471E-10  1.90103585371704E-02
 cg2d: Sum(rhs),rhsMax =   3.02331840118519E-10  1.90104002391487E-02
 cg2d: Sum(rhs),rhsMax =   3.02381120143025E-10  1.90104384223856E-02
 cg2d: Sum(rhs),rhsMax =   3.02418784459135E-10  1.90104733402419E-02
 cg2d: Sum(rhs),rhsMax =   3.02470506974295E-10  1.90105052690376E-02
 cg2d: Sum(rhs),rhsMax =   3.02514416294919E-10  1.90105345075944E-02
 cg2d: Sum(rhs),rhsMax =   3.02571495636172E-10  1.90105613459539E-02
 cg2d: Sum(rhs),rhsMax =   3.02616626202123E-10  1.90105861232956E-02
 cg2d: Sum(rhs),rhsMax =   3.02645727923156E-10  1.90106091820903E-02
 cg2d: Sum(rhs),rhsMax =   3.02688540898544E-10  1.90106308572032E-02
 cg2d: Sum(rhs),rhsMax =   3.02725608469778E-10  1.90106514951916E-02
 cg2d: Sum(rhs),rhsMax =   3.02767491633382E-10  1.90106714795658E-02
 cg2d: Sum(rhs),rhsMax =   3.02815897357256E-10  1.90106912117321E-02
 cg2d: Sum(rhs),rhsMax =   3.02859973211334E-10  1.90107110756943E-02
 cg2d: Sum(rhs),rhsMax =   3.02890837411418E-10  1.90107314496624E-02
 cg2d: Sum(rhs),rhsMax =   3.02932179341298E-10  1.90107527143687E-02
 cg2d: Sum(rhs),rhsMax =   3.02974409449597E-10  1.90107752570334E-02
 cg2d: Sum(rhs),rhsMax =   3.03011976621193E-10  1.90107994643803E-02
 cg2d: Sum(rhs),rhsMax =   3.03040162408230E-10  1.90108257212413E-02
 cg2d: Sum(rhs),rhsMax =   3.03076938545921E-10  1.90108544073848E-02
 cg2d: Sum(rhs),rhsMax =   3.03116642896839E-10  1.90108858967343E-02
 cg2d: Sum(rhs),rhsMax =   3.03162731030149E-10  1.90109205552731E-02
 cg2d: Sum(rhs),rhsMax =   3.03193442574567E-10  1.90109587447583E-02
 cg2d: Sum(rhs),rhsMax =   3.03238198440248E-10  1.90110008107075E-02
 cg2d: Sum(rhs),rhsMax =   3.03287756020509E-10  1.90110470900244E-02
 cg2d: Sum(rhs),rhsMax =   3.03342351237745E-10  1.90110979074478E-02
 cg2d: Sum(rhs),rhsMax =   3.03386260558369E-10  1.90111535699591E-02
 cg2d: Sum(rhs),rhsMax =   3.03433819737187E-10  1.90112143735484E-02
 cg2d: Sum(rhs),rhsMax =   3.03470693019392E-10  1.90112805928340E-02
 cg2d: Sum(rhs),rhsMax =   3.03512839860964E-10  1.90113524899848E-02
 cg2d: Sum(rhs),rhsMax =   3.03556194070076E-10  1.90114178030329E-02
 cg2d: Sum(rhs),rhsMax =   3.03593039596706E-10  1.90114867127911E-02
 cg2d: Sum(rhs),rhsMax =   3.03634728471280E-10  1.90115634043923E-02
 cg2d: Sum(rhs),rhsMax =   3.03680081081836E-10  1.90116469295037E-02
 cg2d: Sum(rhs),rhsMax =   3.03712693883185E-10  1.90117374087251E-02
 cg2d: Sum(rhs),rhsMax =   3.03748234897760E-10  1.90118350057883E-02
 cg2d: Sum(rhs),rhsMax =   3.03785219202268E-10  1.90119398850030E-02
 cg2d: Sum(rhs),rhsMax =   3.03825423153548E-10  1.90120521983741E-02
 cg2d: Sum(rhs),rhsMax =   3.03858785355438E-10  1.90121720753927E-02
 cg2d: Sum(rhs),rhsMax =   3.03898517461931E-10  1.90122996144427E-02
 cg2d: Sum(rhs),rhsMax =   3.03951364077903E-10  1.90124348925078E-02
 cg2d: Sum(rhs),rhsMax =   3.03990208005978E-10  1.90125779569531E-02
 cg2d: Sum(rhs),rhsMax =   3.04034478149084E-10  1.90127288312359E-02
 cg2d: Sum(rhs),rhsMax =   3.04072794721222E-10  1.90128875152779E-02
 cg2d: Sum(rhs),rhsMax =   3.04098426995303E-10  1.90130539866414E-02
 cg2d: Sum(rhs),rhsMax =   3.04152661390056E-10  1.90132281958151E-02
 cg2d: Sum(rhs),rhsMax =   3.04191616340432E-10  1.90134100746979E-02
 cg2d: Sum(rhs),rhsMax =   3.04216402069457E-10  1.90135995290701E-02
 cg2d: Sum(rhs),rhsMax =   3.04251013272250E-10  1.90137964533452E-02
 cg2d: Sum(rhs),rhsMax =   3.04299543896214E-10  1.90140006763021E-02
 cg2d: Sum(rhs),rhsMax =   3.04330310951784E-10  1.90142120672634E-02
 cg2d: Sum(rhs),rhsMax =   3.04372679837961E-10  1.90144304558444E-02
 cg2d: Sum(rhs),rhsMax =   3.04418795726846E-10  1.90146556372726E-02
 cg2d: Sum(rhs),rhsMax =   3.04459013555913E-10  1.90148873918564E-02
 cg2d: Sum(rhs),rhsMax =   3.04500341608005E-10  1.90151254834979E-02
 cg2d: Sum(rhs),rhsMax =   3.04530720085516E-10  1.90153696639484E-02
 cg2d: Sum(rhs),rhsMax =   3.04571312614854E-10  1.90156177906715E-02
 cg2d: Sum(rhs),rhsMax =   3.04617567281618E-10  1.90158712231164E-02
 cg2d: Sum(rhs),rhsMax =   3.04657910010775E-10  1.90161299487037E-02
 cg2d: Sum(rhs),rhsMax =   3.04687788887925E-10  1.90163936761406E-02
 cg2d: Sum(rhs),rhsMax =   3.04726022193336E-10  1.90166621113866E-02
 cg2d: Sum(rhs),rhsMax =   3.04765587766376E-10  1.90169349518685E-02
 cg2d: Sum(rhs),rhsMax =   3.04799283035173E-10  1.90172118822158E-02
 cg2d: Sum(rhs),rhsMax =   3.04831909714309E-10  1.90174925779053E-02
 cg2d: Sum(rhs),rhsMax =   3.04869102185634E-10  1.90177767106273E-02
 cg2d: Sum(rhs),rhsMax =   3.04913053139622E-10  1.90180639446162E-02
 cg2d: Sum(rhs),rhsMax =   3.04946026763453E-10  1.90183539380749E-02
 cg2d: Sum(rhs),rhsMax =   3.04978736709316E-10  1.90186463457632E-02
 cg2d: Sum(rhs),rhsMax =   3.05016956136939E-10  1.90189408206514E-02
 cg2d: Sum(rhs),rhsMax =   3.05057701321942E-10  1.90192370137874E-02
 cg2d: Sum(rhs),rhsMax =   3.05102346165320E-10  1.90195345777031E-02
 cg2d: Sum(rhs),rhsMax =   3.05132433209288E-10  1.90198331744517E-02
 cg2d: Sum(rhs),rhsMax =   3.05164324365670E-10  1.90201324027268E-02
 cg2d: Sum(rhs),rhsMax =   3.05198505357041E-10  1.90204319654184E-02
 cg2d: Sum(rhs),rhsMax =   3.05237085607146E-10  1.90207315187215E-02
 cg2d: Sum(rhs),rhsMax =   3.05280023482624E-10  1.90210307211290E-02
 cg2d: Sum(rhs),rhsMax =   3.05315869808531E-10  1.90213260906852E-02
 cg2d: Sum(rhs),rhsMax =   3.05338573869385E-10  1.90216181255785E-02
 cg2d: Sum(rhs),rhsMax =   3.05374572850958E-10  1.90219084926114E-02
 cg2d: Sum(rhs),rhsMax =   3.05415331913750E-10  1.90221972257963E-02
 cg2d: Sum(rhs),rhsMax =   3.05442809933609E-10  1.90224840871646E-02
 cg2d: Sum(rhs),rhsMax =   3.05479572193512E-10  1.90227688251254E-02
 cg2d: Sum(rhs),rhsMax =   3.05530808986099E-10  1.90230511938425E-02
 cg2d: Sum(rhs),rhsMax =   3.05573302772366E-10  1.90233309676265E-02
 cg2d: Sum(rhs),rhsMax =   3.05601793870736E-10  1.90236079248963E-02
 cg2d: Sum(rhs),rhsMax =   3.05648964471494E-10  1.90238817780240E-02
 cg2d: Sum(rhs),rhsMax =   3.05686420620788E-10  1.90241523883537E-02
 cg2d: Sum(rhs),rhsMax =   3.05721295501549E-10  1.90244195711516E-02
 cg2d: Sum(rhs),rhsMax =   3.05750952334094E-10  1.90246831335408E-02
 cg2d: Sum(rhs),rhsMax =   3.05793682042754E-10  1.90249429026245E-02
 cg2d: Sum(rhs),rhsMax =   3.05841005299179E-10  1.90251987245098E-02
 cg2d: Sum(rhs),rhsMax =   3.05888619989148E-10  1.90254504597213E-02
 cg2d: Sum(rhs),rhsMax =   3.05924785504175E-10  1.90256979789382E-02
 cg2d: Sum(rhs),rhsMax =   3.05947003842455E-10  1.90259411662856E-02
 cg2d: Sum(rhs),rhsMax =   3.05978256620598E-10  1.90261799187203E-02
 cg2d: Sum(rhs),rhsMax =   3.06022540641493E-10  1.90264141392816E-02
 cg2d: Sum(rhs),rhsMax =   3.06061176402750E-10  1.90266437467491E-02
 cg2d: Sum(rhs),rhsMax =   3.06099354197009E-10  1.90268686760228E-02
 cg2d: Sum(rhs),rhsMax =   3.06126943239171E-10  1.90270888751248E-02
 cg2d: Sum(rhs),rhsMax =   3.06167077801511E-10  1.90273043001839E-02
 cg2d: Sum(rhs),rhsMax =   3.06201786148819E-10  1.90275149258344E-02
 cg2d: Sum(rhs),rhsMax =   3.06240977021588E-10  1.90277207311683E-02
 cg2d: Sum(rhs),rhsMax =   3.06277850303793E-10  1.90279217108394E-02
 cg2d: Sum(rhs),rhsMax =   3.06306785491373E-10  1.90281178679662E-02
 cg2d: Sum(rhs),rhsMax =   3.06353067913712E-10  1.90283092186251E-02
 cg2d: Sum(rhs),rhsMax =   3.06380268377815E-10  1.90284957848128E-02
 cg2d: Sum(rhs),rhsMax =   3.06421180096272E-10  1.90286776007872E-02
 cg2d: Sum(rhs),rhsMax =   3.06458622367778E-10  1.90288547086000E-02
 cg2d: Sum(rhs),rhsMax =   3.06507319525195E-10  1.90290271615348E-02
 cg2d: Sum(rhs),rhsMax =   3.06547745521080E-10  1.90291950158110E-02
 cg2d: Sum(rhs),rhsMax =   3.06581968145814E-10  1.90293583399994E-02
 cg2d: Sum(rhs),rhsMax =   3.06624628465535E-10  1.90295172077580E-02
 cg2d: Sum(rhs),rhsMax =   3.06665817739749E-10  1.90296716979717E-02
 cg2d: Sum(rhs),rhsMax =   3.06697542362677E-10  1.90298218992775E-02
 cg2d: Sum(rhs),rhsMax =   3.06735900568178E-10  1.90299679006242E-02
 cg2d: Sum(rhs),rhsMax =   3.06776673508757E-10  1.90301098038201E-02
 cg2d: Sum(rhs),rhsMax =   3.06810743477826E-10  1.90302477080101E-02
 cg2d: Sum(rhs),rhsMax =   3.06846784092762E-10  1.90303817167180E-02
 cg2d: Sum(rhs),rhsMax =   3.06892525281377E-10  1.90305119397413E-02
 cg2d: Sum(rhs),rhsMax =   3.06942374295183E-10  1.90306384919247E-02
 cg2d: Sum(rhs),rhsMax =   3.06982897435581E-10  1.90307614862053E-02
 cg2d: Sum(rhs),rhsMax =   3.07026251644693E-10  1.90308810425009E-02
 cg2d: Sum(rhs),rhsMax =   3.07072450800305E-10  1.90309972785359E-02
 Computing Diagnostic #    26 "THETA   " (list#  1) Parms "SMR     MR      ", Count=     144
 Computing Diagnostic #    27 "SALT    " (list#  1) Parms "SMR     MR      ", Count=     144
 Computing Diagnostic #    30 "UVEL    " (list#  1) Parms "UUR     MR      ", Count=     144
             Vector  Mate for "UVEL    " :  Diagnostic #     31 "VVEL    " exists
 Computing Diagnostic #    32 "WVEL    " (list#  1) Parms "WM      LR      ", Count=     144
 Computing Diagnostic #    31 "VVEL    " (list#  1) Parms "VVR     MR      ", Count=     144
             Vector  Mate for "VVEL    " :  Diagnostic #     30 "UVEL    " exists
 Computing Diagnostic #   197 "BRGfwFlx" (list#  2) Parms "SM      MR      ", Count=     144
 Computing Diagnostic #   198 "BRGhtFlx" (list#  2) Parms "SM      MR      ", Count=     144
 Computing Diagnostic #   199 "BRGmltRt" (list#  2) Parms "SM      MR      ", Count=     144
 Computing Diagnostic #   201 "BRG_TauX" (list#  2) Parms "UU      MR      ", Count=    1728
 Computing Diagnostic #   202 "BRG_TauY" (list#  2) Parms "VV      MR      ", Count=    1728
 Computing Diagnostic #   203 "BRGhFacC" (list#  2) Parms "SM      MR      ", Count=    1728
 cg2d: Sum(rhs),rhsMax =   3.07115624598175E-10  1.90311103142359E-02
 cg2d: Sum(rhs),rhsMax =   3.07155620382638E-10  1.90312202735833E-02
 cg2d: Sum(rhs),rhsMax =   3.07196698634549E-10  1.90313272772865E-02
 cg2d: Sum(rhs),rhsMax =   3.07241648789258E-10  1.90314314489827E-02
 cg2d: Sum(rhs),rhsMax =   3.07285696887760E-10  1.90315329115859E-02
 cg2d: Sum(rhs),rhsMax =   3.07330716431409E-10  1.90316317874811E-02
 cg2d: Sum(rhs),rhsMax =   3.07381772812754E-10  1.90317281985752E-02
 cg2d: Sum(rhs),rhsMax =   3.07425376822046E-10  1.90318222674712E-02
 cg2d: Sum(rhs),rhsMax =   3.07462874604703E-10  1.90319141134821E-02
 cg2d: Sum(rhs),rhsMax =   3.07504993690699E-10  1.90320038489628E-02
 cg2d: Sum(rhs),rhsMax =   3.07547126654484E-10  1.90320915753300E-02
 cg2d: Sum(rhs),rhsMax =   3.07579059444230E-10  1.90321774856276E-02
 cg2d: Sum(rhs),rhsMax =   3.07609604455195E-10  1.90322616457402E-02
 cg2d: Sum(rhs),rhsMax =   3.07650183106745E-10  1.90323441378520E-02
 cg2d: Sum(rhs),rhsMax =   3.07687250677979E-10  1.90324250998058E-02
 cg2d: Sum(rhs),rhsMax =   3.07734060456255E-10  1.90325046394949E-02
 cg2d: Sum(rhs),rhsMax =   3.07770170460131E-10  1.90325828601145E-02
 cg2d: Sum(rhs),rhsMax =   3.07810638089379E-10  1.90326598698693E-02
 cg2d: Sum(rhs),rhsMax =   3.07845304803323E-10  1.90327357711198E-02
 cg2d: Sum(rhs),rhsMax =   3.07889880257761E-10  1.90328106611222E-02
 cg2d: Sum(rhs),rhsMax =   3.07928516019018E-10  1.90328846345743E-02
 cg2d: Sum(rhs),rhsMax =   3.07960615342218E-10  1.90329577812683E-02
 cg2d: Sum(rhs),rhsMax =   3.08001790738643E-10  1.90330301914394E-02
 cg2d: Sum(rhs),rhsMax =   3.08033390461482E-10  1.90331019511520E-02
 cg2d: Sum(rhs),rhsMax =   3.08061950948790E-10  1.90331731443456E-02
 cg2d: Sum(rhs),rhsMax =   3.08099851187293E-10  1.90332438525841E-02
 cg2d: Sum(rhs),rhsMax =   3.08140665761236E-10  1.90333141494835E-02
 cg2d: Sum(rhs),rhsMax =   3.08186171027458E-10  1.90333841141049E-02
 cg2d: Sum(rhs),rhsMax =   3.08234257562212E-10  1.90334538180442E-02
 cg2d: Sum(rhs),rhsMax =   3.08264400117331E-10  1.90335233303019E-02
 cg2d: Sum(rhs),rhsMax =   3.08299441531545E-10  1.90335927170827E-02
 cg2d: Sum(rhs),rhsMax =   3.08339243026978E-10  1.90336620030950E-02
 cg2d: Sum(rhs),rhsMax =   3.08388523051484E-10  1.90337312276687E-02
 cg2d: Sum(rhs),rhsMax =   3.08424702444299E-10  1.90338004476918E-02
 cg2d: Sum(rhs),rhsMax =   3.08464045972734E-10  1.90338697161753E-02
 cg2d: Sum(rhs),rhsMax =   3.08510203494983E-10  1.90339390299644E-02
 cg2d: Sum(rhs),rhsMax =   3.08553252392763E-10  1.90340083982360E-02
 cg2d: Sum(rhs),rhsMax =   3.08593081643771E-10  1.90340778635369E-02
 cg2d: Sum(rhs),rhsMax =   3.08637032597758E-10  1.90341474736953E-02
 cg2d: Sum(rhs),rhsMax =   3.08667688631026E-10  1.90342172585318E-02
 cg2d: Sum(rhs),rhsMax =   3.08717218455712E-10  1.90342872506850E-02
 cg2d: Sum(rhs),rhsMax =   3.08755299105457E-10  1.90343574879650E-02
 cg2d: Sum(rhs),rhsMax =   3.08789563363554E-10  1.90344279934608E-02
 cg2d: Sum(rhs),rhsMax =   3.08824923966888E-10  1.90344987951663E-02
 cg2d: Sum(rhs),rhsMax =   3.08879422039610E-10  1.90345699098641E-02
 cg2d: Sum(rhs),rhsMax =   3.08922568081904E-10  1.90346413588697E-02
 cg2d: Sum(rhs),rhsMax =   3.08968975404333E-10  1.90347131625767E-02
 cg2d: Sum(rhs),rhsMax =   3.09004974385907E-10  1.90347853244374E-02
 cg2d: Sum(rhs),rhsMax =   3.09042291757322E-10  1.90348578511367E-02
 cg2d: Sum(rhs),rhsMax =   3.09085812499887E-10  1.90349307436837E-02
 cg2d: Sum(rhs),rhsMax =   3.09134329246064E-10  1.90350040045429E-02
 cg2d: Sum(rhs),rhsMax =   3.09173076029623E-10  1.90350776261913E-02
 cg2d: Sum(rhs),rhsMax =   3.09219025385055E-10  1.90351515985356E-02
 cg2d: Sum(rhs),rhsMax =   3.09259617914392E-10  1.90352259062787E-02
 cg2d: Sum(rhs),rhsMax =   3.09290343336599E-10  1.90353005263094E-02
 cg2d: Sum(rhs),rhsMax =   3.09330380754425E-10  1.90353754394172E-02
 cg2d: Sum(rhs),rhsMax =   3.09365699724395E-10  1.90354506178050E-02
 cg2d: Sum(rhs),rhsMax =   3.09415937316260E-10  1.90355260285768E-02
 cg2d: Sum(rhs),rhsMax =   3.09446190893681E-10  1.90356016326197E-02
 cg2d: Sum(rhs),rhsMax =   3.09491779426629E-10  1.90356773889270E-02
 cg2d: Sum(rhs),rhsMax =   3.09541364762467E-10  1.90357532468739E-02
 cg2d: Sum(rhs),rhsMax =   3.09578043755643E-10  1.90358291542836E-02
 cg2d: Sum(rhs),rhsMax =   3.09602649073426E-10  1.90359050549231E-02
 cg2d: Sum(rhs),rhsMax =   3.09644310192425E-10  1.90359808872887E-02
 cg2d: Sum(rhs),rhsMax =   3.09691966515757E-10  1.90360565846087E-02
 cg2d: Sum(rhs),rhsMax =   3.09731906789068E-10  1.90361320721549E-02
 cg2d: Sum(rhs),rhsMax =   3.09777675733258E-10  1.90362072784534E-02
 cg2d: Sum(rhs),rhsMax =   3.09818712351806E-10  1.90362821205335E-02
 cg2d: Sum(rhs),rhsMax =   3.09864411907057E-10  1.90363565159404E-02
 cg2d: Sum(rhs),rhsMax =   3.09908251838742E-10  1.90364303762547E-02
 cg2d: Sum(rhs),rhsMax =   3.09951703192368E-10  1.90365036077707E-02
 cg2d: Sum(rhs),rhsMax =   3.10001524450598E-10  1.90365761178478E-02
 cg2d: Sum(rhs),rhsMax =   3.10033540507071E-10  1.90366478077917E-02
 cg2d: Sum(rhs),rhsMax =   3.10072439946296E-10  1.90367185737346E-02
 cg2d: Sum(rhs),rhsMax =   3.10105566225793E-10  1.90367883142493E-02
 cg2d: Sum(rhs),rhsMax =   3.10136291648000E-10  1.90368569222660E-02
 cg2d: Sum(rhs),rhsMax =   3.10175066187135E-10  1.90369242928812E-02
 cg2d: Sum(rhs),rhsMax =   3.10220057975208E-10  1.90369903144044E-02
 cg2d: Sum(rhs),rhsMax =   3.10268144509962E-10  1.90370548795369E-02
 cg2d: Sum(rhs),rhsMax =   3.10301825900972E-10  1.90371178775724E-02
 cg2d: Sum(rhs),rhsMax =   3.10334966058257E-10  1.90371791997494E-02
 cg2d: Sum(rhs),rhsMax =   3.10383177493101E-10  1.90372387361757E-02
 cg2d: Sum(rhs),rhsMax =   3.10434275507809E-10  1.90372963830991E-02
 cg2d: Sum(rhs),rhsMax =   3.10465653186043E-10  1.90373520295119E-02
 cg2d: Sum(rhs),rhsMax =   3.10493158961478E-10  1.90374055754915E-02
 cg2d: Sum(rhs),rhsMax =   3.10524092550502E-10  1.90374569205428E-02
 cg2d: Sum(rhs),rhsMax =   3.10564074457176E-10  1.90375059683055E-02
 cg2d: Sum(rhs),rhsMax =   3.10607789488770E-10  1.90375526273669E-02
 cg2d: Sum(rhs),rhsMax =   3.10646897094813E-10  1.90375968094675E-02
 cg2d: Sum(rhs),rhsMax =   3.10682563009479E-10  1.90376384351663E-02
 cg2d: Sum(rhs),rhsMax =   3.10725598029471E-10  1.90376774255869E-02
 cg2d: Sum(rhs),rhsMax =   3.10769424083368E-10  1.90377137146368E-02
 cg2d: Sum(rhs),rhsMax =   3.10816206106068E-10  1.90377472410105E-02
 cg2d: Sum(rhs),rhsMax =   3.10858977448092E-10  1.90377779516692E-02
 cg2d: Sum(rhs),rhsMax =   3.10890493904203E-10  1.90378058004542E-02
 cg2d: Sum(rhs),rhsMax =   3.10935194258732E-10  1.90378307531094E-02
 cg2d: Sum(rhs),rhsMax =   3.10971748351818E-10  1.90378527838600E-02
 cg2d: Sum(rhs),rhsMax =   3.11011827403007E-10  1.90378718750429E-02
 cg2d: Sum(rhs),rhsMax =   3.11047146372978E-10  1.90378880242517E-02
 cg2d: Sum(rhs),rhsMax =   3.11094788818522E-10  1.90379012356860E-02
 cg2d: Sum(rhs),rhsMax =   3.11127526519961E-10  1.90379089927264E-02
 cg2d: Sum(rhs),rhsMax =   3.11164302657652E-10  1.90379121284924E-02
 cg2d: Sum(rhs),rhsMax =   3.11200634706132E-10  1.90379124394009E-02
 cg2d: Sum(rhs),rhsMax =   3.11240172523597E-10  1.90379100128573E-02
 cg2d: Sum(rhs),rhsMax =   3.11282763454379E-10  1.90379049550791E-02
 cg2d: Sum(rhs),rhsMax =   3.11319456325343E-10  1.90378973870780E-02
 cg2d: Sum(rhs),rhsMax =   3.11357564730663E-10  1.90378874424102E-02
 cg2d: Sum(rhs),rhsMax =   3.11392328589122E-10  1.90378752643414E-02
 cg2d: Sum(rhs),rhsMax =   3.11434794619814E-10  1.90378610074070E-02
 cg2d: Sum(rhs),rhsMax =   3.11479494974343E-10  1.90378448379036E-02
 cg2d: Sum(rhs),rhsMax =   3.11527484364582E-10  1.90378269344759E-02
 cg2d: Sum(rhs),rhsMax =   3.11571893285567E-10  1.90378074844936E-02
 cg2d: Sum(rhs),rhsMax =   3.11607420422355E-10  1.90378183489153E-02
 cg2d: Sum(rhs),rhsMax =   3.11660836027627E-10  1.90378278601644E-02
 cg2d: Sum(rhs),rhsMax =   3.11700179556063E-10  1.90378358964774E-02
 cg2d: Sum(rhs),rhsMax =   3.11738787561744E-10  1.90378425052031E-02
 cg2d: Sum(rhs),rhsMax =   3.11777909045574E-10  1.90378476021182E-02
 cg2d: Sum(rhs),rhsMax =   3.11813186382182E-10  1.90378511734182E-02
 cg2d: Sum(rhs),rhsMax =   3.11853445844612E-10  1.90378532164085E-02
 cg2d: Sum(rhs),rhsMax =   3.11880660186503E-10  1.90378537485979E-02
 cg2d: Sum(rhs),rhsMax =   3.11924971962974E-10  1.90378528030571E-02
 cg2d: Sum(rhs),rhsMax =   3.11964815091770E-10  1.90378504327682E-02
 cg2d: Sum(rhs),rhsMax =   3.12014664105575E-10  1.90378467112376E-02
 cg2d: Sum(rhs),rhsMax =   3.12051079420783E-10  1.90378417311811E-02
 cg2d: Sum(rhs),rhsMax =   3.12092351961724E-10  1.90378356003818E-02
 cg2d: Sum(rhs),rhsMax =   3.12145795322571E-10  1.90378284497047E-02
 cg2d: Sum(rhs),rhsMax =   3.12194423091050E-10  1.90378204265309E-02
 cg2d: Sum(rhs),rhsMax =   3.12227452226033E-10  1.90378116959813E-02
 cg2d: Sum(rhs),rhsMax =   3.12258663370812E-10  1.90378024419183E-02
 cg2d: Sum(rhs),rhsMax =   3.12282158465571E-10  1.90377928640094E-02
 cg2d: Sum(rhs),rhsMax =   3.12326609019919E-10  1.90377831789883E-02
 cg2d: Sum(rhs),rhsMax =   3.12358874876573E-10  1.90377736168298E-02
 cg2d: Sum(rhs),rhsMax =   3.12387532508396E-10  1.90377644227944E-02
 cg2d: Sum(rhs),rhsMax =   3.12439601968251E-10  1.90377558523152E-02
 cg2d: Sum(rhs),rhsMax =   3.12471437613482E-10  1.90377481773281E-02
 cg2d: Sum(rhs),rhsMax =   3.12509296218622E-10  1.90377416727635E-02
 cg2d: Sum(rhs),rhsMax =   3.12530820667511E-10  1.90377366263233E-02
 cg2d: Sum(rhs),rhsMax =   3.12590148210390E-10  1.90377333326560E-02
 cg2d: Sum(rhs),rhsMax =   3.12629672150067E-10  1.90377320892774E-02
 cg2d: Sum(rhs),rhsMax =   3.12668613222655E-10  1.90377332075162E-02
 cg2d: Sum(rhs),rhsMax =   3.12708220429059E-10  1.90377369882270E-02
 cg2d: Sum(rhs),rhsMax =   3.12753128950405E-10  1.90377437366218E-02
 cg2d: Sum(rhs),rhsMax =   3.12792222678659E-10  1.90377537534629E-02
 cg2d: Sum(rhs),rhsMax =   3.12836270777161E-10  1.90377673371216E-02
 Computing Diagnostic #    26 "THETA   " (list#  1) Parms "SMR     MR      ", Count=     144
 Computing Diagnostic #    27 "SALT    " (list#  1) Parms "SMR     MR      ", Count=     144
 Computing Diagnostic #    30 "UVEL    " (list#  1) Parms "UUR     MR      ", Count=     144
             Vector  Mate for "UVEL    " :  Diagnostic #     31 "VVEL    " exists
 Computing Diagnostic #    32 "WVEL    " (list#  1) Parms "WM      LR      ", Count=     144
 Computing Diagnostic #    31 "VVEL    " (list#  1) Parms "VVR     MR      ", Count=     144
             Vector  Mate for "VVEL    " :  Diagnostic #     30 "UVEL    " exists
 Computing Diagnostic #   197 "BRGfwFlx" (list#  2) Parms "SM      MR      ", Count=     144
 Computing Diagnostic #   198 "BRGhtFlx" (list#  2) Parms "SM      MR      ", Count=     144
 Computing Diagnostic #   199 "BRGmltRt" (list#  2) Parms "SM      MR      ", Count=     144
 Computing Diagnostic #   201 "BRG_TauX" (list#  2) Parms "UU      MR      ", Count=    1728
 Computing Diagnostic #   202 "BRG_TauY" (list#  2) Parms "VV      MR      ", Count=    1728
 Computing Diagnostic #   203 "BRGhFacC" (list#  2) Parms "SM      MR      ", Count=    1728
 cg2d: Sum(rhs),rhsMax =   3.12887674103202E-10  1.90377847779818E-02
 cg2d: Sum(rhs),rhsMax =   3.12919329337191E-10  1.90378063595523E-02
 cg2d: Sum(rhs),rhsMax =   3.12957534887026E-10  1.90378323557424E-02
 cg2d: Sum(rhs),rhsMax =   3.12989786865892E-10  1.90378630313218E-02
 cg2d: Sum(rhs),rhsMax =   3.13024703380016E-10  1.90378986334990E-02
 cg2d: Sum(rhs),rhsMax =   3.13068446167186E-10  1.90379393982085E-02
 cg2d: Sum(rhs),rhsMax =   3.13108872163070E-10  1.90379855414552E-02
 cg2d: Sum(rhs),rhsMax =   3.13154085995748E-10  1.90380372610778E-02
 cg2d: Sum(rhs),rhsMax =   3.13194678525086E-10  1.90380947380193E-02
 cg2d: Sum(rhs),rhsMax =   3.13236159232844E-10  1.90381581273247E-02
 cg2d: Sum(rhs),rhsMax =   3.13278111785387E-10  1.90382275646038E-02
 cg2d: Sum(rhs),rhsMax =   3.13312278898970E-10  1.90383031579464E-02
 cg2d: Sum(rhs),rhsMax =   3.13360268289209E-10  1.90383849939331E-02
 cg2d: Sum(rhs),rhsMax =   3.13399278750737E-10  1.90384731288980E-02
 cg2d: Sum(rhs),rhsMax =   3.13436249177457E-10  1.90385675932153E-02
 cg2d: Sum(rhs),rhsMax =   3.13475051472167E-10  1.90386683890055E-02
 cg2d: Sum(rhs),rhsMax =   3.13517475869496E-10  1.90387754875064E-02
 cg2d: Sum(rhs),rhsMax =   3.13550505004478E-10  1.90388888368238E-02
 cg2d: Sum(rhs),rhsMax =   3.13594455958466E-10  1.90390083483762E-02
 cg2d: Sum(rhs),rhsMax =   3.13635103998955E-10  1.90391339060926E-02
 cg2d: Sum(rhs),rhsMax =   3.13677278596103E-10  1.90392653635168E-02
 cg2d: Sum(rhs),rhsMax =   3.13711681632078E-10  1.90394025469418E-02
 cg2d: Sum(rhs),rhsMax =   3.13753731329136E-10  1.90395452480838E-02
 cg2d: Sum(rhs),rhsMax =   3.13784817573826E-10  1.90396932323568E-02
 cg2d: Sum(rhs),rhsMax =   3.13818152020140E-10  1.90398462405775E-02
 cg2d: Sum(rhs),rhsMax =   3.13854456313045E-10  1.90400039825011E-02
 cg2d: Sum(rhs),rhsMax =   3.13896589276830E-10  1.90401661398297E-02
 cg2d: Sum(rhs),rhsMax =   3.13937958962285E-10  1.90403323679849E-02
 cg2d: Sum(rhs),rhsMax =   3.13973097521014E-10  1.90405023006948E-02
 cg2d: Sum(rhs),rhsMax =   3.14016729285882E-10  1.90406755695515E-02
 cg2d: Sum(rhs),rhsMax =   3.14057543859825E-10  1.90408517717868E-02
 cg2d: Sum(rhs),rhsMax =   3.14092085673678E-10  1.90410304430148E-02
 cg2d: Sum(rhs),rhsMax =   3.14132553302926E-10  1.90412111143950E-02
 cg2d: Sum(rhs),rhsMax =   3.14178905114204E-10  1.90413933324063E-02
 cg2d: Sum(rhs),rhsMax =   3.14215542474017E-10  1.90415766243576E-02
 cg2d: Sum(rhs),rhsMax =   3.14260228950758E-10  1.90417604986725E-02
 cg2d: Sum(rhs),rhsMax =   3.14299974935039E-10  1.90419444496537E-02
 cg2d: Sum(rhs),rhsMax =   3.14329673400948E-10  1.90421279660109E-02
 cg2d: Sum(rhs),rhsMax =   3.14365380948978E-10  1.90423105307518E-02
 cg2d: Sum(rhs),rhsMax =   3.14410150692446E-10  1.90424916252611E-02
 cg2d: Sum(rhs),rhsMax =   3.14446219062958E-10  1.90426707281961E-02
 cg2d: Sum(rhs),rhsMax =   3.14472295426249E-10  1.90428473217108E-02
 cg2d: Sum(rhs),rhsMax =   3.14508363796762E-10  1.90430208900199E-02
 cg2d: Sum(rhs),rhsMax =   3.14552064950568E-10  1.90431909251569E-02
 cg2d: Sum(rhs),rhsMax =   3.14573547766095E-10  1.90433569207673E-02
 cg2d: Sum(rhs),rhsMax =   3.14622661257147E-10  1.90435184135580E-02
 cg2d: Sum(rhs),rhsMax =   3.14662906841789E-10  1.90436749056409E-02
 cg2d: Sum(rhs),rhsMax =   3.14697976011580E-10  1.90438259384016E-02
 cg2d: Sum(rhs),rhsMax =   3.14741455120782E-10  1.90439710802011E-02
 cg2d: Sum(rhs),rhsMax =   3.14785641997162E-10  1.90441099112547E-02
 cg2d: Sum(rhs),rhsMax =   3.14825235325777E-10  1.90442420344459E-02
 cg2d: Sum(rhs),rhsMax =   3.14871073658907E-10  1.90443670749282E-02
 cg2d: Sum(rhs),rhsMax =   3.14893000563643E-10  1.90444846900039E-02
 cg2d: Sum(rhs),rhsMax =   3.14938214396321E-10  1.90445945605776E-02
 cg2d: Sum(rhs),rhsMax =   3.14976836279790E-10  1.90446964017239E-02
 cg2d: Sum(rhs),rhsMax =   3.15004480833103E-10  1.90447899528653E-02
 cg2d: Sum(rhs),rhsMax =   3.15046058685375E-10  1.90448749951976E-02
 cg2d: Sum(rhs),rhsMax =   3.15092896219227E-10  1.90449513368319E-02
 cg2d: Sum(rhs),rhsMax =   3.15113671267575E-10  1.90450188232693E-02
 cg2d: Sum(rhs),rhsMax =   3.15157858143955E-10  1.90450773385455E-02
 cg2d: Sum(rhs),rhsMax =   3.15190470945304E-10  1.90451266398670E-02
 cg2d: Sum(rhs),rhsMax =   3.15226483804665E-10  1.90451668447858E-02
 cg2d: Sum(rhs),rhsMax =   3.15267062456215E-10  1.90451979768496E-02
 cg2d: Sum(rhs),rhsMax =   3.15314399590427E-10  1.90452200830465E-02
 cg2d: Sum(rhs),rhsMax =   3.15340614731596E-10  1.90452332351309E-02
 cg2d: Sum(rhs),rhsMax =   3.15377168824682E-10  1.90452375396880E-02
 cg2d: Sum(rhs),rhsMax =   3.15418149932079E-10  1.90452331419943E-02
 cg2d: Sum(rhs),rhsMax =   3.15461309852161E-10  1.90452202242076E-02
 cg2d: Sum(rhs),rhsMax =   3.15510811921271E-10  1.90451990016237E-02
 cg2d: Sum(rhs),rhsMax =   3.15557385777154E-10  1.90451697264857E-02
 cg2d: Sum(rhs),rhsMax =   3.15602058376108E-10  1.90451326874546E-02
 cg2d: Sum(rhs),rhsMax =   3.15640388826033E-10  1.90450996563486E-02
 cg2d: Sum(rhs),rhsMax =   3.15685630414286E-10  1.90450597603880E-02
 cg2d: Sum(rhs),rhsMax =   3.15728207467281E-10  1.90450127411033E-02
 cg2d: Sum(rhs),rhsMax =   3.15785689264381E-10  1.90449591140688E-02
 cg2d: Sum(rhs),rhsMax =   3.15823769914125E-10  1.90448992769171E-02
 cg2d: Sum(rhs),rhsMax =   3.15869469469376E-10  1.90448336342986E-02
 cg2d: Sum(rhs),rhsMax =   3.15919859716907E-10  1.90447626167079E-02
 cg2d: Sum(rhs),rhsMax =   3.15961909413964E-10  1.90446866776312E-02
 cg2d: Sum(rhs),rhsMax =   3.15999088007501E-10  1.90446062926983E-02
 cg2d: Sum(rhs),rhsMax =   3.16045495329931E-10  1.90445219517066E-02
 cg2d: Sum(rhs),rhsMax =   3.16080162043875E-10  1.90444341674765E-02
 cg2d: Sum(rhs),rhsMax =   3.16115564280572E-10  1.90443434691156E-02
 cg2d: Sum(rhs),rhsMax =   3.16157128255057E-10  1.90442503937417E-02
 cg2d: Sum(rhs),rhsMax =   3.16199136318751E-10  1.90441554887266E-02
 cg2d: Sum(rhs),rhsMax =   3.16247361631383E-10  1.90440593007444E-02
 cg2d: Sum(rhs),rhsMax =   3.16287718238328E-10  1.90439623925411E-02
 cg2d: Sum(rhs),rhsMax =   3.16328380156605E-10  1.90438653203916E-02
 cg2d: Sum(rhs),rhsMax =   3.16384585197227E-10  1.90437686423943E-02
 cg2d: Sum(rhs),rhsMax =   3.16421763790764E-10  1.90436729169224E-02
 cg2d: Sum(rhs),rhsMax =   3.16454806803534E-10  1.90435786943310E-02
 cg2d: Sum(rhs),rhsMax =   3.16492262952828E-10  1.90434865175861E-02
 cg2d: Sum(rhs),rhsMax =   3.16546525103156E-10  1.90433969185255E-02
 cg2d: Sum(rhs),rhsMax =   3.16594042648610E-10  1.90433104161939E-02
 cg2d: Sum(rhs),rhsMax =   3.16641532438489E-10  1.90432275149646E-02
 cg2d: Sum(rhs),rhsMax =   3.16694850899246E-10  1.90431487006051E-02
 cg2d: Sum(rhs),rhsMax =   3.16731196825515E-10  1.90430744394932E-02
 cg2d: Sum(rhs),rhsMax =   3.16770554231738E-10  1.90430051754528E-02
 cg2d: Sum(rhs),rhsMax =   3.16798254296202E-10  1.90429413293474E-02
 cg2d: Sum(rhs),rhsMax =   3.16829465440982E-10  1.90428832963548E-02
 cg2d: Sum(rhs),rhsMax =   3.16873985384269E-10  1.90428314421388E-02
 cg2d: Sum(rhs),rhsMax =   3.16920240051033E-10  1.90427861063253E-02
 cg2d: Sum(rhs),rhsMax =   3.16950771184210E-10  1.90427475971882E-02
 cg2d: Sum(rhs),rhsMax =   3.16992571081087E-10  1.90427161897670E-02
 cg2d: Sum(rhs),rhsMax =   3.17033788110876E-10  1.90426921297530E-02
 cg2d: Sum(rhs),rhsMax =   3.17071258137958E-10  1.90426756263557E-02
 cg2d: Sum(rhs),rhsMax =   3.17102538671676E-10  1.90426668530058E-02
 cg2d: Sum(rhs),rhsMax =   3.17137566208103E-10  1.90426659521547E-02
 cg2d: Sum(rhs),rhsMax =   3.17172232922047E-10  1.90426730309022E-02
 cg2d: Sum(rhs),rhsMax =   3.17232407009982E-10  1.90426881551566E-02
 cg2d: Sum(rhs),rhsMax =   3.17272152994263E-10  1.90427113588557E-02
 cg2d: Sum(rhs),rhsMax =   3.17315076991953E-10  1.90427426404121E-02
 cg2d: Sum(rhs),rhsMax =   3.17359999391087E-10  1.90427819599979E-02
 cg2d: Sum(rhs),rhsMax =   3.17397483295956E-10  1.90428292459077E-02
 cg2d: Sum(rhs),rhsMax =   3.17430304264121E-10  1.90428843861229E-02
 cg2d: Sum(rhs),rhsMax =   3.17472922950479E-10  1.90429472386883E-02
 cg2d: Sum(rhs),rhsMax =   3.17523313198009E-10  1.90430176274308E-02
 cg2d: Sum(rhs),rhsMax =   3.17559076257190E-10  1.90430953453094E-02
 cg2d: Sum(rhs),rhsMax =   3.17587567355559E-10  1.90431801543044E-02
 cg2d: Sum(rhs),rhsMax =   3.17627119050812E-10  1.90432717861486E-02
 cg2d: Sum(rhs),rhsMax =   3.17668169547147E-10  1.90433699451692E-02
 cg2d: Sum(rhs),rhsMax =   3.17704890173687E-10  1.90434743062759E-02
 cg2d: Sum(rhs),rhsMax =   3.17749437872550E-10  1.90435845258649E-02
 cg2d: Sum(rhs),rhsMax =   3.17776471803199E-10  1.90437002337359E-02
 cg2d: Sum(rhs),rhsMax =   3.17803186544729E-10  1.90438210401963E-02
 cg2d: Sum(rhs),rhsMax =   3.17827347773303E-10  1.90439465334260E-02
 cg2d: Sum(rhs),rhsMax =   3.17874421229547E-10  1.90440762888379E-02
 cg2d: Sum(rhs),rhsMax =   3.17912113301233E-10  1.90442098630800E-02
 cg2d: Sum(rhs),rhsMax =   3.17953843809171E-10  1.90443468027180E-02
 cg2d: Sum(rhs),rhsMax =   3.17996587395619E-10  1.90444866432977E-02
 cg2d: Sum(rhs),rhsMax =   3.18029533263875E-10  1.90446289122187E-02
 cg2d: Sum(rhs),rhsMax =   3.18066406546080E-10  1.90447731275096E-02
 cg2d: Sum(rhs),rhsMax =   3.18101267549054E-10  1.90449188243171E-02
 cg2d: Sum(rhs),rhsMax =   3.18147300171212E-10  1.90450655355328E-02
 cg2d: Sum(rhs),rhsMax =   3.18201034965604E-10  1.90452127691165E-02
 cg2d: Sum(rhs),rhsMax =   3.18253159936610E-10  1.90453600627388E-02
 cg2d: Sum(rhs),rhsMax =   3.18292531220621E-10  1.90455069543971E-02
 cg2d: Sum(rhs),rhsMax =   3.18320300674024E-10  1.90456529859465E-02
 cg2d: Sum(rhs),rhsMax =   3.18352247341558E-10  1.90457977073186E-02
 cg2d: Sum(rhs),rhsMax =   3.18383680530943E-10  1.90459406776689E-02
 cg2d: Sum(rhs),rhsMax =   3.18421095046872E-10  1.90460814730012E-02
 cg2d: Sum(rhs),rhsMax =   3.18456871983841E-10  1.90462196791776E-02
 cg2d: Sum(rhs),rhsMax =   3.18500711915526E-10  1.90463549039097E-02
 cg2d: Sum(rhs),rhsMax =   3.18533990850689E-10  1.90464867686120E-02
 Computing Diagnostic #    26 "THETA   " (list#  1) Parms "SMR     MR      ", Count=     144
 Computing Diagnostic #    27 "SALT    " (list#  1) Parms "SMR     MR      ", Count=     144
 Computing Diagnostic #    30 "UVEL    " (list#  1) Parms "UUR     MR      ", Count=     144
             Vector  Mate for "UVEL    " :  Diagnostic #     31 "VVEL    " exists
 Computing Diagnostic #    32 "WVEL    " (list#  1) Parms "WM      LR      ", Count=     144
 Computing Diagnostic #    31 "VVEL    " (list#  1) Parms "VVR     MR      ", Count=     144
             Vector  Mate for "VVEL    " :  Diagnostic #     30 "UVEL    " exists
 Computing Diagnostic #   197 "BRGfwFlx" (list#  2) Parms "SM      MR      ", Count=     144
 Computing Diagnostic #   198 "BRGhtFlx" (list#  2) Parms "SM      MR      ", Count=     144
 Computing Diagnostic #   199 "BRGmltRt" (list#  2) Parms "SM      MR      ", Count=     144
 Computing Diagnostic #   201 "BRG_TauX" (list#  2) Parms "UU      MR      ", Count=    1728
 Computing Diagnostic #   202 "BRG_TauY" (list#  2) Parms "VV      MR      ", Count=    1728
 Computing Diagnostic #   203 "BRGhFacC" (list#  2) Parms "SM      MR      ", Count=    1728
 cg2d: Sum(rhs),rhsMax =   3.18567103252398E-10  1.90466149148035E-02
 cg2d: Sum(rhs),rhsMax =   3.18612053407108E-10  1.90467390046903E-02
 cg2d: Sum(rhs),rhsMax =   3.18651730002451E-10  1.90468587219908E-02
 cg2d: Sum(rhs),rhsMax =   3.18683274214138E-10  1.90469737778424E-02
 cg2d: Sum(rhs),rhsMax =   3.18718121339323E-10  1.90470839003408E-02
 cg2d: Sum(rhs),rhsMax =   3.18753148875750E-10  1.90471888481735E-02
 cg2d: Sum(rhs),rhsMax =   3.18786330666398E-10  1.90472883696574E-02
 cg2d: Sum(rhs),rhsMax =   3.18817250377634E-10  1.90473822588135E-02
 cg2d: Sum(rhs),rhsMax =   3.18857537595640E-10  1.90474703941811E-02
 cg2d: Sum(rhs),rhsMax =   3.18895493345295E-10  1.90475526789625E-02
 cg2d: Sum(rhs),rhsMax =   3.18937348753323E-10  1.90476290055843E-02
 cg2d: Sum(rhs),rhsMax =   3.18981729918733E-10  1.90476992816944E-02
 cg2d: Sum(rhs),rhsMax =   3.19021212225046E-10  1.90477634440156E-02
 cg2d: Sum(rhs),rhsMax =   3.19056767117409E-10  1.90478214718240E-02
 cg2d: Sum(rhs),rhsMax =   3.19094362044581E-10  1.90478733724360E-02
 cg2d: Sum(rhs),rhsMax =   3.19137410942361E-10  1.90479191836739E-02
 cg2d: Sum(rhs),rhsMax =   3.19189827346911E-10  1.90479589703330E-02
 cg2d: Sum(rhs),rhsMax =   3.19225174072457E-10  1.90479928233412E-02
 cg2d: Sum(rhs),rhsMax =   3.19256995839901E-10  1.90480208575098E-02
 cg2d: Sum(rhs),rhsMax =   3.19301765583369E-10  1.90480432199754E-02
 cg2d: Sum(rhs),rhsMax =   3.19343371191216E-10  1.90480600774740E-02
 cg2d: Sum(rhs),rhsMax =   3.19388154812472E-10  1.90480716220386E-02
 cg2d: Sum(rhs),rhsMax =   3.19428497541629E-10  1.90480780644852E-02
 cg2d: Sum(rhs),rhsMax =   3.19472906462615E-10  1.90480796385748E-02
 cg2d: Sum(rhs),rhsMax =   3.19503007384370E-10  1.90480765985828E-02
 cg2d: Sum(rhs),rhsMax =   3.19545459537274E-10  1.90480692141159E-02
 cg2d: Sum(rhs),rhsMax =   3.19580958918486E-10  1.90480577723389E-02
 cg2d: Sum(rhs),rhsMax =   3.19630738543353E-10  1.90480425756813E-02
 cg2d: Sum(rhs),rhsMax =   3.19655996117163E-10  1.90480239399622E-02
 cg2d: Sum(rhs),rhsMax =   3.19699461348577E-10  1.90480021926719E-02
 cg2d: Sum(rhs),rhsMax =   3.19748366672812E-10  1.90479776709836E-02
 cg2d: Sum(rhs),rhsMax =   3.19785198321654E-10  1.90479507212766E-02
 cg2d: Sum(rhs),rhsMax =   3.19826609640472E-10  1.90479216981094E-02
 cg2d: Sum(rhs),rhsMax =   3.19863219244709E-10  1.90478909578624E-02
 cg2d: Sum(rhs),rhsMax =   3.19901646839149E-10  1.90478588520095E-02
 cg2d: Sum(rhs),rhsMax =   3.19935009041039E-10  1.90478257320089E-02
 cg2d: Sum(rhs),rhsMax =   3.19975768103831E-10  1.90477920403120E-02
 cg2d: Sum(rhs),rhsMax =   3.20013307519851E-10  1.90477580094229E-02
 cg2d: Sum(rhs),rhsMax =   3.20049486912666E-10  1.90477241071147E-02
 cg2d: Sum(rhs),rhsMax =   3.20082099714014E-10  1.90476905848197E-02
 cg2d: Sum(rhs),rhsMax =   3.20123358377167E-10  1.90476578716990E-02
 cg2d: Sum(rhs),rhsMax =   3.20157886313233E-10  1.90476262100335E-02
 cg2d: Sum(rhs),rhsMax =   3.20201434811374E-10  1.90475959924384E-02
 cg2d: Sum(rhs),rhsMax =   3.20247439677956E-10  1.90475674530399E-02
 cg2d: Sum(rhs),rhsMax =   3.20282786403503E-10  1.90475409510540E-02
 cg2d: Sum(rhs),rhsMax =   3.20307960710586E-10  1.90475167007283E-02
 cg2d: Sum(rhs),rhsMax =   3.20352647187327E-10  1.90474950195926E-02
 cg2d: Sum(rhs),rhsMax =   3.20395834862985E-10  1.90474760970519E-02
 cg2d: Sum(rhs),rhsMax =   3.20435414313813E-10  1.90474602030684E-02
 cg2d: Sum(rhs),rhsMax =   3.20471024717328E-10  1.90474474985447E-02
 cg2d: Sum(rhs),rhsMax =   3.20505427753304E-10  1.90474382034907E-02
 cg2d: Sum(rhs),rhsMax =   3.20549711774198E-10  1.90474324407798E-02
 cg2d: Sum(rhs),rhsMax =   3.20589263469451E-10  1.90474303835819E-02
 cg2d: Sum(rhs),rhsMax =   3.20633616879284E-10  1.90474321113998E-02
 cg2d: Sum(rhs),rhsMax =   3.20686088794986E-10  1.90474377445415E-02
 cg2d: Sum(rhs),rhsMax =   3.20731552427844E-10  1.90474473206045E-02
 cg2d: Sum(rhs),rhsMax =   3.20760529248787E-10  1.90474609103628E-02
 cg2d: Sum(rhs),rhsMax =   3.20794890651399E-10  1.90474785060795E-02
 cg2d: Sum(rhs),rhsMax =   3.20841159195950E-10  1.90475001225013E-02
 cg2d: Sum(rhs),rhsMax =   3.20873910775177E-10  1.90475257105591E-02
 cg2d: Sum(rhs),rhsMax =   3.20908077888760E-10  1.90475552365381E-02
 cg2d: Sum(rhs),rhsMax =   3.20943993603606E-10  1.90475886065937E-02
 cg2d: Sum(rhs),rhsMax =   3.20989720914433E-10  1.90476257365145E-02
 cg2d: Sum(rhs),rhsMax =   3.21020834914698E-10  1.90476664905836E-02
 cg2d: Sum(rhs),rhsMax =   3.21057500030086E-10  1.90477107389784E-02
 cg2d: Sum(rhs),rhsMax =   3.21092138988455E-10  1.90477583071730E-02
 cg2d: Sum(rhs),rhsMax =   3.21127791025333E-10  1.90478090240157E-02
 cg2d: Sum(rhs),rhsMax =   3.21175058770606E-10  1.90478626752532E-02
 cg2d: Sum(rhs),rhsMax =   3.21205353981391E-10  1.90479190527340E-02
 cg2d: Sum(rhs),rhsMax =   3.21235815725629E-10  1.90479779111007E-02
 cg2d: Sum(rhs),rhsMax =   3.21282653259480E-10  1.90480390081823E-02
 cg2d: Sum(rhs),rhsMax =   3.21320997587193E-10  1.90481020716618E-02
 cg2d: Sum(rhs),rhsMax =   3.21365795086237E-10  1.90481668320756E-02
 cg2d: Sum(rhs),rhsMax =   3.21402252034808E-10  1.90482329952127E-02
 cg2d: Sum(rhs),rhsMax =   3.21435322803154E-10  1.90483002701300E-02
 cg2d: Sum(rhs),rhsMax =   3.21477289233485E-10  1.90483683494726E-02
 cg2d: Sum(rhs),rhsMax =   3.21514065371176E-10  1.90484369291047E-02
 cg2d: Sum(rhs),rhsMax =   3.21560583715907E-10  1.90485056683756E-02
 cg2d: Sum(rhs),rhsMax =   3.21577972584031E-10  1.90485742738940E-02
 cg2d: Sum(rhs),rhsMax =   3.21612569909036E-10  1.90486424249716E-02
 cg2d: Sum(rhs),rhsMax =   3.21661711155663E-10  1.90487098019412E-02
 cg2d: Sum(rhs),rhsMax =   3.21692492089021E-10  1.90487760814108E-02
 cg2d: Sum(rhs),rhsMax =   3.21735749153618E-10  1.90488409527774E-02
 cg2d: Sum(rhs),rhsMax =   3.21781989942593E-10  1.90489041076629E-02
 cg2d: Sum(rhs),rhsMax =   3.21821569393421E-10  1.90489652419776E-02
 cg2d: Sum(rhs),rhsMax =   3.21852641760323E-10  1.90490240656495E-02
 cg2d: Sum(rhs),rhsMax =   3.21884352505464E-10  1.90490802971683E-02
 cg2d: Sum(rhs),rhsMax =   3.21935658686989E-10  1.90491336567105E-02
 cg2d: Sum(rhs),rhsMax =   3.21972309924590E-10  1.90491838876930E-02
 cg2d: Sum(rhs),rhsMax =   3.22006352138082E-10  1.90492307439191E-02
 cg2d: Sum(rhs),rhsMax =   3.22043780531800E-10  1.90492739949633E-02
 cg2d: Sum(rhs),rhsMax =   3.22068108293827E-10  1.90493134259111E-02
 cg2d: Sum(rhs),rhsMax =   3.22107007733052E-10  1.90493488387232E-02
 cg2d: Sum(rhs),rhsMax =   3.22132945318465E-10  1.90493800528019E-02
 cg2d: Sum(rhs),rhsMax =   3.22181975542790E-10  1.90494069072721E-02
 cg2d: Sum(rhs),rhsMax =   3.22210674807977E-10  1.90494292594556E-02
 cg2d: Sum(rhs),rhsMax =   3.22244272932259E-10  1.90494469920641E-02
 cg2d: Sum(rhs),rhsMax =   3.22281965003945E-10  1.90494600038948E-02
 cg2d: Sum(rhs),rhsMax =   3.22322182833013E-10  1.90494682170572E-02
 cg2d: Sum(rhs),rhsMax =   3.22368534644291E-10  1.90494715750976E-02
 cg2d: Sum(rhs),rhsMax =   3.22405033226225E-10  1.90494700452714E-02
 cg2d: Sum(rhs),rhsMax =   3.22447096801071E-10  1.90494636153074E-02
 cg2d: Sum(rhs),rhsMax =   3.22490867343816E-10  1.90494522981614E-02
 cg2d: Sum(rhs),rhsMax =   3.22521051532298E-10  1.90494361262271E-02
 cg2d: Sum(rhs),rhsMax =   3.22566903743216E-10  1.90494151565789E-02
 cg2d: Sum(rhs),rhsMax =   3.22604470914811E-10  1.90493894650745E-02
 cg2d: Sum(rhs),rhsMax =   3.22645340999905E-10  1.90493591529678E-02
 cg2d: Sum(rhs),rhsMax =   3.22673346375701E-10  1.90493243404999E-02
 cg2d: Sum(rhs),rhsMax =   3.22714535649915E-10  1.90492851682894E-02
 cg2d: Sum(rhs),rhsMax =   3.22754017956228E-10  1.90492417969637E-02
 cg2d: Sum(rhs),rhsMax =   3.22796719909313E-10  1.90491944052459E-02
 cg2d: Sum(rhs),rhsMax =   3.22841600675083E-10  1.90491431911432E-02
 cg2d: Sum(rhs),rhsMax =   3.22884538550561E-10  1.90490883685228E-02
 cg2d: Sum(rhs),rhsMax =   3.22927212748070E-10  1.90490301702992E-02
 cg2d: Sum(rhs),rhsMax =   3.22962420695738E-10  1.90489688381435E-02
 cg2d: Sum(rhs),rhsMax =   3.23005067137672E-10  1.90489046337755E-02
 cg2d: Sum(rhs),rhsMax =   3.23035875826605E-10  1.90488378273096E-02
 cg2d: Sum(rhs),rhsMax =   3.23086946085738E-10  1.90487687003836E-02
 cg2d: Sum(rhs),rhsMax =   3.23127344326046E-10  1.90486975443917E-02
 cg2d: Sum(rhs),rhsMax =   3.23165827431637E-10  1.90486246602236E-02
 cg2d: Sum(rhs),rhsMax =   3.23198343088471E-10  1.90485503546770E-02
 cg2d: Sum(rhs),rhsMax =   3.23233606547291E-10  1.90484749384396E-02
 cg2d: Sum(rhs),rhsMax =   3.23267981827691E-10  1.90483987289509E-02
 cg2d: Sum(rhs),rhsMax =   3.23309268246419E-10  1.90483220406116E-02
 cg2d: Sum(rhs),rhsMax =   3.23346793784651E-10  1.90482452237642E-02
 cg2d: Sum(rhs),rhsMax =   3.23398932633445E-10  1.90481685274938E-02
 cg2d: Sum(rhs),rhsMax =   3.23436888383100E-10  1.90480923035062E-02
 cg2d: Sum(rhs),rhsMax =   3.23480964237177E-10  1.90480168685608E-02
 cg2d: Sum(rhs),rhsMax =   3.23520571443581E-10  1.90479425166360E-02
 cg2d: Sum(rhs),rhsMax =   3.23562496240548E-10  1.90478695478725E-02
 cg2d: Sum(rhs),rhsMax =   3.23601548335439E-10  1.90477982552634E-02
 cg2d: Sum(rhs),rhsMax =   3.23653756573172E-10  1.90477289215515E-02
 cg2d: Sum(rhs),rhsMax =   3.23690296788470E-10  1.90476618133321E-02
 cg2d: Sum(rhs),rhsMax =   3.23733845286611E-10  1.90475971750157E-02
 cg2d: Sum(rhs),rhsMax =   3.23773091670532E-10  1.90475352401115E-02
 cg2d: Sum(rhs),rhsMax =   3.23804483226553E-10  1.90474762413050E-02
 cg2d: Sum(rhs),rhsMax =   3.23826576664743E-10  1.90474203878027E-02
 cg2d: Sum(rhs),rhsMax =   3.23880144925681E-10  1.90473678904554E-02
 cg2d: Sum(rhs),rhsMax =   3.23913215694027E-10  1.90473189303724E-02
 cg2d: Sum(rhs),rhsMax =   3.23961649173476E-10  1.90472736714439E-02
 cg2d: Sum(rhs),rhsMax =   3.24005489105161E-10  1.90472322544594E-02
 cg2d: Sum(rhs),rhsMax =   3.24036006360551E-10  1.90471948048501E-02
 cg2d: Sum(rhs),rhsMax =   3.24081705915802E-10  1.90471614237352E-02
 cg2d: Sum(rhs),rhsMax =   3.24136578688794E-10  1.90471321947256E-02
 Computing Diagnostic #    26 "THETA   " (list#  1) Parms "SMR     MR      ", Count=     144
 Computing Diagnostic #    27 "SALT    " (list#  1) Parms "SMR     MR      ", Count=     144
 Computing Diagnostic #    30 "UVEL    " (list#  1) Parms "UUR     MR      ", Count=     144
             Vector  Mate for "UVEL    " :  Diagnostic #     31 "VVEL    " exists
 Computing Diagnostic #    32 "WVEL    " (list#  1) Parms "WM      LR      ", Count=     144
 Computing Diagnostic #    31 "VVEL    " (list#  1) Parms "VVR     MR      ", Count=     144
             Vector  Mate for "VVEL    " :  Diagnostic #     30 "UVEL    " exists
 Computing Diagnostic #   197 "BRGfwFlx" (list#  2) Parms "SM      MR      ", Count=     144
 Computing Diagnostic #   198 "BRGhtFlx" (list#  2) Parms "SM      MR      ", Count=     144
 Computing Diagnostic #   199 "BRGmltRt" (list#  2) Parms "SM      MR      ", Count=     144
 Computing Diagnostic #   201 "BRG_TauX" (list#  2) Parms "UU      MR      ", Count=    1728
 Computing Diagnostic #   202 "BRG_TauY" (list#  2) Parms "VV      MR      ", Count=    1728
 Computing Diagnostic #   203 "BRGhFacC" (list#  2) Parms "SM      MR      ", Count=    1728
 cg2d: Sum(rhs),rhsMax =   3.24161406051182E-10  1.90471071810945E-02
 cg2d: Sum(rhs),rhsMax =   3.24203941470813E-10  1.90470864238606E-02
 cg2d: Sum(rhs),rhsMax =   3.24252111272294E-10  1.90470699446224E-02
 cg2d: Sum(rhs),rhsMax =   3.24282295460776E-10  1.90470577435583E-02
 cg2d: Sum(rhs),rhsMax =   3.24330007295259E-10  1.90470498027617E-02
 cg2d: Sum(rhs),rhsMax =   3.24374402338456E-10  1.90470460816020E-02
 cg2d: Sum(rhs),rhsMax =   3.24401283613440E-10  1.90470465202245E-02
 cg2d: Sum(rhs),rhsMax =   3.24436796872440E-10  1.90470510406868E-02
 cg2d: Sum(rhs),rhsMax =   3.24476431834420E-10  1.90470595456152E-02
 cg2d: Sum(rhs),rhsMax =   3.24507615223624E-10  1.90470719204529E-02
 cg2d: Sum(rhs),rhsMax =   3.24541116203392E-10  1.90470880320933E-02
 cg2d: Sum(rhs),rhsMax =   3.24575533117155E-10  1.90471077333377E-02
 cg2d: Sum(rhs),rhsMax =   3.24614543578683E-10  1.90471308479350E-02
 cg2d: Sum(rhs),rhsMax =   3.24664170547884E-10  1.90471572425947E-02
 cg2d: Sum(rhs),rhsMax =   3.24707705168237E-10  1.90471866525723E-02
 cg2d: Sum(rhs),rhsMax =   3.24745022539652E-10  1.90472188836615E-02
 cg2d: Sum(rhs),rhsMax =   3.24796647910297E-10  1.90472537592920E-02
 cg2d: Sum(rhs),rhsMax =   3.24830537468124E-10  1.90472910572692E-02
 cg2d: Sum(rhs),rhsMax =   3.24865176426492E-10  1.90473305349050E-02
 cg2d: Sum(rhs),rhsMax =   3.24896873293845E-10  1.90473719524154E-02
 cg2d: Sum(rhs),rhsMax =   3.24935814366434E-10  1.90474150665522E-02
 cg2d: Sum(rhs),rhsMax =   3.24967677767241E-10  1.90474596280275E-02
 cg2d: Sum(rhs),rhsMax =   3.25010102164569E-10  1.90475053894493E-02
 cg2d: Sum(rhs),rhsMax =   3.25046087268355E-10  1.90475520952729E-02
 cg2d: Sum(rhs),rhsMax =   3.25080753982299E-10  1.90475994964945E-02
 cg2d: Sum(rhs),rhsMax =   3.25125787403735E-10  1.90476473396131E-02
 cg2d: Sum(rhs),rhsMax =   3.25164964398716E-10  1.90476953791143E-02
 cg2d: Sum(rhs),rhsMax =   3.25206653273291E-10  1.90477433757451E-02
 cg2d: Sum(rhs),rhsMax =   3.25244345344977E-10  1.90477910847586E-02
 cg2d: Sum(rhs),rhsMax =   3.25292515146458E-10  1.90478382828655E-02
 cg2d: Sum(rhs),rhsMax =   3.25344959306584E-10  1.90478847499240E-02
 cg2d: Sum(rhs),rhsMax =   3.25376364740393E-10  1.90479529766342E-02
 cg2d: Sum(rhs),rhsMax =   3.25422883085125E-10  1.90480233527635E-02
 cg2d: Sum(rhs),rhsMax =   3.25455412619746E-10  1.90480918730221E-02
 cg2d: Sum(rhs),rhsMax =   3.25506954723664E-10  1.90481583607560E-02
 cg2d: Sum(rhs),rhsMax =   3.25555971070202E-10  1.90482223055733E-02
 cg2d: Sum(rhs),rhsMax =   3.25589444294394E-10  1.90482833235429E-02
 cg2d: Sum(rhs),rhsMax =   3.25631216435696E-10  1.90483410881633E-02
 cg2d: Sum(rhs),rhsMax =   3.25670962419977E-10  1.90483952811187E-02
 cg2d: Sum(rhs),rhsMax =   3.25704824222228E-10  1.90484456038970E-02
 cg2d: Sum(rhs),rhsMax =   3.25740323603441E-10  1.90484917715114E-02
 cg2d: Sum(rhs),rhsMax =   3.25779223042666E-10  1.90485335536631E-02
 cg2d: Sum(rhs),rhsMax =   3.25824298097466E-10  1.90485707508502E-02
 cg2d: Sum(rhs),rhsMax =   3.25861809757910E-10  1.90486031840477E-02
 cg2d: Sum(rhs),rhsMax =   3.25901375330950E-10  1.90486307015904E-02
 cg2d: Sum(rhs),rhsMax =   3.25957219549089E-10  1.90486531859132E-02
 cg2d: Sum(rhs),rhsMax =   3.25995549999014E-10  1.90486705510572E-02
 cg2d: Sum(rhs),rhsMax =   3.26042456921805E-10  1.90486827448143E-02
 cg2d: Sum(rhs),rhsMax =   3.26081064927486E-10  1.90486897469035E-02
 cg2d: Sum(rhs),rhsMax =   3.26116827986667E-10  1.90486915706191E-02
 cg2d: Sum(rhs),rhsMax =   3.26156823771129E-10  1.90486882620702E-02
 cg2d: Sum(rhs),rhsMax =   3.26192295396766E-10  1.90486799417293E-02
 cg2d: Sum(rhs),rhsMax =   3.26235510827999E-10  1.90486667851137E-02
 cg2d: Sum(rhs),rhsMax =   3.26288232543881E-10  1.90486489303884E-02
 cg2d: Sum(rhs),rhsMax =   3.26332266764595E-10  1.90486265409738E-02
 cg2d: Sum(rhs),rhsMax =   3.26368668202015E-10  1.90485998085114E-02
 cg2d: Sum(rhs),rhsMax =   3.26410926065890E-10  1.90485689493341E-02
 cg2d: Sum(rhs),rhsMax =   3.26458665655949E-10  1.90485342049220E-02
 cg2d: Sum(rhs),rhsMax =   3.26489113522399E-10  1.90484958405470E-02
 cg2d: Sum(rhs),rhsMax =   3.26526958249751E-10  1.90484541384730E-02
 cg2d: Sum(rhs),rhsMax =   3.26566620967306E-10  1.90484094064241E-02
 cg2d: Sum(rhs),rhsMax =   3.26607116352129E-10  1.90483619660702E-02
 cg2d: Sum(rhs),rhsMax =   3.26647986437223E-10  1.90483121559416E-02
 cg2d: Sum(rhs),rhsMax =   3.26683971541009E-10  1.90482603289127E-02
 cg2d: Sum(rhs),rhsMax =   3.26719859500280E-10  1.90482068487013E-02
 cg2d: Sum(rhs),rhsMax =   3.26756552371243E-10  1.90481520900508E-02
 cg2d: Sum(rhs),rhsMax =   3.26796895100401E-10  1.90480964343169E-02
 cg2d: Sum(rhs),rhsMax =   3.26842469755562E-10  1.90480402709876E-02
 cg2d: Sum(rhs),rhsMax =   3.26888072166298E-10  1.90479839839112E-02
 cg2d: Sum(rhs),rhsMax =   3.26924404214779E-10  1.90479279740486E-02
 cg2d: Sum(rhs),rhsMax =   3.26965843289173E-10  1.90478726342644E-02
 cg2d: Sum(rhs),rhsMax =   3.27009544442980E-10  1.90478183486613E-02
 cg2d: Sum(rhs),rhsMax =   3.27032609326317E-10  1.90477654976729E-02
 cg2d: Sum(rhs),rhsMax =   3.27090743379443E-10  1.90477144579058E-02
 cg2d: Sum(rhs),rhsMax =   3.27142521405754E-10  1.90476655955950E-02
 cg2d: Sum(rhs),rhsMax =   3.27173677039383E-10  1.90476192640995E-02
 cg2d: Sum(rhs),rhsMax =   3.27212132389398E-10  1.90475757996796E-02
 cg2d: Sum(rhs),rhsMax =   3.27256416410293E-10  1.90475355287228E-02
 cg2d: Sum(rhs),rhsMax =   3.27297688951234E-10  1.90474987587684E-02
 cg2d: Sum(rhs),rhsMax =   3.27333271599173E-10  1.90474657777686E-02
 cg2d: Sum(rhs),rhsMax =   3.27379859332844E-10  1.90474368561904E-02
 cg2d: Sum(rhs),rhsMax =   3.27416177503537E-10  1.90474122381078E-02
 cg2d: Sum(rhs),rhsMax =   3.27457339022175E-10  1.90474919949712E-02
 cg2d: Sum(rhs),rhsMax =   3.27497792773634E-10  1.90476354373493E-02
 cg2d: Sum(rhs),rhsMax =   3.27528365540175E-10  1.90477806435630E-02
 cg2d: Sum(rhs),rhsMax =   3.27570262581567E-10  1.90479259502701E-02
 cg2d: Sum(rhs),rhsMax =   3.27608065675555E-10  1.90480722161392E-02
 cg2d: Sum(rhs),rhsMax =   3.27630866880924E-10  1.90482193520168E-02
 cg2d: Sum(rhs),rhsMax =   3.27657748155907E-10  1.90483671631260E-02
 cg2d: Sum(rhs),rhsMax =   3.27691207502312E-10  1.90485154642274E-02
 cg2d: Sum(rhs),rhsMax =   3.27732993521401E-10  1.90486640689593E-02
 cg2d: Sum(rhs),rhsMax =   3.27775737107849E-10  1.90488127839558E-02
 cg2d: Sum(rhs),rhsMax =   3.27819424383868E-10  1.90489614114218E-02
 cg2d: Sum(rhs),rhsMax =   3.27861834903409E-10  1.90491097464257E-02
 cg2d: Sum(rhs),rhsMax =   3.27891630513832E-10  1.90492575793836E-02
 cg2d: Sum(rhs),rhsMax =   3.27923341258973E-10  1.90494046939374E-02
 cg2d: Sum(rhs),rhsMax =   3.27966334645602E-10  1.90495508649981E-02
 cg2d: Sum(rhs),rhsMax =   3.28005275718191E-10  1.90496958627778E-02
 cg2d: Sum(rhs),rhsMax =   3.28040622443737E-10  1.90498394500271E-02
 cg2d: Sum(rhs),rhsMax =   3.28079410860660E-10  1.90499813816046E-02
 cg2d: Sum(rhs),rhsMax =   3.28113022862730E-10  1.90501214043666E-02
 cg2d: Sum(rhs),rhsMax =   3.28148730410760E-10  1.90502592693332E-02
 cg2d: Sum(rhs),rhsMax =   3.28184424081002E-10  1.90503946804051E-02
 cg2d: Sum(rhs),rhsMax =   3.28222518608534E-10  1.90505273877334E-02
 cg2d: Sum(rhs),rhsMax =   3.28268731641934E-10  1.90506571205269E-02
 cg2d: Sum(rhs),rhsMax =   3.28301247298768E-10  1.90507835835036E-02
 cg2d: Sum(rhs),rhsMax =   3.28341367983320E-10  1.90509064774929E-02
 cg2d: Sum(rhs),rhsMax =   3.28377366964894E-10  1.90510255093026E-02
 cg2d: Sum(rhs),rhsMax =   3.28422483653057E-10  1.90511403807208E-02
 cg2d: Sum(rhs),rhsMax =   3.28466073784561E-10  1.90512507891851E-02
 cg2d: Sum(rhs),rhsMax =   3.28528329540667E-10  1.90513564221530E-02
 cg2d: Sum(rhs),rhsMax =   3.28561372553438E-10  1.90514569687276E-02
 cg2d: Sum(rhs),rhsMax =   3.28590432641107E-10  1.90515521149063E-02
 cg2d: Sum(rhs),rhsMax =   3.28628360635186E-10  1.90516415446077E-02
 cg2d: Sum(rhs),rhsMax =   3.28671506677480E-10  1.90517249420428E-02
 cg2d: Sum(rhs),rhsMax =   3.28712460029301E-10  1.90518019908166E-02
 cg2d: Sum(rhs),rhsMax =   3.28758520407035E-10  1.90518723724748E-02
 cg2d: Sum(rhs),rhsMax =   3.28800181526034E-10  1.90519357823111E-02
 cg2d: Sum(rhs),rhsMax =   3.28835778051761E-10  1.90519901117970E-02
 cg2d: Sum(rhs),rhsMax =   3.28886570755138E-10  1.90520334247351E-02
 cg2d: Sum(rhs),rhsMax =   3.28926663684115E-10  1.90520669324820E-02
 cg2d: Sum(rhs),rhsMax =   3.28980148678326E-10  1.90520888806804E-02
 cg2d: Sum(rhs),rhsMax =   3.29023128187167E-10  1.90521004757420E-02
 cg2d: Sum(rhs),rhsMax =   3.29076557670227E-10  1.90521000113886E-02
 cg2d: Sum(rhs),rhsMax =   3.29117136321777E-10  1.90520887407514E-02
 cg2d: Sum(rhs),rhsMax =   3.29164154266870E-10  1.90520650093431E-02
 cg2d: Sum(rhs),rhsMax =   3.29212226923836E-10  1.90520301255178E-02
 cg2d: Sum(rhs),rhsMax =   3.29253749264957E-10  1.90519824882292E-02
 cg2d: Sum(rhs),rhsMax =   3.29303528889824E-10  1.90519234616705E-02
 cg2d: Sum(rhs),rhsMax =   3.29332200399435E-10  1.90518515011641E-02
 cg2d: Sum(rhs),rhsMax =   3.29365590356900E-10  1.90517680302440E-02
 cg2d: Sum(rhs),rhsMax =   3.29414870381406E-10  1.90516699557699E-02
 cg2d: Sum(rhs),rhsMax =   3.29460722592323E-10  1.90515571558530E-02
 cg2d: Sum(rhs),rhsMax =   3.29496027684506E-10  1.90514297956828E-02
 cg2d: Sum(rhs),rhsMax =   3.29548943689417E-10  1.90512880640268E-02
 cg2d: Sum(rhs),rhsMax =   3.29597515946745E-10  1.90511321968337E-02
 cg2d: Sum(rhs),rhsMax =   3.29634555762404E-10  1.90509622681055E-02
 cg2d: Sum(rhs),rhsMax =   3.29678853661086E-10  1.90507786850147E-02
 cg2d: Sum(rhs),rhsMax =   3.29719640479453E-10  1.90505818350279E-02
 cg2d: Sum(rhs),rhsMax =   3.29769753171227E-10  1.90503720468686E-02
 cg2d: Sum(rhs),rhsMax =   3.29809249355328E-10  1.90501496957923E-02
 cg2d: Sum(rhs),rhsMax =   3.29859486947193E-10  1.90499152206064E-02
 cg2d: Sum(rhs),rhsMax =   3.29909183305332E-10  1.90496690990552E-02
 cg2d: Sum(rhs),rhsMax =   3.29963431577873E-10  1.90494118368083E-02
(PID.TID 0000.0001)      cg2d_init_res =   2.97033228901153E-04
(PID.TID 0000.0001)      cg2d_iters(min,last) =      -1      40
(PID.TID 0000.0001)      cg2d_last_res =   5.27357237160633E-14
(PID.TID 0000.0001) // =======================================================
(PID.TID 0000.0001) // Begin MONITOR dynamic field statistics
(PID.TID 0000.0001) // =======================================================
(PID.TID 0000.0001) %MON time_tsnumber                =                  9504
(PID.TID 0000.0001) %MON time_secondsf                =   2.3760000000000E+05
(PID.TID 0000.0001) %MON dynstat_eta_max              =   5.6360291720354E-03
(PID.TID 0000.0001) %MON dynstat_eta_min              =  -2.7261128768172E-03
(PID.TID 0000.0001) %MON dynstat_eta_mean             =  -4.2096563502743E-14
(PID.TID 0000.0001) %MON dynstat_eta_sd               =   2.8425351993198E-03
(PID.TID 0000.0001) %MON dynstat_eta_del2             =   2.4266172215792E-05
(PID.TID 0000.0001) %MON dynstat_uvel_max             =   4.9220965632028E-02
(PID.TID 0000.0001) %MON dynstat_uvel_min             =  -3.1372901008412E-02
(PID.TID 0000.0001) %MON dynstat_uvel_mean            =   2.0117928078134E-09
(PID.TID 0000.0001) %MON dynstat_uvel_sd              =   5.9523996813717E-03
(PID.TID 0000.0001) %MON dynstat_uvel_del2            =   1.0569530169545E-04
(PID.TID 0000.0001) %MON dynstat_vvel_max             =   2.0590572336312E-02
(PID.TID 0000.0001) %MON dynstat_vvel_min             =  -3.2550770638690E-02
(PID.TID 0000.0001) %MON dynstat_vvel_mean            =  -8.0919746104568E-03
(PID.TID 0000.0001) %MON dynstat_vvel_sd              =   1.1331876907540E-02
(PID.TID 0000.0001) %MON dynstat_vvel_del2            =   9.3651044821334E-05
(PID.TID 0000.0001) %MON dynstat_wvel_max             =   1.3347820225582E-03
(PID.TID 0000.0001) %MON dynstat_wvel_min             =  -1.1049103428723E-03
(PID.TID 0000.0001) %MON dynstat_wvel_mean            =  -1.6135900647502E-20
(PID.TID 0000.0001) %MON dynstat_wvel_sd              =   1.2682277114509E-04
(PID.TID 0000.0001) %MON dynstat_wvel_del2            =   6.2076565457256E-06
(PID.TID 0000.0001) %MON dynstat_theta_max            =   2.6931451612903E+00
(PID.TID 0000.0001) %MON dynstat_theta_min            =  -2.4980501586147E-01
(PID.TID 0000.0001) %MON dynstat_theta_mean           =   2.2352226257528E+00
(PID.TID 0000.0001) %MON dynstat_theta_sd             =   4.8361954165052E-01
(PID.TID 0000.0001) %MON dynstat_theta_del2           =   1.4483018112767E-03
(PID.TID 0000.0001) %MON dynstat_salt_max             =   3.4699999999999E+01
(PID.TID 0000.0001) %MON dynstat_salt_min             =   3.3022385901109E+01
(PID.TID 0000.0001) %MON dynstat_salt_mean            =   3.4364697617396E+01
(PID.TID 0000.0001) %MON dynstat_salt_sd              =   3.2149930988877E-01
(PID.TID 0000.0001) %MON dynstat_salt_del2            =   2.0067582907649E-04
(PID.TID 0000.0001) %MON advcfl_uvel_max              =   2.4610482816014E-03
(PID.TID 0000.0001) %MON advcfl_vvel_max              =   1.6275385319345E-03
(PID.TID 0000.0001) %MON advcfl_wvel_max              =   6.5920326207376E-04
(PID.TID 0000.0001) %MON advcfl_W_hf_max              =   1.9098559060862E-03
(PID.TID 0000.0001) %MON pe_b_mean                    =   6.7414974561084E-08
(PID.TID 0000.0001) %MON ke_max                       =   1.1420831645620E-03
(PID.TID 0000.0001) %MON ke_mean                      =   1.0470482331932E-04
(PID.TID 0000.0001) %MON ke_vol                       =   3.2921708585402E+10
(PID.TID 0000.0001) // =======================================================
(PID.TID 0000.0001) // End MONITOR dynamic field statistics
(PID.TID 0000.0001) // =======================================================
(PID.TID 0000.0001) // =======================================================
(PID.TID 0000.0001) // Begin OBCS MONITOR field statistics
(PID.TID 0000.0001) // =======================================================
(PID.TID 0000.0001) %MON obc_E_uVel_max               =   0.0000000000000E+00
(PID.TID 0000.0001) %MON obc_E_uVel_min               =   0.0000000000000E+00
(PID.TID 0000.0001) %MON obc_E_uVel_mean              =   0.0000000000000E+00
(PID.TID 0000.0001) %MON obc_E_uVel_sd                =   0.0000000000000E+00
(PID.TID 0000.0001) %MON obc_E_uVel_Int               =   0.0000000000000E+00
(PID.TID 0000.0001) %MON obc_N_vVel_max               =  -3.6115799844846E-05
(PID.TID 0000.0001) %MON obc_N_vVel_min               =  -3.0000000000000E-02
(PID.TID 0000.0001) %MON obc_N_vVel_mean              =  -1.3225455303334E-02
(PID.TID 0000.0001) %MON obc_N_vVel_sd                =   1.1350864292742E-02
(PID.TID 0000.0001) %MON obc_N_vVel_Int               =  -5.9514548865004E+04
(PID.TID 0000.0001) %MON obc_S_vVel_max               =  -3.6115799844846E-05
(PID.TID 0000.0001) %MON obc_S_vVel_min               =  -3.0000000000000E-02
(PID.TID 0000.0001) %MON obc_S_vVel_mean              =  -1.3225455303334E-02
(PID.TID 0000.0001) %MON obc_S_vVel_sd                =   1.1350864292742E-02
(PID.TID 0000.0001) %MON obc_S_vVel_Int               =  -5.9514548865004E+04
(PID.TID 0000.0001) // =======================================================
(PID.TID 0000.0001) // End OBCS MONITOR field statistics
(PID.TID 0000.0001) // =======================================================
 Computing Diagnostic #    26 "THETA   " (list#  1) Parms "SMR     MR      ", Count=     144
 Computing Diagnostic #    27 "SALT    " (list#  1) Parms "SMR     MR      ", Count=     144
 Computing Diagnostic #    30 "UVEL    " (list#  1) Parms "UUR     MR      ", Count=     144
             Vector  Mate for "UVEL    " :  Diagnostic #     31 "VVEL    " exists
 Computing Diagnostic #    32 "WVEL    " (list#  1) Parms "WM      LR      ", Count=     144
 Computing Diagnostic #    31 "VVEL    " (list#  1) Parms "VVR     MR      ", Count=     144
             Vector  Mate for "VVEL    " :  Diagnostic #     30 "UVEL    " exists
 Computing Diagnostic #   197 "BRGfwFlx" (list#  2) Parms "SM      MR      ", Count=     144
 Computing Diagnostic #   198 "BRGhtFlx" (list#  2) Parms "SM      MR      ", Count=     144
 Computing Diagnostic #   199 "BRGmltRt" (list#  2) Parms "SM      MR      ", Count=     144
 Computing Diagnostic #   201 "BRG_TauX" (list#  2) Parms "UU      MR      ", Count=    1728
 Computing Diagnostic #   202 "BRG_TauY" (list#  2) Parms "VV      MR      ", Count=    1728
 Computing Diagnostic #   203 "BRGhFacC" (list#  2) Parms "SM      MR      ", Count=    1728
 cg2d: Sum(rhs),rhsMax =   3.30014265914613E-10  1.90491439631399E-02
 cg2d: Sum(rhs),rhsMax =   3.30067723153249E-10  1.90488660328935E-02
 cg2d: Sum(rhs),rhsMax =   3.30098559597758E-10  1.90485786204218E-02
 cg2d: Sum(rhs),rhsMax =   3.30145494276124E-10  1.90482823224851E-02
 cg2d: Sum(rhs),rhsMax =   3.30188737462933E-10  1.90479777578950E-02
 cg2d: Sum(rhs),rhsMax =   3.30239710577551E-10  1.90476655618487E-02
 cg2d: Sum(rhs),rhsMax =   3.30279831262104E-10  1.90473463857649E-02
 cg2d: Sum(rhs),rhsMax =   3.30327210029679E-10  1.90470208922882E-02
 cg2d: Sum(rhs),rhsMax =   3.30370827916759E-10  1.90466897542160E-02
 cg2d: Sum(rhs),rhsMax =   3.30420607541626E-10  1.90463536542183E-02
 cg2d: Sum(rhs),rhsMax =   3.30468929998773E-10  1.90460132763621E-02
 cg2d: Sum(rhs),rhsMax =   3.30514518531722E-10  1.90456693108384E-02
 cg2d: Sum(rhs),rhsMax =   3.30569044360018E-10  1.90453224458833E-02
 cg2d: Sum(rhs),rhsMax =   3.30606514387100E-10  1.90449733634715E-02
 cg2d: Sum(rhs),rhsMax =   3.30655461344698E-10  1.90446227397373E-02
 cg2d: Sum(rhs),rhsMax =   3.30704602591325E-10  1.90442712486038E-02
 cg2d: Sum(rhs),rhsMax =   3.30747235155471E-10  1.90439195628980E-02
 cg2d: Sum(rhs),rhsMax =   3.30803467951668E-10  1.90435683372766E-02
 cg2d: Sum(rhs),rhsMax =   3.30845739693331E-10  1.90432182213848E-02
 cg2d: Sum(rhs),rhsMax =   3.30882460319870E-10  1.90428698337557E-02
 cg2d: Sum(rhs),rhsMax =   3.30916044566365E-10  1.90425237495812E-02
 cg2d: Sum(rhs),rhsMax =   3.30964505801390E-10  1.90421805604887E-02
 cg2d: Sum(rhs),rhsMax =   3.31009830656370E-10  1.90418408391442E-02
 cg2d: Sum(rhs),rhsMax =   3.31053323643360E-10  1.90415051270595E-02
 cg2d: Sum(rhs),rhsMax =   3.31103977568858E-10  1.90411739410364E-02
 cg2d: Sum(rhs),rhsMax =   3.31160973643385E-10  1.90408477724128E-02
 cg2d: Sum(rhs),rhsMax =   3.31190630475930E-10  1.90405270878317E-02
 cg2d: Sum(rhs),rhsMax =   3.31239730089194E-10  1.90402123222751E-02
 cg2d: Sum(rhs),rhsMax =   3.31278518506117E-10  1.90399038850669E-02
 cg2d: Sum(rhs),rhsMax =   3.31330990421819E-10  1.90396021539202E-02
 cg2d: Sum(rhs),rhsMax =   3.31385696661357E-10  1.90393074737783E-02
 cg2d: Sum(rhs),rhsMax =   3.31422889132682E-10  1.90390201614743E-02
 cg2d: Sum(rhs),rhsMax =   3.31479774184906E-10  1.90387405025978E-02
 cg2d: Sum(rhs),rhsMax =   3.31533314690269E-10  1.90384687484474E-02
 cg2d: Sum(rhs),rhsMax =   3.31584357193826E-10  1.90382051206907E-02
 cg2d: Sum(rhs),rhsMax =   3.31627447724969E-10  1.90379498097974E-02
 cg2d: Sum(rhs),rhsMax =   3.31662905472818E-10  1.90377029733249E-02
 cg2d: Sum(rhs),rhsMax =   3.31713240209197E-10  1.90374647379563E-02
 cg2d: Sum(rhs),rhsMax =   3.31748920001651E-10  1.90372352009017E-02
 cg2d: Sum(rhs),rhsMax =   3.31791150109950E-10  1.90370144255198E-02
 cg2d: Sum(rhs),rhsMax =   3.31830354860507E-10  1.90368024497933E-02
 cg2d: Sum(rhs),rhsMax =   3.31886532145553E-10  1.90365992778214E-02
 cg2d: Sum(rhs),rhsMax =   3.31924987495569E-10  1.90364048882083E-02
 cg2d: Sum(rhs),rhsMax =   3.31960986477142E-10  1.90362192328041E-02
 cg2d: Sum(rhs),rhsMax =   3.32002328407022E-10  1.90360422335520E-02
 cg2d: Sum(rhs),rhsMax =   3.32045252404711E-10  1.90358737911536E-02
 cg2d: Sum(rhs),rhsMax =   3.32083124887639E-10  1.90357137807899E-02
 cg2d: Sum(rhs),rhsMax =   3.32132044089661E-10  1.90355620539468E-02
 cg2d: Sum(rhs),rhsMax =   3.32162325422658E-10  1.90354184415523E-02
 cg2d: Sum(rhs),rhsMax =   3.32216032461474E-10  1.90352827540404E-02
 cg2d: Sum(rhs),rhsMax =   3.32259053603678E-10  1.90351547850982E-02
 cg2d: Sum(rhs),rhsMax =   3.32301838823490E-10  1.90350343113796E-02
 cg2d: Sum(rhs),rhsMax =   3.32349300857793E-10  1.90349210910419E-02
 cg2d: Sum(rhs),rhsMax =   3.32390823198914E-10  1.90348148702292E-02
 cg2d: Sum(rhs),rhsMax =   3.32434399452630E-10  1.90347153855843E-02
 cg2d: Sum(rhs),rhsMax =   3.32478655717949E-10  1.90346223590319E-02
 cg2d: Sum(rhs),rhsMax =   3.32516153500606E-10  1.90345355105915E-02
 cg2d: Sum(rhs),rhsMax =   3.32557759108454E-10  1.90344545439325E-02
 cg2d: Sum(rhs),rhsMax =   3.32591801321946E-10  1.90343791619329E-02
 cg2d: Sum(rhs),rhsMax =   3.32625454957380E-10  1.90343090630872E-02
 cg2d: Sum(rhs),rhsMax =   3.32661703739134E-10  1.90342439453504E-02
 cg2d: Sum(rhs),rhsMax =   3.32705113459397E-10  1.90341835009551E-02
 cg2d: Sum(rhs),rhsMax =   3.32751715070856E-10  1.90341274254188E-02
 cg2d: Sum(rhs),rhsMax =   3.32794694579697E-10  1.90340753910977E-02
 cg2d: Sum(rhs),rhsMax =   3.32840810468582E-10  1.90340270942164E-02
 cg2d: Sum(rhs),rhsMax =   3.32884803055933E-10  1.90339822441308E-02
 cg2d: Sum(rhs),rhsMax =   3.32924604551366E-10  1.90339405206965E-02
 cg2d: Sum(rhs),rhsMax =   3.32966820781877E-10  1.90339016438160E-02
 cg2d: Sum(rhs),rhsMax =   3.33004179786656E-10  1.90338653445168E-02
 cg2d: Sum(rhs),rhsMax =   3.33057276202808E-10  1.90338313629106E-02
 cg2d: Sum(rhs),rhsMax =   3.33103739036389E-10  1.90337994507982E-02
 cg2d: Sum(rhs),rhsMax =   3.33152075371324E-10  1.90337693744612E-02
 cg2d: Sum(rhs),rhsMax =   3.33205518732171E-10  1.90337409075178E-02
 cg2d: Sum(rhs),rhsMax =   3.33264860152838E-10  1.90337138422256E-02
 cg2d: Sum(rhs),rhsMax =   3.33307742517164E-10  1.90336879819842E-02
 cg2d: Sum(rhs),rhsMax =   3.33345503977789E-10  1.90336631471417E-02
 cg2d: Sum(rhs),rhsMax =   3.33389080231505E-10  1.90336391709024E-02
 cg2d: Sum(rhs),rhsMax =   3.33428437637728E-10  1.90336159041829E-02
 cg2d: Sum(rhs),rhsMax =   3.33467836677315E-10  1.90335932129386E-02
 cg2d: Sum(rhs),rhsMax =   3.33509692085343E-10  1.90335709769742E-02
 cg2d: Sum(rhs),rhsMax =   3.33547134356849E-10  1.90335490962853E-02
 cg2d: Sum(rhs),rhsMax =   3.33584090905781E-10  1.90335274837212E-02
 cg2d: Sum(rhs),rhsMax =   3.33621699710740E-10  1.90335060681266E-02
 cg2d: Sum(rhs),rhsMax =   3.33675365116193E-10  1.90334847942075E-02
 cg2d: Sum(rhs),rhsMax =   3.33719094025575E-10  1.90334636190583E-02
 cg2d: Sum(rhs),rhsMax =   3.33761310256087E-10  1.90334425303054E-02
 cg2d: Sum(rhs),rhsMax =   3.33794061835313E-10  1.90334215099179E-02
 cg2d: Sum(rhs),rhsMax =   3.33833502508263E-10  1.90334005583373E-02
 cg2d: Sum(rhs),rhsMax =   3.33882602121527E-10  1.90333796583192E-02
 cg2d: Sum(rhs),rhsMax =   3.33911259753350E-10  1.90333587900019E-02
 cg2d: Sum(rhs),rhsMax =   3.33951560849144E-10  1.90333379975635E-02
 cg2d: Sum(rhs),rhsMax =   3.33999689017261E-10  1.90333173405221E-02
 cg2d: Sum(rhs),rhsMax =   3.34027819293148E-10  1.90332968814686E-02
 cg2d: Sum(rhs),rhsMax =   3.34078167907315E-10  1.90332766987643E-02
 cg2d: Sum(rhs),rhsMax =   3.34125241363559E-10  1.90332568781590E-02
 cg2d: Sum(rhs),rhsMax =   3.34164806936599E-10  1.90332375109276E-02
 cg2d: Sum(rhs),rhsMax =   3.34203831275914E-10  1.90332186989607E-02
 cg2d: Sum(rhs),rhsMax =   3.34248267952475E-10  1.90332005456902E-02
 cg2d: Sum(rhs),rhsMax =   3.34295799375717E-10  1.90331831612528E-02
 cg2d: Sum(rhs),rhsMax =   3.34328953410790E-10  1.90331666570067E-02
 cg2d: Sum(rhs),rhsMax =   3.34363259302251E-10  1.90331511511006E-02
 cg2d: Sum(rhs),rhsMax =   3.34407099233935E-10  1.90331367582681E-02
 cg2d: Sum(rhs),rhsMax =   3.34449495875688E-10  1.90331235947159E-02
 cg2d: Sum(rhs),rhsMax =   3.34490934950082E-10  1.90331117771202E-02
 cg2d: Sum(rhs),rhsMax =   3.34536620627546E-10  1.90331014196149E-02
 cg2d: Sum(rhs),rhsMax =   3.34584387973180E-10  1.90330926310922E-02
 cg2d: Sum(rhs),rhsMax =   3.34629060572134E-10  1.90330855178992E-02
 cg2d: Sum(rhs),rhsMax =   3.34675578916865E-10  1.90330801851699E-02
 cg2d: Sum(rhs),rhsMax =   3.34722818906563E-10  1.90330767233842E-02
 cg2d: Sum(rhs),rhsMax =   3.34756403153058E-10  1.90330752126354E-02
 cg2d: Sum(rhs),rhsMax =   3.34795982603886E-10  1.90330757330119E-02
 cg2d: Sum(rhs),rhsMax =   3.34845262628392E-10  1.90330783396892E-02
 cg2d: Sum(rhs),rhsMax =   3.34882302444051E-10  1.90330830881552E-02
 cg2d: Sum(rhs),rhsMax =   3.34926725242823E-10  1.90330900226868E-02
 cg2d: Sum(rhs),rhsMax =   3.34978891847193E-10  1.90330991755359E-02
 cg2d: Sum(rhs),rhsMax =   3.35023717101812E-10  1.90331105670622E-02
 cg2d: Sum(rhs),rhsMax =   3.35061908773859E-10  1.90331242073563E-02
 cg2d: Sum(rhs),rhsMax =   3.35087346758911E-10  1.90331400934105E-02
 cg2d: Sum(rhs),rhsMax =   3.35117586458544E-10  1.90331582084326E-02
 cg2d: Sum(rhs),rhsMax =   3.35166075449145E-10  1.90331785218940E-02
 cg2d: Sum(rhs),rhsMax =   3.35209748847376E-10  1.90332009903906E-02
 cg2d: Sum(rhs),rhsMax =   3.35250910366014E-10  1.90332255596067E-02
 cg2d: Sum(rhs),rhsMax =   3.35294084163884E-10  1.90332521564468E-02
 cg2d: Sum(rhs),rhsMax =   3.35342711932363E-10  1.90332806960873E-02
 cg2d: Sum(rhs),rhsMax =   3.35368469106534E-10  1.90333110802480E-02
 cg2d: Sum(rhs),rhsMax =   3.35405550555556E-10  1.90333431949330E-02
 cg2d: Sum(rhs),rhsMax =   3.35451888489047E-10  1.90333769143698E-02
 cg2d: Sum(rhs),rhsMax =   3.35495631276217E-10  1.90334120966812E-02
 cg2d: Sum(rhs),rhsMax =   3.35546451735169E-10  1.90334485879040E-02
 cg2d: Sum(rhs),rhsMax =   3.35581493149384E-10  1.90334862191994E-02
 cg2d: Sum(rhs),rhsMax =   3.35629982139984E-10  1.90335248103800E-02
 cg2d: Sum(rhs),rhsMax =   3.35670879980654E-10  1.90335641690772E-02
 cg2d: Sum(rhs),rhsMax =   3.35716010546605E-10  1.90336040867956E-02
 cg2d: Sum(rhs),rhsMax =   3.35751260127637E-10  1.90336443436006E-02
 cg2d: Sum(rhs),rhsMax =   3.35798194806003E-10  1.90336847150854E-02
 cg2d: Sum(rhs),rhsMax =   3.35834651754574E-10  1.90337249631798E-02
 cg2d: Sum(rhs),rhsMax =   3.35876437773663E-10  1.90337648362025E-02
 cg2d: Sum(rhs),rhsMax =   3.35908328930046E-10  1.90338040789378E-02
 cg2d: Sum(rhs),rhsMax =   3.35944549956224E-10  1.90338424212287E-02
 cg2d: Sum(rhs),rhsMax =   3.35987695998519E-10  1.90338795916295E-02
 cg2d: Sum(rhs),rhsMax =   3.36034769454763E-10  1.90339153078392E-02
 cg2d: Sum(rhs),rhsMax =   3.36079386542565E-10  1.90339492859338E-02
 cg2d: Sum(rhs),rhsMax =   3.36119021504544E-10  1.90339812292593E-02
 cg2d: Sum(rhs),rhsMax =   3.36170688508552E-10  1.90340108445507E-02
 Computing Diagnostic #    26 "THETA   " (list#  1) Parms "SMR     MR      ", Count=     144
 Computing Diagnostic #    27 "SALT    " (list#  1) Parms "SMR     MR      ", Count=     144
 Computing Diagnostic #    30 "UVEL    " (list#  1) Parms "UUR     MR      ", Count=     144
             Vector  Mate for "UVEL    " :  Diagnostic #     31 "VVEL    " exists
 Computing Diagnostic #    32 "WVEL    " (list#  1) Parms "WM      LR      ", Count=     144
 Computing Diagnostic #    31 "VVEL    " (list#  1) Parms "VVR     MR      ", Count=     144
             Vector  Mate for "VVEL    " :  Diagnostic #     30 "UVEL    " exists
 Computing Diagnostic #   197 "BRGfwFlx" (list#  2) Parms "SM      MR      ", Count=     144
 Computing Diagnostic #   198 "BRGhtFlx" (list#  2) Parms "SM      MR      ", Count=     144
 Computing Diagnostic #   199 "BRGmltRt" (list#  2) Parms "SM      MR      ", Count=     144
 Computing Diagnostic #   201 "BRG_TauX" (list#  2) Parms "UU      MR      ", Count=    1728
 Computing Diagnostic #   202 "BRG_TauY" (list#  2) Parms "VV      MR      ", Count=    1728
 Computing Diagnostic #   203 "BRGhFacC" (list#  2) Parms "SM      MR      ", Count=    1728
 cg2d: Sum(rhs),rhsMax =   3.36217456653465E-10  1.90340378332716E-02
 cg2d: Sum(rhs),rhsMax =   3.36249750265694E-10  1.90340618953085E-02
 cg2d: Sum(rhs),rhsMax =   3.36303027093088E-10  1.90340827280874E-02
 cg2d: Sum(rhs),rhsMax =   3.36342606543916E-10  1.90341000293444E-02
 cg2d: Sum(rhs),rhsMax =   3.36389999189279E-10  1.90341134980263E-02
 cg2d: Sum(rhs),rhsMax =   3.36433089720423E-10  1.90341228349898E-02
 cg2d: Sum(rhs),rhsMax =   3.36459887728680E-10  1.90341277445582E-02
 cg2d: Sum(rhs),rhsMax =   3.36516647880813E-10  1.90341279375930E-02
 cg2d: Sum(rhs),rhsMax =   3.36539449086182E-10  1.90341231257859E-02
 cg2d: Sum(rhs),rhsMax =   3.36575906034753E-10  1.90341130320280E-02
 cg2d: Sum(rhs),rhsMax =   3.36628419583818E-10  1.90340973818588E-02
 cg2d: Sum(rhs),rhsMax =   3.36667416167558E-10  1.90340759126335E-02
 cg2d: Sum(rhs),rhsMax =   3.36709715664796E-10  1.90340483699129E-02
 cg2d: Sum(rhs),rhsMax =   3.36758509966728E-10  1.90340145092368E-02
 cg2d: Sum(rhs),rhsMax =   3.36809011236561E-10  1.90339740994309E-02
 cg2d: Sum(rhs),rhsMax =   3.36849353965718E-10  1.90339268976581E-02
 cg2d: Sum(rhs),rhsMax =   3.36886504803680E-10  1.90338726971478E-02
 cg2d: Sum(rhs),rhsMax =   3.36923891564034E-10  1.90338113097153E-02
 cg2d: Sum(rhs),rhsMax =   3.36973116077388E-10  1.90337425586296E-02
 cg2d: Sum(rhs),rhsMax =   3.36997679761808E-10  1.90336662828349E-02
 cg2d: Sum(rhs),rhsMax =   3.37041214382161E-10  1.90335823378025E-02
 cg2d: Sum(rhs),rhsMax =   3.37089176016825E-10  1.90334906020381E-02
 cg2d: Sum(rhs),rhsMax =   3.37118735704856E-10  1.90333909686549E-02
 cg2d: Sum(rhs),rhsMax =   3.37156580432207E-10  1.90332833492334E-02
 cg2d: Sum(rhs),rhsMax =   3.37191552457483E-10  1.90331676742192E-02
 cg2d: Sum(rhs),rhsMax =   3.37231673142036E-10  1.90330438946399E-02
 cg2d: Sum(rhs),rhsMax =   3.37281924611688E-10  1.90329119829817E-02
 cg2d: Sum(rhs),rhsMax =   3.37319450149920E-10  1.90327719346535E-02
 cg2d: Sum(rhs),rhsMax =   3.37365732572259E-10  1.90326237647550E-02
 cg2d: Sum(rhs),rhsMax =   3.37401398486925E-10  1.90324675092363E-02
 cg2d: Sum(rhs),rhsMax =   3.37446820486420E-10  1.90323032269000E-02
 cg2d: Sum(rhs),rhsMax =   3.37507619074806E-10  1.90321309960492E-02
 cg2d: Sum(rhs),rhsMax =   3.37553207607755E-10  1.90319509224194E-02
 cg2d: Sum(rhs),rhsMax =   3.37596936517137E-10  1.90317631150068E-02
 cg2d: Sum(rhs),rhsMax =   3.37638403347107E-10  1.90315677279229E-02
 cg2d: Sum(rhs),rhsMax =   3.37686240081680E-10  1.90313649247958E-02
 cg2d: Sum(rhs),rhsMax =   3.37720199028446E-10  1.90311548890608E-02
 cg2d: Sum(rhs),rhsMax =   3.37759820112637E-10  1.90309378295085E-02
 cg2d: Sum(rhs),rhsMax =   3.37803784944413E-10  1.90307139746832E-02
 cg2d: Sum(rhs),rhsMax =   3.37843794606663E-10  1.90304835755758E-02
 cg2d: Sum(rhs),rhsMax =   3.37901776004124E-10  1.90302469028794E-02
 cg2d: Sum(rhs),rhsMax =   3.37962283158966E-10  1.90300042466016E-02
 cg2d: Sum(rhs),rhsMax =   3.38013173006857E-10  1.90297559126399E-02
 cg2d: Sum(rhs),rhsMax =   3.38060010540708E-10  1.90295022359242E-02
 cg2d: Sum(rhs),rhsMax =   3.38112871034468E-10  1.90292435436502E-02
 cg2d: Sum(rhs),rhsMax =   3.38155531354190E-10  1.90289802086010E-02
 cg2d: Sum(rhs),rhsMax =   3.38198399840728E-10  1.90287126058156E-02
 cg2d: Sum(rhs),rhsMax =   3.38258435150784E-10  1.90284411239756E-02
 cg2d: Sum(rhs),rhsMax =   3.38307729053078E-10  1.90281661656358E-02
 cg2d: Sum(rhs),rhsMax =   3.38347863615418E-10  1.90278881485186E-02
 cg2d: Sum(rhs),rhsMax =   3.38393299492701E-10  1.90276075022377E-02
 cg2d: Sum(rhs),rhsMax =   3.38442621150570E-10  1.90273246614225E-02
 cg2d: Sum(rhs),rhsMax =   3.38474276384559E-10  1.90270400719232E-02
 cg2d: Sum(rhs),rhsMax =   3.38522071485770E-10  1.90267541902807E-02
 cg2d: Sum(rhs),rhsMax =   3.38567382462962E-10  1.90264674760080E-02
 cg2d: Sum(rhs),rhsMax =   3.38610237071713E-10  1.90261803914892E-02
 cg2d: Sum(rhs),rhsMax =   3.38661598764389E-10  1.90258934031521E-02
 cg2d: Sum(rhs),rhsMax =   3.38724492898734E-10  1.90256069796867E-02
 cg2d: Sum(rhs),rhsMax =   3.38766070751007E-10  1.90253215873478E-02
 cg2d: Sum(rhs),rhsMax =   3.38811950717499E-10  1.90250376915627E-02
 cg2d: Sum(rhs),rhsMax =   3.38861869120244E-10  1.90247557556898E-02
 cg2d: Sum(rhs),rhsMax =   3.38918892950346E-10  1.90244762344948E-02
 cg2d: Sum(rhs),rhsMax =   3.38962011237065E-10  1.90241979273686E-02
 cg2d: Sum(rhs),rhsMax =   3.39017439121569E-10  1.90239226813076E-02
 cg2d: Sum(rhs),rhsMax =   3.39069022858851E-10  1.90236486849643E-02
 cg2d: Sum(rhs),rhsMax =   3.39116457137578E-10  1.90233706247055E-02
 cg2d: Sum(rhs),rhsMax =   3.39159270112965E-10  1.90230960608027E-02
 cg2d: Sum(rhs),rhsMax =   3.39198266696705E-10  1.90228266471882E-02
 cg2d: Sum(rhs),rhsMax =   3.39246936098547E-10  1.90225629432152E-02
 cg2d: Sum(rhs),rhsMax =   3.39280867289737E-10  1.90223053703793E-02
 cg2d: Sum(rhs),rhsMax =   3.39341804656002E-10  1.90220543301302E-02
 cg2d: Sum(rhs),rhsMax =   3.39379954694685E-10  1.90218101882899E-02
 cg2d: Sum(rhs),rhsMax =   3.39431857621086E-10  1.90215732869742E-02
 cg2d: Sum(rhs),rhsMax =   3.39489270029247E-10  1.90213426148203E-02
 cg2d: Sum(rhs),rhsMax =   3.39529140913619E-10  1.90211197981214E-02
 cg2d: Sum(rhs),rhsMax =   3.39569067309142E-10  1.90209051186972E-02
 cg2d: Sum(rhs),rhsMax =   3.39617722833196E-10  1.90206988160507E-02
 cg2d: Sum(rhs),rhsMax =   3.39656705539149E-10  1.90205011058708E-02
 cg2d: Sum(rhs),rhsMax =   3.39696937246003E-10  1.90203121748316E-02
 cg2d: Sum(rhs),rhsMax =   3.39735933829743E-10  1.90201321423434E-02
 cg2d: Sum(rhs),rhsMax =   3.39784547720434E-10  1.90199610032068E-02
 cg2d: Sum(rhs),rhsMax =   3.39831385254286E-10  1.90197988479628E-02
 cg2d: Sum(rhs),rhsMax =   3.39861472298253E-10  1.90196457183166E-02
 cg2d: Sum(rhs),rhsMax =   3.39914540958830E-10  1.90195016199226E-02
 cg2d: Sum(rhs),rhsMax =   3.39958644568483E-10  1.90193665348950E-02
 cg2d: Sum(rhs),rhsMax =   3.40002859200439E-10  1.90192404133894E-02
 cg2d: Sum(rhs),rhsMax =   3.40049807756593E-10  1.90191231712032E-02
 cg2d: Sum(rhs),rhsMax =   3.40091108053109E-10  1.90190146902654E-02
 cg2d: Sum(rhs),rhsMax =   3.40132227938383E-10  1.90189148161475E-02
 cg2d: Sum(rhs),rhsMax =   3.40178621383025E-10  1.90188233655565E-02
 cg2d: Sum(rhs),rhsMax =   3.40221836814258E-10  1.90187401229430E-02
 cg2d: Sum(rhs),rhsMax =   3.40259709297186E-10  1.90186648424267E-02
 cg2d: Sum(rhs),rhsMax =   3.40321451575143E-10  1.90185972495318E-02
 cg2d: Sum(rhs),rhsMax =   3.40353495387191E-10  1.90185370396341E-02
 cg2d: Sum(rhs),rhsMax =   3.40391964614994E-10  1.90184838821603E-02
 cg2d: Sum(rhs),rhsMax =   3.40422856570655E-10  1.90184374210238E-02
 cg2d: Sum(rhs),rhsMax =   3.40461894787758E-10  1.90183972750043E-02
 cg2d: Sum(rhs),rhsMax =   3.40509800911271E-10  1.90183630418125E-02
 cg2d: Sum(rhs),rhsMax =   3.40547284816139E-10  1.90183342942541E-02
 cg2d: Sum(rhs),rhsMax =   3.40598313441909E-10  1.90183105936270E-02
 cg2d: Sum(rhs),rhsMax =   3.40648953489620E-10  1.90182914748304E-02
 cg2d: Sum(rhs),rhsMax =   3.40680025856521E-10  1.90182764616883E-02
 cg2d: Sum(rhs),rhsMax =   3.40727265846219E-10  1.90182650676537E-02
 cg2d: Sum(rhs),rhsMax =   3.40773506635195E-10  1.90182567918401E-02
 cg2d: Sum(rhs),rhsMax =   3.40820538458075E-10  1.90182511251064E-02
 cg2d: Sum(rhs),rhsMax =   3.40864378389760E-10  1.90182475502080E-02
 cg2d: Sum(rhs),rhsMax =   3.40916100904920E-10  1.90182455468025E-02
 cg2d: Sum(rhs),rhsMax =   3.40953265620669E-10  1.90182445913331E-02
 cg2d: Sum(rhs),rhsMax =   3.40983560831454E-10  1.90182441614955E-02
 cg2d: Sum(rhs),rhsMax =   3.41032729833657E-10  1.90182437358700E-02
 cg2d: Sum(rhs),rhsMax =   3.41083508659246E-10  1.90182428005168E-02
 cg2d: Sum(rhs),rhsMax =   3.41110070745110E-10  1.90182408429396E-02
 cg2d: Sum(rhs),rhsMax =   3.41150913074628E-10  1.90182373640816E-02
 cg2d: Sum(rhs),rhsMax =   3.41197473052723E-10  1.90182318805941E-02
 cg2d: Sum(rhs),rhsMax =   3.41241743195830E-10  1.90182239074564E-02
 cg2d: Sum(rhs),rhsMax =   3.41274203341513E-10  1.90182129848135E-02
 cg2d: Sum(rhs),rhsMax =   3.41324260522136E-10  1.90181986714329E-02
 cg2d: Sum(rhs),rhsMax =   3.41353653676713E-10  1.90181805444467E-02
 cg2d: Sum(rhs),rhsMax =   3.41404890469299E-10  1.90181581995281E-02
 cg2d: Sum(rhs),rhsMax =   3.41438197160038E-10  1.90181312583937E-02
 cg2d: Sum(rhs),rhsMax =   3.41479983179127E-10  1.90180993660162E-02
 cg2d: Sum(rhs),rhsMax =   3.41524336588961E-10  1.90180621934414E-02
 cg2d: Sum(rhs),rhsMax =   3.41566969153106E-10  1.90180194366955E-02
 cg2d: Sum(rhs),rhsMax =   3.41611627874272E-10  1.90179708256541E-02
 cg2d: Sum(rhs),rhsMax =   3.41656022917469E-10  1.90179161168725E-02
 cg2d: Sum(rhs),rhsMax =   3.41694672556514E-10  1.90178550973636E-02
 cg2d: Sum(rhs),rhsMax =   3.41727521280255E-10  1.90177875890501E-02
 cg2d: Sum(rhs),rhsMax =   3.41760203470542E-10  1.90177134422963E-02
 cg2d: Sum(rhs),rhsMax =   3.41800282521731E-10  1.90176325441462E-02
 cg2d: Sum(rhs),rhsMax =   3.41840222795042E-10  1.90175448133519E-02
 cg2d: Sum(rhs),rhsMax =   3.41874639708806E-10  1.90174502028596E-02
 cg2d: Sum(rhs),rhsMax =   3.41913719559273E-10  1.90173487008214E-02
 cg2d: Sum(rhs),rhsMax =   3.41961459149331E-10  1.90172403239802E-02
 cg2d: Sum(rhs),rhsMax =   3.42014333520879E-10  1.90171251294545E-02
 cg2d: Sum(rhs),rhsMax =   3.42051595381143E-10  1.90170032061645E-02
 cg2d: Sum(rhs),rhsMax =   3.42093062211113E-10  1.90168746720654E-02
 cg2d: Sum(rhs),rhsMax =   3.42130213049074E-10  1.90167396789361E-02
 cg2d: Sum(rhs),rhsMax =   3.42179382051278E-10  1.90165984091862E-02
 cg2d: Sum(rhs),rhsMax =   3.42226941230095E-10  1.90164510776963E-02
 cg2d: Sum(rhs),rhsMax =   3.42282993615051E-10  1.90162979273394E-02
 cg2d: Sum(rhs),rhsMax =   3.42326736402221E-10  1.90161392273633E-02
 cg2d: Sum(rhs),rhsMax =   3.42381220597154E-10  1.90159752744585E-02
 cg2d: Sum(rhs),rhsMax =   3.42436731748386E-10  1.90158063868819E-02
 cg2d: Sum(rhs),rhsMax =   3.42485942383952E-10  1.90156329064330E-02
 Computing Diagnostic #    26 "THETA   " (list#  1) Parms "SMR     MR      ", Count=     144
 Computing Diagnostic #    27 "SALT    " (list#  1) Parms "SMR     MR      ", Count=     144
 Computing Diagnostic #    30 "UVEL    " (list#  1) Parms "UUR     MR      ", Count=     144
             Vector  Mate for "UVEL    " :  Diagnostic #     31 "VVEL    " exists
 Computing Diagnostic #    32 "WVEL    " (list#  1) Parms "WM      LR      ", Count=     144
 Computing Diagnostic #    31 "VVEL    " (list#  1) Parms "VVR     MR      ", Count=     144
             Vector  Mate for "VVEL    " :  Diagnostic #     30 "UVEL    " exists
 Computing Diagnostic #   197 "BRGfwFlx" (list#  2) Parms "SM      MR      ", Count=     144
 Computing Diagnostic #   198 "BRGhtFlx" (list#  2) Parms "SM      MR      ", Count=     144
 Computing Diagnostic #   199 "BRGmltRt" (list#  2) Parms "SM      MR      ", Count=     144
 Computing Diagnostic #   201 "BRG_TauX" (list#  2) Parms "UU      MR      ", Count=    1728
 Computing Diagnostic #   202 "BRG_TauY" (list#  2) Parms "VV      MR      ", Count=    1728
 Computing Diagnostic #   203 "BRGhFacC" (list#  2) Parms "SM      MR      ", Count=    1728
 cg2d: Sum(rhs),rhsMax =   3.42533834629677E-10  1.90154552045079E-02
 cg2d: Sum(rhs),rhsMax =   3.42578215795086E-10  1.90152736599950E-02
 cg2d: Sum(rhs),rhsMax =   3.42616782167404E-10  1.90150886767674E-02
 cg2d: Sum(rhs),rhsMax =   3.42660871899270E-10  1.90149006707117E-02
 cg2d: Sum(rhs),rhsMax =   3.42706960032579E-10  1.90147100725457E-02
 cg2d: Sum(rhs),rhsMax =   3.42746220294288E-10  1.90145173235609E-02
 cg2d: Sum(rhs),rhsMax =   3.42796208085971E-10  1.90143228741349E-02
 cg2d: Sum(rhs),rhsMax =   3.42851344536932E-10  1.90141271688780E-02
 cg2d: Sum(rhs),rhsMax =   3.42895462024373E-10  1.90139307013644E-02
 cg2d: Sum(rhs),rhsMax =   3.42954165066800E-10  1.90137339113005E-02
 cg2d: Sum(rhs),rhsMax =   3.42992037549728E-10  1.90135372546785E-02
 cg2d: Sum(rhs),rhsMax =   3.43038653038974E-10  1.90133411962810E-02
 cg2d: Sum(rhs),rhsMax =   3.43083589315896E-10  1.90131461917777E-02
 cg2d: Sum(rhs),rhsMax =   3.43118145007537E-10  1.90129526898616E-02
 cg2d: Sum(rhs),rhsMax =   3.43165745819718E-10  1.90127611265675E-02
 cg2d: Sum(rhs),rhsMax =   3.43205505681787E-10  1.90125719249374E-02
 cg2d: Sum(rhs),rhsMax =   3.43246459033608E-10  1.90123854902792E-02
 cg2d: Sum(rhs),rhsMax =   3.43284789483533E-10  1.90122022331810E-02
 cg2d: Sum(rhs),rhsMax =   3.43338343866684E-10  1.90120225204493E-02
 cg2d: Sum(rhs),rhsMax =   3.43393175006312E-10  1.90118467075885E-02
 cg2d: Sum(rhs),rhsMax =   3.43440817451857E-10  1.90116751291525E-02
 cg2d: Sum(rhs),rhsMax =   3.43491304843901E-10  1.90115080983497E-02
 cg2d: Sum(rhs),rhsMax =   3.43541819991522E-10  1.90113458999247E-02
 cg2d: Sum(rhs),rhsMax =   3.43585021544968E-10  1.90111887949367E-02
 cg2d: Sum(rhs),rhsMax =   3.43635508937012E-10  1.90110370157343E-02
 cg2d: Sum(rhs),rhsMax =   3.43684330994520E-10  1.90108907697712E-02
 cg2d: Sum(rhs),rhsMax =   3.43724909646070E-10  1.90107502168323E-02
 cg2d: Sum(rhs),rhsMax =   3.43769207544753E-10  1.90106155032467E-02
 cg2d: Sum(rhs),rhsMax =   3.43815864667363E-10  1.90104867390478E-02
 cg2d: Sum(rhs),rhsMax =   3.43869863139723E-10  1.90103640031914E-02
 cg2d: Sum(rhs),rhsMax =   3.43911246702966E-10  1.90102473388780E-02
 cg2d: Sum(rhs),rhsMax =   3.43957917703364E-10  1.90101367601376E-02
 cg2d: Sum(rhs),rhsMax =   3.43999190244304E-10  1.90100322451318E-02
 cg2d: Sum(rhs),rhsMax =   3.44039435828947E-10  1.90099337379450E-02
 cg2d: Sum(rhs),rhsMax =   3.44097847437830E-10  1.90098411536553E-02
 cg2d: Sum(rhs),rhsMax =   3.44142755959176E-10  1.90097543751497E-02
 cg2d: Sum(rhs),rhsMax =   3.44179018618718E-10  1.90096732490155E-02
 cg2d: Sum(rhs),rhsMax =   3.44226216975052E-10  1.90095975946778E-02
 cg2d: Sum(rhs),rhsMax =   3.44273221042357E-10  1.90095272017116E-02
 cg2d: Sum(rhs),rhsMax =   3.44305459143435E-10  1.90094618288565E-02
 cg2d: Sum(rhs),rhsMax =   3.44355155501574E-10  1.90094012087651E-02
 cg2d: Sum(rhs),rhsMax =   3.44402700802604E-10  1.90093450465237E-02
 cg2d: Sum(rhs),rhsMax =   3.44449802014424E-10  1.90092930231854E-02
 cg2d: Sum(rhs),rhsMax =   3.44495598714190E-10  1.90092447949636E-02
 cg2d: Sum(rhs),rhsMax =   3.44541672969711E-10  1.90091999965964E-02
 cg2d: Sum(rhs),rhsMax =   3.44589023981712E-10  1.90091582433785E-02
 cg2d: Sum(rhs),rhsMax =   3.44632489213126E-10  1.90091191325042E-02
 cg2d: Sum(rhs),rhsMax =   3.44676898134111E-10  1.90090822438331E-02
 cg2d: Sum(rhs),rhsMax =   3.44710621158484E-10  1.90090471449498E-02
 cg2d: Sum(rhs),rhsMax =   3.44751380221275E-10  1.90090133893315E-02
 cg2d: Sum(rhs),rhsMax =   3.44792014383977E-10  1.90089805199398E-02
 cg2d: Sum(rhs),rhsMax =   3.44839587440582E-10  1.90089480761154E-02
 cg2d: Sum(rhs),rhsMax =   3.44870645929696E-10  1.90089155865072E-02
 cg2d: Sum(rhs),rhsMax =   3.44920481065714E-10  1.90088825800960E-02
 cg2d: Sum(rhs),rhsMax =   3.44966472054509E-10  1.90088485834941E-02
 cg2d: Sum(rhs),rhsMax =   3.44999306900462E-10  1.90088131255572E-02
 cg2d: Sum(rhs),rhsMax =   3.45035139348582E-10  1.90087757365336E-02
 cg2d: Sum(rhs),rhsMax =   3.45069334217740E-10  1.90087359549541E-02
 cg2d: Sum(rhs),rhsMax =   3.45102044163603E-10  1.90086933264810E-02
 cg2d: Sum(rhs),rhsMax =   3.45141665247795E-10  1.90086474060225E-02
 cg2d: Sum(rhs),rhsMax =   3.45183839844942E-10  1.90085977609177E-02
 cg2d: Sum(rhs),rhsMax =   3.45239406507325E-10  1.90085439733625E-02
 cg2d: Sum(rhs),rhsMax =   3.45274545066054E-10  1.90084856399178E-02
 cg2d: Sum(rhs),rhsMax =   3.45325448791733E-10  1.90084223780149E-02
 cg2d: Sum(rhs),rhsMax =   3.45365763765315E-10  1.90083538223512E-02
 cg2d: Sum(rhs),rhsMax =   3.45408826540883E-10  1.90082796303498E-02
 cg2d: Sum(rhs),rhsMax =   3.45447642713381E-10  1.90081994813392E-02
 cg2d: Sum(rhs),rhsMax =   3.45487208286421E-10  1.90081130802655E-02
 cg2d: Sum(rhs),rhsMax =   3.45524622802351E-10  1.90080201556623E-02
 cg2d: Sum(rhs),rhsMax =   3.45567713333494E-10  1.90079204625312E-02
 cg2d: Sum(rhs),rhsMax =   3.45604711515790E-10  1.90078137880100E-02
 cg2d: Sum(rhs),rhsMax =   3.45648079602690E-10  1.90076999433765E-02
 cg2d: Sum(rhs),rhsMax =   3.45695250203448E-10  1.90075787677074E-02
 cg2d: Sum(rhs),rhsMax =   3.45746681285064E-10  1.90074501332645E-02
 cg2d: Sum(rhs),rhsMax =   3.45786024813499E-10  1.90073139487462E-02
 cg2d: Sum(rhs),rhsMax =   3.45851333682923E-10  1.90071701455676E-02
 cg2d: Sum(rhs),rhsMax =   3.45903680698534E-10  1.90070186876028E-02
 cg2d: Sum(rhs),rhsMax =   3.45951781111076E-10  1.90068595661930E-02
 cg2d: Sum(rhs),rhsMax =   3.45994344286282E-10  1.90066928082781E-02
 cg2d: Sum(rhs),rhsMax =   3.46046344357198E-10  1.90065184701495E-02
 cg2d: Sum(rhs),rhsMax =   3.46093750880350E-10  1.90063366349295E-02
 cg2d: Sum(rhs),rhsMax =   3.46127737582691E-10  1.90061474168491E-02
 cg2d: Sum(rhs),rhsMax =   3.46182263410988E-10  1.90059509606168E-02
 cg2d: Sum(rhs),rhsMax =   3.46219886093735E-10  1.90057474335117E-02
 cg2d: Sum(rhs),rhsMax =   3.46254594441042E-10  1.90055370313850E-02
 cg2d: Sum(rhs),rhsMax =   3.46309314558368E-10  1.90053199800313E-02
 cg2d: Sum(rhs),rhsMax =   3.46345466195608E-10  1.90050965211862E-02
 cg2d: Sum(rhs),rhsMax =   3.46396189510045E-10  1.90048669226353E-02
 cg2d: Sum(rhs),rhsMax =   3.46444761767373E-10  1.90046314732208E-02
 cg2d: Sum(rhs),rhsMax =   3.46486270230706E-10  1.90043904834749E-02
 cg2d: Sum(rhs),rhsMax =   3.46538089890380E-10  1.90041442763847E-02
 cg2d: Sum(rhs),rhsMax =   3.46591325084411E-10  1.90038931979872E-02
 cg2d: Sum(rhs),rhsMax =   3.46640438575463E-10  1.90036376029320E-02
 cg2d: Sum(rhs),rhsMax =   3.46688566743580E-10  1.90033778599323E-02
 cg2d: Sum(rhs),rhsMax =   3.46732850764475E-10  1.90031143517655E-02
 cg2d: Sum(rhs),rhsMax =   3.46776940496341E-10  1.90028474637828E-02
 cg2d: Sum(rhs),rhsMax =   3.46823486596648E-10  1.90025775883615E-02
 cg2d: Sum(rhs),rhsMax =   3.46879192036909E-10  1.90023051252855E-02
 cg2d: Sum(rhs),rhsMax =   3.46926321004304E-10  1.90020304776560E-02
 cg2d: Sum(rhs),rhsMax =   3.46972992004702E-10  1.90017540405591E-02
 cg2d: Sum(rhs),rhsMax =   3.47019857294129E-10  1.90014762221123E-02
 cg2d: Sum(rhs),rhsMax =   3.47072509621071E-10  1.90011974291234E-02
 cg2d: Sum(rhs),rhsMax =   3.47109674336821E-10  1.90009180446353E-02
 cg2d: Sum(rhs),rhsMax =   3.47154499591440E-10  1.90006384480056E-02
 cg2d: Sum(rhs),rhsMax =   3.47200102002176E-10  1.90003590166901E-02
 cg2d: Sum(rhs),rhsMax =   3.47258555244423E-10  1.90000801178765E-02
 cg2d: Sum(rhs),rhsMax =   3.47310250004007E-10  1.89998021053159E-02
 cg2d: Sum(rhs),rhsMax =   3.47369952247156E-10  1.89995253238892E-02
 cg2d: Sum(rhs),rhsMax =   3.47420495150352E-10  1.89992500953031E-02
 cg2d: Sum(rhs),rhsMax =   3.47461961980322E-10  1.89989767274843E-02
 cg2d: Sum(rhs),rhsMax =   3.47513851028936E-10  1.89987055109475E-02
 cg2d: Sum(rhs),rhsMax =   3.47564449443283E-10  1.89984367150031E-02
 cg2d: Sum(rhs),rhsMax =   3.47613604567698E-10  1.89981705908844E-02
 cg2d: Sum(rhs),rhsMax =   3.47657402866020E-10  1.89979073684442E-02
 cg2d: Sum(rhs),rhsMax =   3.47708251080547E-10  1.89976472553019E-02
 cg2d: Sum(rhs),rhsMax =   3.47759432361983E-10  1.89973904368344E-02
 cg2d: Sum(rhs),rhsMax =   3.47807560530100E-10  1.89971370769613E-02
 cg2d: Sum(rhs),rhsMax =   3.47862280647426E-10  1.89968873110139E-02
 cg2d: Sum(rhs),rhsMax =   3.47897710639700E-10  1.89966412568853E-02
 cg2d: Sum(rhs),rhsMax =   3.47945477985334E-10  1.89963990054567E-02
 cg2d: Sum(rhs),rhsMax =   3.47990122828712E-10  1.89961606249583E-02
 cg2d: Sum(rhs),rhsMax =   3.48046355624909E-10  1.89959206713509E-02
 cg2d: Sum(rhs),rhsMax =   3.48086559576188E-10  1.89956845148106E-02
 cg2d: Sum(rhs),rhsMax =   3.48136228178753E-10  1.89954524373119E-02
 cg2d: Sum(rhs),rhsMax =   3.48173559427956E-10  1.89952243740713E-02
 cg2d: Sum(rhs),rhsMax =   3.48231207758509E-10  1.89950003060601E-02
 cg2d: Sum(rhs),rhsMax =   3.48266276928300E-10  1.89947801975024E-02
 cg2d: Sum(rhs),rhsMax =   3.48305898012491E-10  1.89945639931135E-02
 cg2d: Sum(rhs),rhsMax =   3.48351375523137E-10  1.89943516160320E-02
 cg2d: Sum(rhs),rhsMax =   3.48400780447733E-10  1.89941429689332E-02
 cg2d: Sum(rhs),rhsMax =   3.48442885655942E-10  1.89939379351662E-02
 cg2d: Sum(rhs),rhsMax =   3.48479842204874E-10  1.89937363832681E-02
 cg2d: Sum(rhs),rhsMax =   3.48530621030463E-10  1.89935381640829E-02
 cg2d: Sum(rhs),rhsMax =   3.48573239716821E-10  1.89933431129350E-02
 cg2d: Sum(rhs),rhsMax =   3.48621312373787E-10  1.89931510512944E-02
 cg2d: Sum(rhs),rhsMax =   3.48676559847050E-10  1.89929617894487E-02
 cg2d: Sum(rhs),rhsMax =   3.48716791553905E-10  1.89927751251714E-02
 cg2d: Sum(rhs),rhsMax =   3.48760062496289E-10  1.89925908489173E-02
 cg2d: Sum(rhs),rhsMax =   3.48804929384272E-10  1.89924087411298E-02
 cg2d: Sum(rhs),rhsMax =   3.48854528597897E-10  1.89922285761957E-02
 cg2d: Sum(rhs),rhsMax =   3.48899797941726E-10  1.89920501257507E-02
 cg2d: Sum(rhs),rhsMax =   3.48946233019731E-10  1.89918731549694E-02
 cg2d: Sum(rhs),rhsMax =   3.48991419096834E-10  1.89916974287571E-02
 cg2d: Sum(rhs),rhsMax =   3.49042073022332E-10  1.89915227140042E-02
 Computing Diagnostic #    26 "THETA   " (list#  1) Parms "SMR     MR      ", Count=     144
 Computing Diagnostic #    27 "SALT    " (list#  1) Parms "SMR     MR      ", Count=     144
 Computing Diagnostic #    30 "UVEL    " (list#  1) Parms "UUR     MR      ", Count=     144
             Vector  Mate for "UVEL    " :  Diagnostic #     31 "VVEL    " exists
 Computing Diagnostic #    32 "WVEL    " (list#  1) Parms "WM      LR      ", Count=     144
 Computing Diagnostic #    31 "VVEL    " (list#  1) Parms "VVR     MR      ", Count=     144
             Vector  Mate for "VVEL    " :  Diagnostic #     30 "UVEL    " exists
 Computing Diagnostic #   197 "BRGfwFlx" (list#  2) Parms "SM      MR      ", Count=     144
 Computing Diagnostic #   198 "BRGhtFlx" (list#  2) Parms "SM      MR      ", Count=     144
 Computing Diagnostic #   199 "BRGmltRt" (list#  2) Parms "SM      MR      ", Count=     144
 Computing Diagnostic #   201 "BRG_TauX" (list#  2) Parms "UU      MR      ", Count=    1728
 Computing Diagnostic #   202 "BRG_TauY" (list#  2) Parms "VV      MR      ", Count=    1728
 Computing Diagnostic #   203 "BRGhFacC" (list#  2) Parms "SM      MR      ", Count=    1728
 cg2d: Sum(rhs),rhsMax =   3.49081458184131E-10  1.89913487740625E-02
 cg2d: Sum(rhs),rhsMax =   3.49126935694777E-10  1.89911753667816E-02
 cg2d: Sum(rhs),rhsMax =   3.49160145241001E-10  1.89910022751084E-02
 cg2d: Sum(rhs),rhsMax =   3.49215087402932E-10  1.89908292827207E-02
 cg2d: Sum(rhs),rhsMax =   3.49256248921570E-10  1.89906561706959E-02
 cg2d: Sum(rhs),rhsMax =   3.49308290625849E-10  1.89904827291850E-02
 cg2d: Sum(rhs),rhsMax =   3.49346399031170E-10  1.89903087577039E-02
 cg2d: Sum(rhs),rhsMax =   3.49388282194774E-10  1.89901340682979E-02
 cg2d: Sum(rhs),rhsMax =   3.49432427437790E-10  1.89899584843771E-02
 cg2d: Sum(rhs),rhsMax =   3.49474754690604E-10  1.89897818422670E-02
 cg2d: Sum(rhs),rhsMax =   3.49501774743466E-10  1.89896039885309E-02
 cg2d: Sum(rhs),rhsMax =   3.49547682465534E-10  1.89894247867537E-02
 cg2d: Sum(rhs),rhsMax =   3.49584097780742E-10  1.89892441139178E-02
 cg2d: Sum(rhs),rhsMax =   3.49631934515315E-10  1.89890618595107E-02
 cg2d: Sum(rhs),rhsMax =   3.49671083754721E-10  1.89888779303627E-02
 cg2d: Sum(rhs),rhsMax =   3.49722861781032E-10  1.89886922470929E-02
 cg2d: Sum(rhs),rhsMax =   3.49769380125764E-10  1.89885047499340E-02
 cg2d: Sum(rhs),rhsMax =   3.49807807720204E-10  1.89883153939626E-02
 cg2d: Sum(rhs),rhsMax =   3.49850648451167E-10  1.89881241479973E-02
 cg2d: Sum(rhs),rhsMax =   3.49899414997523E-10  1.89879310491285E-02
 cg2d: Sum(rhs),rhsMax =   3.49936080112911E-10  1.89877360297604E-02
 cg2d: Sum(rhs),rhsMax =   3.49978795943784E-10  1.89875391053643E-02
 cg2d: Sum(rhs),rhsMax =   3.50026313489238E-10  1.89873403267924E-02
 cg2d: Sum(rhs),rhsMax =   3.50073053878575E-10  1.89871397298781E-02
 cg2d: Sum(rhs),rhsMax =   3.50115950120689E-10  1.89869373687904E-02
 cg2d: Sum(rhs),rhsMax =   3.50171017182710E-10  1.89867333199127E-02
 cg2d: Sum(rhs),rhsMax =   3.50224946266131E-10  1.89865276642361E-02
 cg2d: Sum(rhs),rhsMax =   3.50275961014113E-10  1.89863204928537E-02
 cg2d: Sum(rhs),rhsMax =   3.50319356856588E-10  1.89861119050504E-02
 cg2d: Sum(rhs),rhsMax =   3.50357992617845E-10  1.89859020082394E-02
 cg2d: Sum(rhs),rhsMax =   3.50412546201717E-10  1.89856909177158E-02
 cg2d: Sum(rhs),rhsMax =   3.50455650610648E-10  1.89854787403583E-02
 cg2d: Sum(rhs),rhsMax =   3.50504472668156E-10  1.89852656115972E-02
 cg2d: Sum(rhs),rhsMax =   3.50550699579344E-10  1.89850516625351E-02
 cg2d: Sum(rhs),rhsMax =   3.50592777031977E-10  1.89848370193334E-02
 cg2d: Sum(rhs),rhsMax =   3.50637491264294E-10  1.89846218104355E-02
 cg2d: Sum(rhs),rhsMax =   3.50694875916879E-10  1.89844061631304E-02
 cg2d: Sum(rhs),rhsMax =   3.50736772958271E-10  1.89841902060867E-02
 cg2d: Sum(rhs),rhsMax =   3.50787759950677E-10  1.89839740649773E-02
 cg2d: Sum(rhs),rhsMax =   3.50828519013469E-10  1.89837578591754E-02
 cg2d: Sum(rhs),rhsMax =   3.50868320508901E-10  1.89835417059578E-02
 cg2d: Sum(rhs),rhsMax =   3.50908288537788E-10  1.89833257165888E-02
 cg2d: Sum(rhs),rhsMax =   3.50953460737102E-10  1.89831099932486E-02
 cg2d: Sum(rhs),rhsMax =   3.51000103981924E-10  1.89828946292944E-02
 cg2d: Sum(rhs),rhsMax =   3.51046858249049E-10  1.89826797084916E-02
 cg2d: Sum(rhs),rhsMax =   3.51088269567867E-10  1.89824653058165E-02
 cg2d: Sum(rhs),rhsMax =   3.51136758558468E-10  1.89822514859390E-02
 cg2d: Sum(rhs),rhsMax =   3.51177864565955E-10  1.89820383030200E-02
 cg2d: Sum(rhs),rhsMax =   3.51223716776872E-10  1.89818257932472E-02
 cg2d: Sum(rhs),rhsMax =   3.51265863618444E-10  1.89816139876574E-02
 cg2d: Sum(rhs),rhsMax =   3.51312132162995E-10  1.89814028972443E-02
 cg2d: Sum(rhs),rhsMax =   3.51367990258922E-10  1.89811925257807E-02
 cg2d: Sum(rhs),rhsMax =   3.51421974853494E-10  1.89809828604505E-02
 cg2d: Sum(rhs),rhsMax =   3.51466591941296E-10  1.89807738759331E-02
 cg2d: Sum(rhs),rhsMax =   3.51518245067517E-10  1.89805655314724E-02
 cg2d: Sum(rhs),rhsMax =   3.51556006528142E-10  1.89803577773433E-02
 cg2d: Sum(rhs),rhsMax =   3.51606230242218E-10  1.89801505449287E-02
 cg2d: Sum(rhs),rhsMax =   3.51662074460357E-10  1.89799437584444E-02
 cg2d: Sum(rhs),rhsMax =   3.51711063051319E-10  1.89797373091614E-02
 cg2d: Sum(rhs),rhsMax =   3.51761217376456E-10  1.89795311367169E-02
 cg2d: Sum(rhs),rhsMax =   3.51808665532971E-10  1.89793250966348E-02
 cg2d: Sum(rhs),rhsMax =   3.51863482794812E-10  1.89791190606313E-02
 cg2d: Sum(rhs),rhsMax =   3.51911180751507E-10  1.89789128978554E-02
 cg2d: Sum(rhs),rhsMax =   3.51952161858904E-10  1.89787064678573E-02
 cg2d: Sum(rhs),rhsMax =   3.51998055703184E-10  1.89784996176759E-02
 cg2d: Sum(rhs),rhsMax =   3.52044976503763E-10  1.89782921903664E-02
 cg2d: Sum(rhs),rhsMax =   3.52093895705785E-10  1.89780840059671E-02
 cg2d: Sum(rhs),rhsMax =   3.52126758307314E-10  1.89778749054219E-02
 cg2d: Sum(rhs),rhsMax =   3.52170376194394E-10  1.89776647173812E-02
 cg2d: Sum(rhs),rhsMax =   3.52210718923551E-10  1.89774532624007E-02
 cg2d: Sum(rhs),rhsMax =   3.52256598890044E-10  1.89772403636059E-02
 cg2d: Sum(rhs),rhsMax =   3.52291057437171E-10  1.89770258452134E-02
 cg2d: Sum(rhs),rhsMax =   3.52342127696303E-10  1.89768095331163E-02
 cg2d: Sum(rhs),rhsMax =   3.52395793101756E-10  1.89765912545401E-02
 cg2d: Sum(rhs),rhsMax =   3.52455842289601E-10  1.89763708402761E-02
 cg2d: Sum(rhs),rhsMax =   3.52491799637811E-10  1.89761481290965E-02
 cg2d: Sum(rhs),rhsMax =   3.52540593939743E-10  1.89759229647732E-02
 cg2d: Sum(rhs),rhsMax =   3.52576481899014E-10  1.89756952030756E-02
 cg2d: Sum(rhs),rhsMax =   3.52616574827991E-10  1.89754647040640E-02
 cg2d: Sum(rhs),rhsMax =   3.52669268788297E-10  1.89752313430378E-02
 cg2d: Sum(rhs),rhsMax =   3.52711193585264E-10  1.89749950009588E-02
 cg2d: Sum(rhs),rhsMax =   3.52758863786384E-10  1.89747555804518E-02
 cg2d: Sum(rhs),rhsMax =   3.52813597781498E-10  1.89745129894318E-02
 cg2d: Sum(rhs),rhsMax =   3.52851747820182E-10  1.89742671607916E-02
 cg2d: Sum(rhs),rhsMax =   3.52887913335209E-10  1.89740180361013E-02
 cg2d: Sum(rhs),rhsMax =   3.52935000669241E-10  1.89737655785636E-02
 cg2d: Sum(rhs),rhsMax =   3.52979395712438E-10  1.89735097666452E-02
 cg2d: Sum(rhs),rhsMax =   3.53024179333694E-10  1.89732505997698E-02
 cg2d: Sum(rhs),rhsMax =   3.53052212465066E-10  1.89729880943707E-02
 cg2d: Sum(rhs),rhsMax =   3.53101589634086E-10  1.89727222903161E-02
 cg2d: Sum(rhs),rhsMax =   3.53155393817417E-10  1.89724532437692E-02
 cg2d: Sum(rhs),rhsMax =   3.53196333291450E-10  1.89721810319285E-02
 cg2d: Sum(rhs),rhsMax =   3.53243531647784E-10  1.89719057581403E-02
 cg2d: Sum(rhs),rhsMax =   3.53298515443079E-10  1.89716275387951E-02
 cg2d: Sum(rhs),rhsMax =   3.53357579307989E-10  1.89713465152904E-02
 cg2d: Sum(rhs),rhsMax =   3.53419238319219E-10  1.89710628498289E-02
 cg2d: Sum(rhs),rhsMax =   3.53471418801377E-10  1.89707767357391E-02
 cg2d: Sum(rhs),rhsMax =   3.53531121044526E-10  1.89704884078603E-02
 cg2d: Sum(rhs),rhsMax =   3.53585813406276E-10  1.89701980745266E-02
 cg2d: Sum(rhs),rhsMax =   3.53631526839315E-10  1.89699059268735E-02
 cg2d: Sum(rhs),rhsMax =   3.53679974196552E-10  1.89696122173641E-02
 cg2d: Sum(rhs),rhsMax =   3.53725174151442E-10  1.89693172357828E-02
 cg2d: Sum(rhs),rhsMax =   3.53777604433780E-10  1.89690212883362E-02
 cg2d: Sum(rhs),rhsMax =   3.53813048303842E-10  1.89687246746095E-02
 cg2d: Sum(rhs),rhsMax =   3.53867227187443E-10  1.89684277216394E-02
 cg2d: Sum(rhs),rhsMax =   3.53917478657095E-10  1.89681307444271E-02
 cg2d: Sum(rhs),rhsMax =   3.53956502996411E-10  1.89678340993183E-02
 cg2d: Sum(rhs),rhsMax =   3.54013124370667E-10  1.89675381930385E-02
 cg2d: Sum(rhs),rhsMax =   3.54050885831292E-10  1.89672433924245E-02
 cg2d: Sum(rhs),rhsMax =   3.54102552835300E-10  1.89669500702992E-02
 cg2d: Sum(rhs),rhsMax =   3.54149098935608E-10  1.89666586037175E-02
 cg2d: Sum(rhs),rhsMax =   3.54181475814563E-10  1.89663693743594E-02
 cg2d: Sum(rhs),rhsMax =   3.54227217003178E-10  1.89660827675453E-02
 cg2d: Sum(rhs),rhsMax =   3.54286447401542E-10  1.89657991724840E-02
 cg2d: Sum(rhs),rhsMax =   3.54334242502752E-10  1.89655189750569E-02
 cg2d: Sum(rhs),rhsMax =   3.54372906019584E-10  1.89652425636834E-02
 cg2d: Sum(rhs),rhsMax =   3.54426099580252E-10  1.89649703223886E-02
 cg2d: Sum(rhs),rhsMax =   3.54477502906292E-10  1.89647026279194E-02
 cg2d: Sum(rhs),rhsMax =   3.54529725021813E-10  1.89644399566350E-02
 cg2d: Sum(rhs),rhsMax =   3.54573370664468E-10  1.89641825713198E-02
 cg2d: Sum(rhs),rhsMax =   3.54614893005589E-10  1.89639307719787E-02
 cg2d: Sum(rhs),rhsMax =   3.54674914437858E-10  1.89636849280050E-02
 cg2d: Sum(rhs),rhsMax =   3.54713744488144E-10  1.89634453953677E-02
 cg2d: Sum(rhs),rhsMax =   3.54759679965788E-10  1.89632125046354E-02
 cg2d: Sum(rhs),rhsMax =   3.54814136405146E-10  1.89629865523648E-02
 cg2d: Sum(rhs),rhsMax =   3.54860099638366E-10  1.89627678343208E-02
 cg2d: Sum(rhs),rhsMax =   3.54907658817183E-10  1.89625566230252E-02
 cg2d: Sum(rhs),rhsMax =   3.54954773906790E-10  1.89623531686522E-02
 cg2d: Sum(rhs),rhsMax =   3.54995838280914E-10  1.89621576986847E-02
 cg2d: Sum(rhs),rhsMax =   3.55037818589032E-10  1.89619704194469E-02
 cg2d: Sum(rhs),rhsMax =   3.55085544301303E-10  1.89617915186426E-02
 cg2d: Sum(rhs),rhsMax =   3.55140555852174E-10  1.89616211594257E-02
 cg2d: Sum(rhs),rhsMax =   3.55191112633158E-10  1.89614594792011E-02
 cg2d: Sum(rhs),rhsMax =   3.55227652848455E-10  1.89613065952669E-02
 cg2d: Sum(rhs),rhsMax =   3.55271492780140E-10  1.89611626007596E-02
 cg2d: Sum(rhs),rhsMax =   3.55325005529927E-10  1.89610275654106E-02
 cg2d: Sum(rhs),rhsMax =   3.55364779269784E-10  1.89609015339263E-02
 cg2d: Sum(rhs),rhsMax =   3.55412185792936E-10  1.89607845266680E-02
 cg2d: Sum(rhs),rhsMax =   3.55457732692521E-10  1.89606765401602E-02
 cg2d: Sum(rhs),rhsMax =   3.55502488558201E-10  1.89605775452926E-02
 cg2d: Sum(rhs),rhsMax =   3.55543497421174E-10  1.89604874886201E-02
 cg2d: Sum(rhs),rhsMax =   3.55593970935431E-10  1.89604062636285E-02
 cg2d: Sum(rhs),rhsMax =   3.55637297388967E-10  1.89603337792350E-02
 cg2d: Sum(rhs),rhsMax =   3.55681886721193E-10  1.89602699414036E-02
 Computing Diagnostic #    26 "THETA   " (list#  1) Parms "SMR     MR      ", Count=     144
 Computing Diagnostic #    27 "SALT    " (list#  1) Parms "SMR     MR      ", Count=     144
 Computing Diagnostic #    30 "UVEL    " (list#  1) Parms "UUR     MR      ", Count=     144
             Vector  Mate for "UVEL    " :  Diagnostic #     31 "VVEL    " exists
 Computing Diagnostic #    32 "WVEL    " (list#  1) Parms "WM      LR      ", Count=     144
 Computing Diagnostic #    31 "VVEL    " (list#  1) Parms "VVR     MR      ", Count=     144
             Vector  Mate for "VVEL    " :  Diagnostic #     30 "UVEL    " exists
 Computing Diagnostic #   197 "BRGfwFlx" (list#  2) Parms "SM      MR      ", Count=     144
 Computing Diagnostic #   198 "BRGhtFlx" (list#  2) Parms "SM      MR      ", Count=     144
 Computing Diagnostic #   199 "BRGmltRt" (list#  2) Parms "SM      MR      ", Count=     144
 Computing Diagnostic #   201 "BRG_TauX" (list#  2) Parms "UU      MR      ", Count=    1728
 Computing Diagnostic #   202 "BRG_TauY" (list#  2) Parms "VV      MR      ", Count=    1728
 Computing Diagnostic #   203 "BRGhFacC" (list#  2) Parms "SM      MR      ", Count=    1728
 cg2d: Sum(rhs),rhsMax =   3.55721452294233E-10  1.89602146087722E-02
 cg2d: Sum(rhs),rhsMax =   3.55760421122397E-10  1.89601676038122E-02
 cg2d: Sum(rhs),rhsMax =   3.55800111595528E-10  1.89601287314240E-02
 cg2d: Sum(rhs),rhsMax =   3.55832141529788E-10  1.89600977745333E-02
 cg2d: Sum(rhs),rhsMax =   3.55880450109147E-10  1.89600745036986E-02
 cg2d: Sum(rhs),rhsMax =   3.55927246009635E-10  1.89600586706486E-02
 cg2d: Sum(rhs),rhsMax =   3.55970655729898E-10  1.89600500157804E-02
 cg2d: Sum(rhs),rhsMax =   3.56012233582170E-10  1.89600482621254E-02
 cg2d: Sum(rhs),rhsMax =   3.56054144501350E-10  1.89600531243095E-02
 cg2d: Sum(rhs),rhsMax =   3.56084564612225E-10  1.89600643016450E-02
 cg2d: Sum(rhs),rhsMax =   3.56127419220975E-10  1.89600814846663E-02
 cg2d: Sum(rhs),rhsMax =   3.56164861492481E-10  1.89601043550622E-02
 cg2d: Sum(rhs),rhsMax =   3.56199666984303E-10  1.89601325860058E-02
 cg2d: Sum(rhs),rhsMax =   3.56238899490435E-10  1.89601658448880E-02
 cg2d: Sum(rhs),rhsMax =   3.56277771174085E-10  1.89602037926732E-02
 cg2d: Sum(rhs),rhsMax =   3.56318349825635E-10  1.89602460888456E-02
 cg2d: Sum(rhs),rhsMax =   3.56364743270277E-10  1.89602923922744E-02
 cg2d: Sum(rhs),rhsMax =   3.56401408385665E-10  1.89603423615209E-02
 cg2d: Sum(rhs),rhsMax =   3.56443624616176E-10  1.89603956543465E-02
 cg2d: Sum(rhs),rhsMax =   3.56485493901992E-10  1.89604519355793E-02
 cg2d: Sum(rhs),rhsMax =   3.56532872669568E-10  1.89605108737514E-02
 cg2d: Sum(rhs),rhsMax =   3.56577475879583E-10  1.89605721442941E-02
 cg2d: Sum(rhs),rhsMax =   3.56615154073481E-10  1.89606354354254E-02
 cg2d: Sum(rhs),rhsMax =   3.56651139177266E-10  1.89607004376901E-02
 cg2d: Sum(rhs),rhsMax =   3.56694257463985E-10  1.89607668543948E-02
 cg2d: Sum(rhs),rhsMax =   3.56729326633776E-10  1.89608344025429E-02
 cg2d: Sum(rhs),rhsMax =   3.56769475073904E-10  1.89609028077376E-02
 cg2d: Sum(rhs),rhsMax =   3.56812718260713E-10  1.89609718115293E-02
 cg2d: Sum(rhs),rhsMax =   3.56855087146890E-10  1.89610411700802E-02
 cg2d: Sum(rhs),rhsMax =   3.56898788300697E-10  1.89611106543938E-02
 cg2d: Sum(rhs),rhsMax =   3.56938159584708E-10  1.89611800486305E-02
 cg2d: Sum(rhs),rhsMax =   3.56984455884835E-10  1.89612491604175E-02
 cg2d: Sum(rhs),rhsMax =   3.57024507180448E-10  1.89613177994272E-02
 cg2d: Sum(rhs),rhsMax =   3.57058452249426E-10  1.89613857909513E-02
 cg2d: Sum(rhs),rhsMax =   3.57097088010683E-10  1.89614529909610E-02
 cg2d: Sum(rhs),rhsMax =   3.57131546557810E-10  1.89615192731882E-02
 cg2d: Sum(rhs),rhsMax =   3.57162424635682E-10  1.89615845329064E-02
 cg2d: Sum(rhs),rhsMax =   3.57202420420144E-10  1.89616486824014E-02
 cg2d: Sum(rhs),rhsMax =   3.57244331339324E-10  1.89617116521321E-02
 cg2d: Sum(rhs),rhsMax =   3.57274265727625E-10  1.89617733911241E-02
 cg2d: Sum(rhs),rhsMax =   3.57303381326446E-10  1.89618338651489E-02
 cg2d: Sum(rhs),rhsMax =   3.57334190015379E-10  1.89618930605448E-02
 cg2d: Sum(rhs),rhsMax =   3.57384011273609E-10  1.89619509739392E-02
 cg2d: Sum(rhs),rhsMax =   3.57416665708321E-10  1.89620076241712E-02
 cg2d: Sum(rhs),rhsMax =   3.57452470400865E-10  1.89620630413118E-02
 cg2d: Sum(rhs),rhsMax =   3.57492105362844E-10  1.89621172744403E-02
 cg2d: Sum(rhs),rhsMax =   3.57524662653042E-10  1.89621703828506E-02
 cg2d: Sum(rhs),rhsMax =   3.57577592535741E-10  1.89622224363253E-02
 cg2d: Sum(rhs),rhsMax =   3.57613660906253E-10  1.89622735181609E-02
 cg2d: Sum(rhs),rhsMax =   3.57647134130445E-10  1.89623237244026E-02
 cg2d: Sum(rhs),rhsMax =   3.57679399987099E-10  1.89623731553825E-02
 cg2d: Sum(rhs),rhsMax =   3.57732718447856E-10  1.89624219240141E-02
 cg2d: Sum(rhs),rhsMax =   3.57751633872638E-10  1.89624701467010E-02
 cg2d: Sum(rhs),rhsMax =   3.57808324635833E-10  1.89625179463794E-02
 cg2d: Sum(rhs),rhsMax =   3.57845086895736E-10  1.89625654516063E-02
 cg2d: Sum(rhs),rhsMax =   3.57877907863902E-10  1.89626127884802E-02
 cg2d: Sum(rhs),rhsMax =   3.57923399252336E-10  1.89626600920112E-02
 cg2d: Sum(rhs),rhsMax =   3.57964838326730E-10  1.89627074897072E-02
 cg2d: Sum(rhs),rhsMax =   3.57998811151283E-10  1.89627551126887E-02
 cg2d: Sum(rhs),rhsMax =   3.58054433324817E-10  1.89628030871607E-02
 cg2d: Sum(rhs),rhsMax =   3.58090807006661E-10  1.89628515355509E-02
 cg2d: Sum(rhs),rhsMax =   3.58139420897352E-10  1.89629005758157E-02
 cg2d: Sum(rhs),rhsMax =   3.58176474590799E-10  1.89629627612772E-02
 cg2d: Sum(rhs),rhsMax =   3.58210447415352E-10  1.89630230127475E-02
 cg2d: Sum(rhs),rhsMax =   3.58257576382748E-10  1.89630838567140E-02
 cg2d: Sum(rhs),rhsMax =   3.58294727220709E-10  1.89631455375733E-02
 cg2d: Sum(rhs),rhsMax =   3.58334376060476E-10  1.89632080902537E-02
 cg2d: Sum(rhs),rhsMax =   3.58378396403403E-10  1.89632715501506E-02
 cg2d: Sum(rhs),rhsMax =   3.58428717261994E-10  1.89633359280801E-02
 cg2d: Sum(rhs),rhsMax =   3.58454002591380E-10  1.89634012267979E-02
 cg2d: Sum(rhs),rhsMax =   3.58497787011913E-10  1.89634674328284E-02
 cg2d: Sum(rhs),rhsMax =   3.58533785993487E-10  1.89635345193739E-02
 cg2d: Sum(rhs),rhsMax =   3.58571533576324E-10  1.89636024478650E-02
 cg2d: Sum(rhs),rhsMax =   3.58612764483901E-10  1.89636711631280E-02
 cg2d: Sum(rhs),rhsMax =   3.58651205956129E-10  1.89637405954043E-02
 cg2d: Sum(rhs),rhsMax =   3.58684651424745E-10  1.89638106643691E-02
 cg2d: Sum(rhs),rhsMax =   3.58724480675754E-10  1.89638812692993E-02
 cg2d: Sum(rhs),rhsMax =   3.58755705698321E-10  1.89639523005704E-02
 cg2d: Sum(rhs),rhsMax =   3.58797339061745E-10  1.89640236294749E-02
 cg2d: Sum(rhs),rhsMax =   3.58838597724898E-10  1.89640951161507E-02
 cg2d: Sum(rhs),rhsMax =   3.58891402707506E-10  1.89641666059850E-02
 cg2d: Sum(rhs),rhsMax =   3.58918381127005E-10  1.89642379346679E-02
 cg2d: Sum(rhs),rhsMax =   3.58956711576930E-10  1.89643089188452E-02
 cg2d: Sum(rhs),rhsMax =   3.59010030037687E-10  1.89643793608905E-02
 cg2d: Sum(rhs),rhsMax =   3.59055771226302E-10  1.89644491728333E-02
 cg2d: Sum(rhs),rhsMax =   3.59089855073158E-10  1.89645180852007E-02
 cg2d: Sum(rhs),rhsMax =   3.59134041949538E-10  1.89645860711991E-02
 cg2d: Sum(rhs),rhsMax =   3.59169624597477E-10  1.89646541835256E-02
 cg2d: Sum(rhs),rhsMax =   3.59214616385550E-10  1.89647210284185E-02
 cg2d: Sum(rhs),rhsMax =   3.59247798176199E-10  1.89647863607042E-02
 cg2d: Sum(rhs),rhsMax =   3.59303684027701E-10  1.89648499981085E-02
 cg2d: Sum(rhs),rhsMax =   3.59353602430446E-10  1.89649117308889E-02
 cg2d: Sum(rhs),rhsMax =   3.59395846416533E-10  1.89649713252216E-02
 cg2d: Sum(rhs),rhsMax =   3.59421423179462E-10  1.89650285466966E-02
 cg2d: Sum(rhs),rhsMax =   3.59473104061259E-10  1.89650831612150E-02
 cg2d: Sum(rhs),rhsMax =   3.59512405956330E-10  1.89651349249053E-02
 cg2d: Sum(rhs),rhsMax =   3.59551027839800E-10  1.89651835909840E-02
 cg2d: Sum(rhs),rhsMax =   3.59590315857083E-10  1.89652289098916E-02
 cg2d: Sum(rhs),rhsMax =   3.59615004441594E-10  1.89652706255456E-02
 cg2d: Sum(rhs),rhsMax =   3.59649005021723E-10  1.89653084805622E-02
 cg2d: Sum(rhs),rhsMax =   3.59683699491242E-10  1.89653422201109E-02
 cg2d: Sum(rhs),rhsMax =   3.59726026744056E-10  1.89653715886627E-02
 cg2d: Sum(rhs),rhsMax =   3.59766258450911E-10  1.89653963300732E-02
 cg2d: Sum(rhs),rhsMax =   3.59801285987338E-10  1.89654161959429E-02
 cg2d: Sum(rhs),rhsMax =   3.59845514497081E-10  1.89654309353492E-02
 cg2d: Sum(rhs),rhsMax =   3.59872215360824E-10  1.89654403137680E-02
 cg2d: Sum(rhs),rhsMax =   3.59907048608221E-10  1.89654440965724E-02
 cg2d: Sum(rhs),rhsMax =   3.59956162099273E-10  1.89654420568808E-02
 cg2d: Sum(rhs),rhsMax =   3.59999502430597E-10  1.89654339787316E-02
 cg2d: Sum(rhs),rhsMax =   3.60039151270364E-10  1.89654196547600E-02
 cg2d: Sum(rhs),rhsMax =   3.60080465444668E-10  1.89653988909585E-02
 cg2d: Sum(rhs),rhsMax =   3.60102586638433E-10  1.89653715078565E-02
 cg2d: Sum(rhs),rhsMax =   3.60143456723527E-10  1.89653373874635E-02
 cg2d: Sum(rhs),rhsMax =   3.60177707103837E-10  1.89652963895613E-02
 cg2d: Sum(rhs),rhsMax =   3.60223337270149E-10  1.89652483209272E-02
 cg2d: Sum(rhs),rhsMax =   3.60276128374970E-10  1.89651930154146E-02
 cg2d: Sum(rhs),rhsMax =   3.60319551973021E-10  1.89651303750216E-02
 cg2d: Sum(rhs),rhsMax =   3.60370969176849E-10  1.89650603458543E-02
 cg2d: Sum(rhs),rhsMax =   3.60406579580363E-10  1.89649828823223E-02
 cg2d: Sum(rhs),rhsMax =   3.60450752578956E-10  1.89648979509647E-02
 cg2d: Sum(rhs),rhsMax =   3.60495369666758E-10  1.89648055300473E-02
 cg2d: Sum(rhs),rhsMax =   3.60544802346929E-10  1.89647056158367E-02
 cg2d: Sum(rhs),rhsMax =   3.60594026860284E-10  1.89645982259778E-02
 cg2d: Sum(rhs),rhsMax =   3.60642390950794E-10  1.89644833988614E-02
 cg2d: Sum(rhs),rhsMax =   3.60675017629930E-10  1.89643611904173E-02
 cg2d: Sum(rhs),rhsMax =   3.60718094283285E-10  1.89642316783635E-02
 cg2d: Sum(rhs),rhsMax =   3.60770496810048E-10  1.89640949627654E-02
 cg2d: Sum(rhs),rhsMax =   3.60806953758619E-10  1.89639511626518E-02
 cg2d: Sum(rhs),rhsMax =   3.60855803571702E-10  1.89638004179098E-02
 cg2d: Sum(rhs),rhsMax =   3.60882934646867E-10  1.89636428922589E-02
 cg2d: Sum(rhs),rhsMax =   3.60925886400132E-10  1.89634787670567E-02
 cg2d: Sum(rhs),rhsMax =   3.60972460256015E-10  1.89633082411213E-02
 cg2d: Sum(rhs),rhsMax =   3.61013247074382E-10  1.89631315351381E-02
 cg2d: Sum(rhs),rhsMax =   3.61059140918663E-10  1.89629488836104E-02
 cg2d: Sum(rhs),rhsMax =   3.61098373424795E-10  1.89627605399369E-02
 cg2d: Sum(rhs),rhsMax =   3.61145294225373E-10  1.89625667700589E-02
 cg2d: Sum(rhs),rhsMax =   3.61201429877056E-10  1.89623678519454E-02
 cg2d: Sum(rhs),rhsMax =   3.61246976776641E-10  1.89621642277614E-02
 cg2d: Sum(rhs),rhsMax =   3.61290830586114E-10  1.89619562630658E-02
 cg2d: Sum(rhs),rhsMax =   3.61321125796898E-10  1.89617442728961E-02
 cg2d: Sum(rhs),rhsMax =   3.61356125577750E-10  1.89615285722546E-02
 cg2d: Sum(rhs),rhsMax =   3.61410026905595E-10  1.89613094903071E-02
 cg2d: Sum(rhs),rhsMax =   3.61468452392266E-10  1.89610873569181E-02
 cg2d: Sum(rhs),rhsMax =   3.61498511680658E-10  1.89608625125859E-02
 Computing Diagnostic #    26 "THETA   " (list#  1) Parms "SMR     MR      ", Count=     144
 Computing Diagnostic #    27 "SALT    " (list#  1) Parms "SMR     MR      ", Count=     144
 Computing Diagnostic #    30 "UVEL    " (list#  1) Parms "UUR     MR      ", Count=     144
             Vector  Mate for "UVEL    " :  Diagnostic #     31 "VVEL    " exists
 Computing Diagnostic #    32 "WVEL    " (list#  1) Parms "WM      LR      ", Count=     144
 Computing Diagnostic #    31 "VVEL    " (list#  1) Parms "VVR     MR      ", Count=     144
             Vector  Mate for "VVEL    " :  Diagnostic #     30 "UVEL    " exists
 Computing Diagnostic #   197 "BRGfwFlx" (list#  2) Parms "SM      MR      ", Count=     144
 Computing Diagnostic #   198 "BRGhtFlx" (list#  2) Parms "SM      MR      ", Count=     144
 Computing Diagnostic #   199 "BRGmltRt" (list#  2) Parms "SM      MR      ", Count=     144
 Computing Diagnostic #   201 "BRG_TauX" (list#  2) Parms "UU      MR      ", Count=    1728
 Computing Diagnostic #   202 "BRG_TauY" (list#  2) Parms "VV      MR      ", Count=    1728
 Computing Diagnostic #   203 "BRGhFacC" (list#  2) Parms "SM      MR      ", Count=    1728
 cg2d: Sum(rhs),rhsMax =   3.61552662808684E-10  1.89606352932167E-02
 cg2d: Sum(rhs),rhsMax =   3.61592186748361E-10  1.89604060402543E-02
 cg2d: Sum(rhs),rhsMax =   3.61632848666638E-10  1.89601750944406E-02
 cg2d: Sum(rhs),rhsMax =   3.61676244509113E-10  1.89599427931376E-02
 cg2d: Sum(rhs),rhsMax =   3.61725704944860E-10  1.89597094244421E-02
 cg2d: Sum(rhs),rhsMax =   3.61784088798167E-10  1.89594753452005E-02
 cg2d: Sum(rhs),rhsMax =   3.61830274075992E-10  1.89592409231520E-02
 cg2d: Sum(rhs),rhsMax =   3.61877264265509E-10  1.89590064828520E-02
 cg2d: Sum(rhs),rhsMax =   3.61917107394305E-10  1.89587723176479E-02
 cg2d: Sum(rhs),rhsMax =   3.61965443729240E-10  1.89585387174695E-02
 cg2d: Sum(rhs),rhsMax =   3.62001081888330E-10  1.89583059631198E-02
 cg2d: Sum(rhs),rhsMax =   3.62036470247240E-10  1.89580743239559E-02
 cg2d: Sum(rhs),rhsMax =   3.62093299788313E-10  1.89578440575328E-02
 cg2d: Sum(rhs),rhsMax =   3.62139707110742E-10  1.89576154088913E-02
 cg2d: Sum(rhs),rhsMax =   3.62177038359945E-10  1.89573886069888E-02
 cg2d: Sum(rhs),rhsMax =   3.62211913240706E-10  1.89571638671042E-02
 cg2d: Sum(rhs),rhsMax =   3.62247107310587E-10  1.89569413841352E-02
 cg2d: Sum(rhs),rhsMax =   3.62296512235183E-10  1.89567213379989E-02
 cg2d: Sum(rhs),rhsMax =   3.62334329206959E-10  1.89565038859244E-02
 cg2d: Sum(rhs),rhsMax =   3.62383081875528E-10  1.89562891671983E-02
 cg2d: Sum(rhs),rhsMax =   3.62425825461976E-10  1.89560772991166E-02
 cg2d: Sum(rhs),rhsMax =   3.62475591209055E-10  1.89558683791569E-02
 cg2d: Sum(rhs),rhsMax =   3.62512270202231E-10  1.89556624810808E-02
 cg2d: Sum(rhs),rhsMax =   3.62543439713647E-10  1.89554596583385E-02
 cg2d: Sum(rhs),rhsMax =   3.62593413627543E-10  1.89552599423258E-02
 cg2d: Sum(rhs),rhsMax =   3.62631855099771E-10  1.89550633444350E-02
 cg2d: Sum(rhs),rhsMax =   3.62671337406084E-10  1.89548698525393E-02
 cg2d: Sum(rhs),rhsMax =   3.62711138901517E-10  1.89546794092077E-02
 cg2d: Sum(rhs),rhsMax =   3.62755950278348E-10  1.89544919567892E-02
 cg2d: Sum(rhs),rhsMax =   3.62802704545473E-10  1.89543074218157E-02
 cg2d: Sum(rhs),rhsMax =   3.62839383538649E-10  1.89541257120580E-02
 cg2d: Sum(rhs),rhsMax =   3.62877505821757E-10  1.89539467157379E-02
 cg2d: Sum(rhs),rhsMax =   3.62931643071995E-10  1.89537703032799E-02
 cg2d: Sum(rhs),rhsMax =   3.62970278833252E-10  1.89535963281231E-02
 cg2d: Sum(rhs),rhsMax =   3.63000851599793E-10  1.89534246243859E-02
 cg2d: Sum(rhs),rhsMax =   3.63048063833915E-10  1.89532550127358E-02
 cg2d: Sum(rhs),rhsMax =   3.63080440712871E-10  1.89530872942629E-02
 cg2d: Sum(rhs),rhsMax =   3.63124932900583E-10  1.89529212628410E-02
 cg2d: Sum(rhs),rhsMax =   3.63159669003466E-10  1.89527566919320E-02
 cg2d: Sum(rhs),rhsMax =   3.63207366960161E-10  1.89525933464062E-02
 cg2d: Sum(rhs),rhsMax =   3.63236440925618E-10  1.89524309787969E-02
 cg2d: Sum(rhs),rhsMax =   3.63276200787688E-10  1.89522693341892E-02
 cg2d: Sum(rhs),rhsMax =   3.63322677499056E-10  1.89521081475495E-02
 cg2d: Sum(rhs),rhsMax =   3.63363436561848E-10  1.89519471472504E-02
 cg2d: Sum(rhs),rhsMax =   3.63402141712044E-10  1.89517860550983E-02
 cg2d: Sum(rhs),rhsMax =   3.63458610430634E-10  1.89516245910077E-02
 cg2d: Sum(rhs),rhsMax =   3.63504157330219E-10  1.89514624692194E-02
 cg2d: Sum(rhs),rhsMax =   3.63550023418924E-10  1.89512994017957E-02
 cg2d: Sum(rhs),rhsMax =   3.63594376828758E-10  1.89511351024998E-02
 cg2d: Sum(rhs),rhsMax =   3.63634095057463E-10  1.89509692848373E-02
 cg2d: Sum(rhs),rhsMax =   3.63673827163957E-10  1.89508016644158E-02
 cg2d: Sum(rhs),rhsMax =   3.63708466122326E-10  1.89506319586156E-02
 cg2d: Sum(rhs),rhsMax =   3.63749058651663E-10  1.89504598908187E-02
 cg2d: Sum(rhs),rhsMax =   3.63791025081994E-10  1.89502851907489E-02
 cg2d: Sum(rhs),rhsMax =   3.63842414530247E-10  1.89501075847354E-02
 cg2d: Sum(rhs),rhsMax =   3.63879912312903E-10  1.89499268245044E-02
 cg2d: Sum(rhs),rhsMax =   3.63931509927973E-10  1.89497426699819E-02
 cg2d: Sum(rhs),rhsMax =   3.63973240435911E-10  1.89495548847574E-02
 cg2d: Sum(rhs),rhsMax =   3.64017219145474E-10  1.89493632393615E-02
 cg2d: Sum(rhs),rhsMax =   3.64050817269757E-10  1.89491675207933E-02
 cg2d: Sum(rhs),rhsMax =   3.64100222194352E-10  1.89489675300416E-02
 cg2d: Sum(rhs),rhsMax =   3.64146476861116E-10  1.89487630791156E-02
 cg2d: Sum(rhs),rhsMax =   3.64182795031809E-10  1.89485539985420E-02
 cg2d: Sum(rhs),rhsMax =   3.64221416915278E-10  1.89483401324331E-02
 cg2d: Sum(rhs),rhsMax =   3.64281410591971E-10  1.89481213393668E-02
 cg2d: Sum(rhs),rhsMax =   3.64318783474538E-10  1.89478974910015E-02
 cg2d: Sum(rhs),rhsMax =   3.64359639681844E-10  1.89476684826029E-02
 cg2d: Sum(rhs),rhsMax =   3.64408461739352E-10  1.89474342271574E-02
 cg2d: Sum(rhs),rhsMax =   3.64441948841332E-10  1.89471946483753E-02
 cg2d: Sum(rhs),rhsMax =   3.64489952109359E-10  1.89469496891842E-02
 cg2d: Sum(rhs),rhsMax =   3.64527991125740E-10  1.89466993135072E-02
 cg2d: Sum(rhs),rhsMax =   3.64569763267042E-10  1.89464434996621E-02
 cg2d: Sum(rhs),rhsMax =   3.64602528724056E-10  1.89461822431799E-02
 cg2d: Sum(rhs),rhsMax =   3.64658428453346E-10  1.89459155595516E-02
 cg2d: Sum(rhs),rhsMax =   3.64703392485843E-10  1.89456434786400E-02
 cg2d: Sum(rhs),rhsMax =   3.64756058690574E-10  1.89453660496759E-02
 cg2d: Sum(rhs),rhsMax =   3.64807975494763E-10  1.89450833379203E-02
 cg2d: Sum(rhs),rhsMax =   3.64850885614665E-10  1.89447954222127E-02
 cg2d: Sum(rhs),rhsMax =   3.64896432514250E-10  1.89445023996869E-02
 cg2d: Sum(rhs),rhsMax =   3.64940452857176E-10  1.89442043844835E-02
 cg2d: Sum(rhs),rhsMax =   3.64979255151887E-10  1.89439014995800E-02
 cg2d: Sum(rhs),rhsMax =   3.65027230664339E-10  1.89435938846128E-02
 cg2d: Sum(rhs),rhsMax =   3.65060287554897E-10  1.89432816964374E-02
 cg2d: Sum(rhs),rhsMax =   3.65102101329562E-10  1.89429650981568E-02
 cg2d: Sum(rhs),rhsMax =   3.65157126758220E-10  1.89426442665668E-02
 cg2d: Sum(rhs),rhsMax =   3.65197344587287E-10  1.89423193896805E-02
 cg2d: Sum(rhs),rhsMax =   3.65245889089039E-10  1.89419906676291E-02
 cg2d: Sum(rhs),rhsMax =   3.65296556892325E-10  1.89416583050989E-02
 cg2d: Sum(rhs),rhsMax =   3.65345656505589E-10  1.89413225187697E-02
 cg2d: Sum(rhs),rhsMax =   3.65391730761111E-10  1.89409835303889E-02
 cg2d: Sum(rhs),rhsMax =   3.65426994219931E-10  1.89406415689163E-02
 cg2d: Sum(rhs),rhsMax =   3.65476607311344E-10  1.89402968680754E-02
 cg2d: Sum(rhs),rhsMax =   3.65515340217115E-10  1.89399496670868E-02
 cg2d: Sum(rhs),rhsMax =   3.65565439031101E-10  1.89396002088012E-02
 cg2d: Sum(rhs),rhsMax =   3.65612345953892E-10  1.89392487357654E-02
 cg2d: Sum(rhs),rhsMax =   3.65666788515462E-10  1.89388954954571E-02
 cg2d: Sum(rhs),rhsMax =   3.65717608974414E-10  1.89385407360867E-02
 cg2d: Sum(rhs),rhsMax =   3.65766208987317E-10  1.89381847017844E-02
 cg2d: Sum(rhs),rhsMax =   3.65821636871821E-10  1.89378276383040E-02
 cg2d: Sum(rhs),rhsMax =   3.65876176577906E-10  1.89374697906568E-02
 cg2d: Sum(rhs),rhsMax =   3.65929328505210E-10  1.89371114005815E-02
 cg2d: Sum(rhs),rhsMax =   3.65968130799921E-10  1.89367527061108E-02
 cg2d: Sum(rhs),rhsMax =   3.66021948861039E-10  1.89363939402638E-02
 cg2d: Sum(rhs),rhsMax =   3.66062097301167E-10  1.89360353292085E-02
 cg2d: Sum(rhs),rhsMax =   3.66108310334567E-10  1.89356770976073E-02
 cg2d: Sum(rhs),rhsMax =   3.66158992015642E-10  1.89353194636878E-02
 cg2d: Sum(rhs),rhsMax =   3.66209687574504E-10  1.89349626349586E-02
 cg2d: Sum(rhs),rhsMax =   3.66263783191378E-10  1.89346068147466E-02
 cg2d: Sum(rhs),rhsMax =   3.66308705590512E-10  1.89342521972402E-02
 cg2d: Sum(rhs),rhsMax =   3.66346397662198E-10  1.89338989714770E-02
 cg2d: Sum(rhs),rhsMax =   3.66391347816908E-10  1.89335473138964E-02
 cg2d: Sum(rhs),rhsMax =   3.66455366052065E-10  1.89331973943662E-02
 cg2d: Sum(rhs),rhsMax =   3.66489533165648E-10  1.89328493734952E-02
 cg2d: Sum(rhs),rhsMax =   3.66545696572906E-10  1.89325034030861E-02
 cg2d: Sum(rhs),rhsMax =   3.66589245071047E-10  1.89321596216462E-02
 cg2d: Sum(rhs),rhsMax =   3.66646796257086E-10  1.89318181627045E-02
 cg2d: Sum(rhs),rhsMax =   3.66687027963941E-10  1.89314791527392E-02
 cg2d: Sum(rhs),rhsMax =   3.66735322665512E-10  1.89311427004956E-02
 cg2d: Sum(rhs),rhsMax =   3.66785990468799E-10  1.89308089077931E-02
 cg2d: Sum(rhs),rhsMax =   3.66843083687840E-10  1.89304778698804E-02
 cg2d: Sum(rhs),rhsMax =   3.66896374393022E-10  1.89301496784238E-02
 cg2d: Sum(rhs),rhsMax =   3.66934066464708E-10  1.89298244627641E-02
 cg2d: Sum(rhs),rhsMax =   3.66969454823618E-10  1.89295022917007E-02
 cg2d: Sum(rhs),rhsMax =   3.67016653179952E-10  1.89291832206281E-02
 cg2d: Sum(rhs),rhsMax =   3.67062769068838E-10  1.89288672978769E-02
 cg2d: Sum(rhs),rhsMax =   3.67109911914021E-10  1.89285545635654E-02
 cg2d: Sum(rhs),rhsMax =   3.67154751046428E-10  1.89282450504977E-02
 cg2d: Sum(rhs),rhsMax =   3.67206251516983E-10  1.89279387821722E-02
 cg2d: Sum(rhs),rhsMax =   3.67253116806410E-10  1.89276357765159E-02
 cg2d: Sum(rhs),rhsMax =   3.67291988490059E-10  1.89273360436875E-02
 cg2d: Sum(rhs),rhsMax =   3.67330346695560E-10  1.89270395891376E-02
 cg2d: Sum(rhs),rhsMax =   3.67380501020698E-10  1.89267464096045E-02
 cg2d: Sum(rhs),rhsMax =   3.67423674818568E-10  1.89264565031519E-02
 cg2d: Sum(rhs),rhsMax =   3.67468319661945E-10  1.89261698551658E-02
 cg2d: Sum(rhs),rhsMax =   3.67519570332320E-10  1.89258864510446E-02
 cg2d: Sum(rhs),rhsMax =   3.67570140991091E-10  1.89256063259181E-02
 cg2d: Sum(rhs),rhsMax =   3.67614827467833E-10  1.89253296189976E-02
 cg2d: Sum(rhs),rhsMax =   3.67657501665342E-10  1.89250563099649E-02
 cg2d: Sum(rhs),rhsMax =   3.67713082205512E-10  1.89247863686670E-02
 cg2d: Sum(rhs),rhsMax =   3.67745486840043E-10  1.89245197615973E-02
 cg2d: Sum(rhs),rhsMax =   3.67792657440802E-10  1.89242564564348E-02
 cg2d: Sum(rhs),rhsMax =   3.67833083436686E-10  1.89239964135879E-02
 cg2d: Sum(rhs),rhsMax =   3.67876021312163E-10  1.89237396009315E-02
 cg2d: Sum(rhs),rhsMax =   3.67937388889850E-10  1.89234859793945E-02
(PID.TID 0000.0001)      cg2d_init_res =   9.03524393329826E-05
(PID.TID 0000.0001)      cg2d_iters(min,last) =      -1      39
(PID.TID 0000.0001)      cg2d_last_res =   6.53658716525775E-14
(PID.TID 0000.0001) // =======================================================
(PID.TID 0000.0001) // Begin MONITOR dynamic field statistics
(PID.TID 0000.0001) // =======================================================
(PID.TID 0000.0001) %MON time_tsnumber                =                 10368
(PID.TID 0000.0001) %MON time_secondsf                =   2.5920000000000E+05
(PID.TID 0000.0001) %MON dynstat_eta_max              =   5.6047484617159E-03
(PID.TID 0000.0001) %MON dynstat_eta_min              =  -2.7179024290180E-03
(PID.TID 0000.0001) %MON dynstat_eta_mean             =  -4.6629672136995E-14
(PID.TID 0000.0001) %MON dynstat_eta_sd               =   2.8305341811381E-03
(PID.TID 0000.0001) %MON dynstat_eta_del2             =   2.4104237288371E-05
(PID.TID 0000.0001) %MON dynstat_uvel_max             =   4.8891777767385E-02
(PID.TID 0000.0001) %MON dynstat_uvel_min             =  -3.2311447094685E-02
(PID.TID 0000.0001) %MON dynstat_uvel_mean            =   3.9377625933487E-09
(PID.TID 0000.0001) %MON dynstat_uvel_sd              =   6.0060621841566E-03
(PID.TID 0000.0001) %MON dynstat_uvel_del2            =   1.0514135563490E-04
(PID.TID 0000.0001) %MON dynstat_vvel_max             =   2.1243660889453E-02
(PID.TID 0000.0001) %MON dynstat_vvel_min             =  -3.2563683113698E-02
(PID.TID 0000.0001) %MON dynstat_vvel_mean            =  -8.0919744959887E-03
(PID.TID 0000.0001) %MON dynstat_vvel_sd              =   1.1355896909525E-02
(PID.TID 0000.0001) %MON dynstat_vvel_del2            =   9.3424868383940E-05
(PID.TID 0000.0001) %MON dynstat_wvel_max             =   1.3403188304382E-03
(PID.TID 0000.0001) %MON dynstat_wvel_min             =  -1.0856810903578E-03
(PID.TID 0000.0001) %MON dynstat_wvel_mean            =   4.1594088021685E-22
(PID.TID 0000.0001) %MON dynstat_wvel_sd              =   1.2603054164216E-04
(PID.TID 0000.0001) %MON dynstat_wvel_del2            =   6.1776844802342E-06
(PID.TID 0000.0001) %MON dynstat_theta_max            =   2.6931451612903E+00
(PID.TID 0000.0001) %MON dynstat_theta_min            =  -3.0191080714032E-01
(PID.TID 0000.0001) %MON dynstat_theta_mean           =   2.2337025422973E+00
(PID.TID 0000.0001) %MON dynstat_theta_sd             =   4.8822489999619E-01
(PID.TID 0000.0001) %MON dynstat_theta_del2           =   1.4647757185194E-03
(PID.TID 0000.0001) %MON dynstat_salt_max             =   3.4699999999999E+01
(PID.TID 0000.0001) %MON dynstat_salt_min             =   3.3019069763414E+01
(PID.TID 0000.0001) %MON dynstat_salt_mean            =   3.4364596923891E+01
(PID.TID 0000.0001) %MON dynstat_salt_sd              =   3.2173624885516E-01
(PID.TID 0000.0001) %MON dynstat_salt_del2            =   2.0080436545212E-04
(PID.TID 0000.0001) %MON advcfl_uvel_max              =   2.4445888883692E-03
(PID.TID 0000.0001) %MON advcfl_vvel_max              =   1.6281841556849E-03
(PID.TID 0000.0001) %MON advcfl_wvel_max              =   6.4185416023809E-04
(PID.TID 0000.0001) %MON advcfl_W_hf_max              =   1.8626198141746E-03
(PID.TID 0000.0001) %MON pe_b_mean                    =   6.6846932020662E-08
(PID.TID 0000.0001) %MON ke_max                       =   1.1343872950667E-03
(PID.TID 0000.0001) %MON ke_mean                      =   1.0529795999514E-04
(PID.TID 0000.0001) %MON ke_vol                       =   3.2921708585402E+10
(PID.TID 0000.0001) // =======================================================
(PID.TID 0000.0001) // End MONITOR dynamic field statistics
(PID.TID 0000.0001) // =======================================================
(PID.TID 0000.0001) // =======================================================
(PID.TID 0000.0001) // Begin OBCS MONITOR field statistics
(PID.TID 0000.0001) // =======================================================
(PID.TID 0000.0001) %MON obc_E_uVel_max               =   0.0000000000000E+00
(PID.TID 0000.0001) %MON obc_E_uVel_min               =   0.0000000000000E+00
(PID.TID 0000.0001) %MON obc_E_uVel_mean              =   0.0000000000000E+00
(PID.TID 0000.0001) %MON obc_E_uVel_sd                =   0.0000000000000E+00
(PID.TID 0000.0001) %MON obc_E_uVel_Int               =   0.0000000000000E+00
(PID.TID 0000.0001) %MON obc_N_vVel_max               =  -3.6115799844846E-05
(PID.TID 0000.0001) %MON obc_N_vVel_min               =  -3.0000000000000E-02
(PID.TID 0000.0001) %MON obc_N_vVel_mean              =  -1.3225455303334E-02
(PID.TID 0000.0001) %MON obc_N_vVel_sd                =   1.1350864292742E-02
(PID.TID 0000.0001) %MON obc_N_vVel_Int               =  -5.9514548865004E+04
(PID.TID 0000.0001) %MON obc_S_vVel_max               =  -3.6115799844846E-05
(PID.TID 0000.0001) %MON obc_S_vVel_min               =  -3.0000000000000E-02
(PID.TID 0000.0001) %MON obc_S_vVel_mean              =  -1.3225455303334E-02
(PID.TID 0000.0001) %MON obc_S_vVel_sd                =   1.1350864292742E-02
(PID.TID 0000.0001) %MON obc_S_vVel_Int               =  -5.9514548865004E+04
(PID.TID 0000.0001) // =======================================================
(PID.TID 0000.0001) // End OBCS MONITOR field statistics
(PID.TID 0000.0001) // =======================================================
 Computing Diagnostic #    26 "THETA   " (list#  1) Parms "SMR     MR      ", Count=     144
 Computing Diagnostic #    27 "SALT    " (list#  1) Parms "SMR     MR      ", Count=     144
 Computing Diagnostic #    30 "UVEL    " (list#  1) Parms "UUR     MR      ", Count=     144
             Vector  Mate for "UVEL    " :  Diagnostic #     31 "VVEL    " exists
 Computing Diagnostic #    32 "WVEL    " (list#  1) Parms "WM      LR      ", Count=     144
 Computing Diagnostic #    31 "VVEL    " (list#  1) Parms "VVR     MR      ", Count=     144
             Vector  Mate for "VVEL    " :  Diagnostic #     30 "UVEL    " exists
 Computing Diagnostic #   197 "BRGfwFlx" (list#  2) Parms "SM      MR      ", Count=     144
 Computing Diagnostic #   198 "BRGhtFlx" (list#  2) Parms "SM      MR      ", Count=     144
 Computing Diagnostic #   199 "BRGmltRt" (list#  2) Parms "SM      MR      ", Count=     144
 Computing Diagnostic #   201 "BRG_TauX" (list#  2) Parms "UU      MR      ", Count=    1728
 Computing Diagnostic #   202 "BRG_TauY" (list#  2) Parms "VV      MR      ", Count=    1728
 Computing Diagnostic #   203 "BRGhFacC" (list#  2) Parms "SM      MR      ", Count=    1728
(PID.TID 0000.0001) %CHECKPOINT     10368 0000010368
 cg2d: Sum(rhs),rhsMax =   3.67978286730519E-10  1.89232355079720E-02
 cg2d: Sum(rhs),rhsMax =   3.68026178976244E-10  1.89229881345932E-02
 cg2d: Sum(rhs),rhsMax =   3.68074057344181E-10  1.89227438479858E-02
 cg2d: Sum(rhs),rhsMax =   3.68114802529185E-10  1.89225026174009E-02
 cg2d: Sum(rhs),rhsMax =   3.68163291519785E-10  1.89222644016159E-02
 cg2d: Sum(rhs),rhsMax =   3.68200483991110E-10  1.89220291665438E-02
 cg2d: Sum(rhs),rhsMax =   3.68247640714081E-10  1.89217968816264E-02
 cg2d: Sum(rhs),rhsMax =   3.68279406970373E-10  1.89215675154638E-02
 cg2d: Sum(rhs),rhsMax =   3.68329769462328E-10  1.89213410416555E-02
 cg2d: Sum(rhs),rhsMax =   3.68383809568051E-10  1.89211174447434E-02
 cg2d: Sum(rhs),rhsMax =   3.68434990849487E-10  1.89208966676134E-02
 cg2d: Sum(rhs),rhsMax =   3.68483230039907E-10  1.89206787193798E-02
 cg2d: Sum(rhs),rhsMax =   3.68518049409516E-10  1.89204636010819E-02
 cg2d: Sum(rhs),rhsMax =   3.68561944852352E-10  1.89202512938809E-02
 cg2d: Sum(rhs),rhsMax =   3.68607727674330E-10  1.89200417884654E-02
 cg2d: Sum(rhs),rhsMax =   3.68653760296489E-10  1.89198350789780E-02
 cg2d: Sum(rhs),rhsMax =   3.68702041120272E-10  1.89196311621079E-02
 cg2d: Sum(rhs),rhsMax =   3.68750044388300E-10  1.89194300411937E-02
 cg2d: Sum(rhs),rhsMax =   3.68796160277185E-10  1.89192317216276E-02
 cg2d: Sum(rhs),rhsMax =   3.68844441100968E-10  1.89190362103275E-02
 cg2d: Sum(rhs),rhsMax =   3.68879315981729E-10  1.89188435197219E-02
 cg2d: Sum(rhs),rhsMax =   3.68926500460276E-10  1.89186536644483E-02
 cg2d: Sum(rhs),rhsMax =   3.68981650789024E-10  1.89184666606351E-02
 cg2d: Sum(rhs),rhsMax =   3.69025518476285E-10  1.89182825062079E-02
 cg2d: Sum(rhs),rhsMax =   3.69051969539846E-10  1.89181012682548E-02
 cg2d: Sum(rhs),rhsMax =   3.69096975205707E-10  1.89179229333653E-02
 cg2d: Sum(rhs),rhsMax =   3.69143854372922E-10  1.89177475268599E-02
 cg2d: Sum(rhs),rhsMax =   3.69173372427589E-10  1.89175750776475E-02
 cg2d: Sum(rhs),rhsMax =   3.69218780549296E-10  1.89174056136612E-02
 cg2d: Sum(rhs),rhsMax =   3.69258235100034E-10  1.89172391603324E-02
 cg2d: Sum(rhs),rhsMax =   3.69292874058402E-10  1.89170757458807E-02
 cg2d: Sum(rhs),rhsMax =   3.69345248829589E-10  1.89169153983762E-02
 cg2d: Sum(rhs),rhsMax =   3.69371297437304E-10  1.89167581431648E-02
 cg2d: Sum(rhs),rhsMax =   3.69417246792736E-10  1.89166040097813E-02
 cg2d: Sum(rhs),rhsMax =   3.69472272221394E-10  1.89164530244284E-02
 cg2d: Sum(rhs),rhsMax =   3.69516292564320E-10  1.89163052140871E-02
 cg2d: Sum(rhs),rhsMax =   3.69552929924133E-10  1.89161606034413E-02
 cg2d: Sum(rhs),rhsMax =   3.69595604121642E-10  1.89160192164497E-02
 cg2d: Sum(rhs),rhsMax =   3.69651406706417E-10  1.89158810722110E-02
 cg2d: Sum(rhs),rhsMax =   3.69693525792414E-10  1.89157461921807E-02
 cg2d: Sum(rhs),rhsMax =   3.69733507699088E-10  1.89156145923463E-02
 cg2d: Sum(rhs),rhsMax =   3.69780081554971E-10  1.89154862885072E-02
 cg2d: Sum(rhs),rhsMax =   3.69807615085982E-10  1.89153612889892E-02
 cg2d: Sum(rhs),rhsMax =   3.69855840398614E-10  1.89152396030757E-02
 cg2d: Sum(rhs),rhsMax =   3.69895877816440E-10  1.89151212364161E-02
 cg2d: Sum(rhs),rhsMax =   3.69935249100450E-10  1.89150061867661E-02
 cg2d: Sum(rhs),rhsMax =   3.69976105307757E-10  1.89148944526941E-02
 cg2d: Sum(rhs),rhsMax =   3.70006539296419E-10  1.89147860261604E-02
 cg2d: Sum(rhs),rhsMax =   3.70041233765939E-10  1.89146808967273E-02
 cg2d: Sum(rhs),rhsMax =   3.70097660851165E-10  1.89145790460303E-02
 cg2d: Sum(rhs),rhsMax =   3.70141362004972E-10  1.89144804553308E-02
 cg2d: Sum(rhs),rhsMax =   3.70181205133768E-10  1.89143850980290E-02
 cg2d: Sum(rhs),rhsMax =   3.70229458201976E-10  1.89142929460178E-02
 cg2d: Sum(rhs),rhsMax =   3.70277281058762E-10  1.89142039621243E-02
 cg2d: Sum(rhs),rhsMax =   3.70312280839613E-10  1.89141181099936E-02
 cg2d: Sum(rhs),rhsMax =   3.70359562462674E-10  1.89140353494716E-02
 cg2d: Sum(rhs),rhsMax =   3.70401306848400E-10  1.89139556266351E-02
 cg2d: Sum(rhs),rhsMax =   3.70441149977196E-10  1.89138788778295E-02
 cg2d: Sum(rhs),rhsMax =   3.70481978428927E-10  1.89138050535542E-02
 cg2d: Sum(rhs),rhsMax =   3.70522265646933E-10  1.89137340940413E-02
 cg2d: Sum(rhs),rhsMax =   3.70570393815051E-10  1.89136659250441E-02
 cg2d: Sum(rhs),rhsMax =   3.70616981548721E-10  1.89136004734389E-02
 cg2d: Sum(rhs),rhsMax =   3.70659294923747E-10  1.89135376626826E-02
 cg2d: Sum(rhs),rhsMax =   3.70705618979450E-10  1.89134774139480E-02
 cg2d: Sum(rhs),rhsMax =   3.70751707112760E-10  1.89134196418484E-02
 cg2d: Sum(rhs),rhsMax =   3.70785360748194E-10  1.89133642558062E-02
 cg2d: Sum(rhs),rhsMax =   3.70822886286426E-10  1.89133111620345E-02
 cg2d: Sum(rhs),rhsMax =   3.70874275734678E-10  1.89132602643008E-02
 cg2d: Sum(rhs),rhsMax =   3.70917629943790E-10  1.89132114611983E-02
 cg2d: Sum(rhs),rhsMax =   3.70956362849562E-10  1.89131646499475E-02
 cg2d: Sum(rhs),rhsMax =   3.71009070687656E-10  1.89131197243191E-02
 cg2d: Sum(rhs),rhsMax =   3.71044167613022E-10  1.89130765752574E-02
 cg2d: Sum(rhs),rhsMax =   3.71081818051344E-10  1.89130350928469E-02
 cg2d: Sum(rhs),rhsMax =   3.71131209098152E-10  1.89129951607768E-02
 cg2d: Sum(rhs),rhsMax =   3.71172301227851E-10  1.89129566634073E-02
 cg2d: Sum(rhs),rhsMax =   3.71217390160439E-10  1.89129194822924E-02
 cg2d: Sum(rhs),rhsMax =   3.71245589825264E-10  1.89128834911398E-02
 cg2d: Sum(rhs),rhsMax =   3.71289235467920E-10  1.89128485701375E-02
 cg2d: Sum(rhs),rhsMax =   3.71333325199785E-10  1.89128145895026E-02
 cg2d: Sum(rhs),rhsMax =   3.71382757879957E-10  1.89127814216932E-02
 cg2d: Sum(rhs),rhsMax =   3.71410263655392E-10  1.89127489382026E-02
 cg2d: Sum(rhs),rhsMax =   3.71444250357733E-10  1.89127170122112E-02
 cg2d: Sum(rhs),rhsMax =   3.71474087601520E-10  1.89126855158697E-02
 cg2d: Sum(rhs),rhsMax =   3.71505687324358E-10  1.89126543261908E-02
 cg2d: Sum(rhs),rhsMax =   3.71548347644080E-10  1.89126233281934E-02
 cg2d: Sum(rhs),rhsMax =   3.71590633263530E-10  1.89125924049770E-02
 cg2d: Sum(rhs),rhsMax =   3.71631711515441E-10  1.89125614164214E-02
 cg2d: Sum(rhs),rhsMax =   3.71662631226677E-10  1.89125302156154E-02
 cg2d: Sum(rhs),rhsMax =   3.71702058021839E-10  1.89124986803260E-02
 cg2d: Sum(rhs),rhsMax =   3.71757916117765E-10  1.89124667027978E-02
 cg2d: Sum(rhs),rhsMax =   3.71803102194868E-10  1.89124341797112E-02
 cg2d: Sum(rhs),rhsMax =   3.71853256520005E-10  1.89124010002685E-02
 cg2d: Sum(rhs),rhsMax =   3.71892544537289E-10  1.89123670463454E-02
 cg2d: Sum(rhs),rhsMax =   3.71931874187936E-10  1.89123322117949E-02
 cg2d: Sum(rhs),rhsMax =   3.71970287904588E-10  1.89122963879614E-02
 cg2d: Sum(rhs),rhsMax =   3.72013295169005E-10  1.89122594735237E-02
 cg2d: Sum(rhs),rhsMax =   3.72054942410216E-10  1.89122213655132E-02
 cg2d: Sum(rhs),rhsMax =   3.72080449784207E-10  1.89121819644732E-02
 cg2d: Sum(rhs),rhsMax =   3.72126857106636E-10  1.89121411735643E-02
 cg2d: Sum(rhs),rhsMax =   3.72168768025816E-10  1.89120989010892E-02
 cg2d: Sum(rhs),rhsMax =   3.72210540167117E-10  1.89120550562598E-02
 cg2d: Sum(rhs),rhsMax =   3.72248246116591E-10  1.89120095517039E-02
 cg2d: Sum(rhs),rhsMax =   3.72283509575411E-10  1.89119623059222E-02
 cg2d: Sum(rhs),rhsMax =   3.72327405018247E-10  1.89119132382736E-02
 cg2d: Sum(rhs),rhsMax =   3.72374617252369E-10  1.89118622787095E-02
 cg2d: Sum(rhs),rhsMax =   3.72419775573896E-10  1.89118093945336E-02
 cg2d: Sum(rhs),rhsMax =   3.72462824471675E-10  1.89117544847930E-02
 cg2d: Sum(rhs),rhsMax =   3.72498004663768E-10  1.89116974350045E-02
 cg2d: Sum(rhs),rhsMax =   3.72535641224303E-10  1.89116381707387E-02
 cg2d: Sum(rhs),rhsMax =   3.72575650886553E-10  1.89115766418223E-02
 cg2d: Sum(rhs),rhsMax =   3.72611622112551E-10  1.89115127922913E-02
 cg2d: Sum(rhs),rhsMax =   3.72658820468885E-10  1.89114465679678E-02
 cg2d: Sum(rhs),rhsMax =   3.72712249951945E-10  1.89113779103412E-02
 cg2d: Sum(rhs),rhsMax =   3.72751246535685E-10  1.89113067647472E-02
 cg2d: Sum(rhs),rhsMax =   3.72783554025702E-10  1.89112330698957E-02
 cg2d: Sum(rhs),rhsMax =   3.72821731819961E-10  1.89111567677629E-02
 cg2d: Sum(rhs),rhsMax =   3.72854955243973E-10  1.89110778023135E-02
 cg2d: Sum(rhs),rhsMax =   3.72890815447668E-10  1.89109961175756E-02
 cg2d: Sum(rhs),rhsMax =   3.72930394898496E-10  1.89109116581642E-02
 cg2d: Sum(rhs),rhsMax =   3.72963049333208E-10  1.89108243699008E-02
 cg2d: Sum(rhs),rhsMax =   3.73005029641327E-10  1.89107294840503E-02
 cg2d: Sum(rhs),rhsMax =   3.73051603497210E-10  1.89106316792179E-02
 cg2d: Sum(rhs),rhsMax =   3.73100467188081E-10  1.89105310146610E-02
 cg2d: Sum(rhs),rhsMax =   3.73142017284778E-10  1.89104273555021E-02
 cg2d: Sum(rhs),rhsMax =   3.73174643963914E-10  1.89103206966302E-02
 cg2d: Sum(rhs),rhsMax =   3.73221634153431E-10  1.89102109936154E-02
 cg2d: Sum(rhs),rhsMax =   3.73262309949496E-10  1.89100982079474E-02
 cg2d: Sum(rhs),rhsMax =   3.73310354850886E-10  1.89099823118728E-02
 cg2d: Sum(rhs),rhsMax =   3.73356706662165E-10  1.89098632747667E-02
 cg2d: Sum(rhs),rhsMax =   3.73381478513402E-10  1.89097410697825E-02
 cg2d: Sum(rhs),rhsMax =   3.73439057455016E-10  1.89096156721104E-02
 cg2d: Sum(rhs),rhsMax =   3.73473404979840E-10  1.89094870499454E-02
 cg2d: Sum(rhs),rhsMax =   3.73512151763400E-10  1.89093551761156E-02
 cg2d: Sum(rhs),rhsMax =   3.73555394950209E-10  1.89092200257158E-02
 cg2d: Sum(rhs),rhsMax =   3.73607395021125E-10  1.89090815712026E-02
 cg2d: Sum(rhs),rhsMax =   3.73639480466537E-10  1.89089397844997E-02
 cg2d: Sum(rhs),rhsMax =   3.73693492816685E-10  1.89087946406079E-02
 cg2d: Sum(rhs),rhsMax =   3.73737193970491E-10  1.89086461155144E-02
 cg2d: Sum(rhs),rhsMax =   3.73786543383936E-10  1.89084941885548E-02
 cg2d: Sum(rhs),rhsMax =   3.73835129519051E-10  1.89083388378476E-02
 cg2d: Sum(rhs),rhsMax =   3.73880815196515E-10  1.89081800452381E-02
 cg2d: Sum(rhs),rhsMax =   3.73930705843684E-10  1.89080177925484E-02
 cg2d: Sum(rhs),rhsMax =   3.73979180956496E-10  1.89078520669227E-02
 cg2d: Sum(rhs),rhsMax =   3.74036551731294E-10  1.89076828548796E-02
 Computing Diagnostic #    26 "THETA   " (list#  1) Parms "SMR     MR      ", Count=     144
 Computing Diagnostic #    27 "SALT    " (list#  1) Parms "SMR     MR      ", Count=     144
 Computing Diagnostic #    30 "UVEL    " (list#  1) Parms "UUR     MR      ", Count=     144
             Vector  Mate for "UVEL    " :  Diagnostic #     31 "VVEL    " exists
 Computing Diagnostic #    32 "WVEL    " (list#  1) Parms "WM      LR      ", Count=     144
 Computing Diagnostic #    31 "VVEL    " (list#  1) Parms "VVR     MR      ", Count=     144
             Vector  Mate for "VVEL    " :  Diagnostic #     30 "UVEL    " exists
 Computing Diagnostic #   197 "BRGfwFlx" (list#  2) Parms "SM      MR      ", Count=     144
 Computing Diagnostic #   198 "BRGhtFlx" (list#  2) Parms "SM      MR      ", Count=     144
 Computing Diagnostic #   199 "BRGmltRt" (list#  2) Parms "SM      MR      ", Count=     144
 Computing Diagnostic #   201 "BRG_TauX" (list#  2) Parms "UU      MR      ", Count=    1728
 Computing Diagnostic #   202 "BRG_TauY" (list#  2) Parms "VV      MR      ", Count=    1728
 Computing Diagnostic #   203 "BRGhFacC" (list#  2) Parms "SM      MR      ", Count=    1728
 cg2d: Sum(rhs),rhsMax =   3.74074979325734E-10  1.89075101481981E-02
 cg2d: Sum(rhs),rhsMax =   3.74126299385047E-10  1.89073339403613E-02
 cg2d: Sum(rhs),rhsMax =   3.74171360562059E-10  1.89071542283298E-02
 cg2d: Sum(rhs),rhsMax =   3.74223374510763E-10  1.89069710139991E-02
 cg2d: Sum(rhs),rhsMax =   3.74263925406737E-10  1.89067843040627E-02
 cg2d: Sum(rhs),rhsMax =   3.74306419193005E-10  1.89065941064106E-02
 cg2d: Sum(rhs),rhsMax =   3.74346817433313E-10  1.89064004366687E-02
 cg2d: Sum(rhs),rhsMax =   3.74396541547029E-10  1.89062033154174E-02
 cg2d: Sum(rhs),rhsMax =   3.74443226425214E-10  1.89060027688715E-02
 cg2d: Sum(rhs),rhsMax =   3.74474243280964E-10  1.89057988278736E-02
 cg2d: Sum(rhs),rhsMax =   3.74510214506962E-10  1.89055915309434E-02
 cg2d: Sum(rhs),rhsMax =   3.74557745930204E-10  1.89053809219811E-02
 cg2d: Sum(rhs),rhsMax =   3.74604680608570E-10  1.89051670514676E-02
 cg2d: Sum(rhs),rhsMax =   3.74638570166397E-10  1.89049499816765E-02
 cg2d: Sum(rhs),rhsMax =   3.74681466408511E-10  1.89047297707981E-02
 cg2d: Sum(rhs),rhsMax =   3.74716008222364E-10  1.89045064915919E-02
 cg2d: Sum(rhs),rhsMax =   3.74760958377074E-10  1.89042802247581E-02
 cg2d: Sum(rhs),rhsMax =   3.74817121784332E-10  1.89040510599447E-02
 cg2d: Sum(rhs),rhsMax =   3.74877753839264E-10  1.89038190885634E-02
 cg2d: Sum(rhs),rhsMax =   3.74927977553341E-10  1.89035844111453E-02
 cg2d: Sum(rhs),rhsMax =   3.74965364313695E-10  1.89033471372653E-02
 cg2d: Sum(rhs),rhsMax =   3.75012340625425E-10  1.89031073826287E-02
 cg2d: Sum(rhs),rhsMax =   3.75064798663338E-10  1.89028652729475E-02
 cg2d: Sum(rhs),rhsMax =   3.75102407468297E-10  1.89026209382954E-02
 cg2d: Sum(rhs),rhsMax =   3.75152381382193E-10  1.89023745164484E-02
 cg2d: Sum(rhs),rhsMax =   3.75194930679612E-10  1.89021261518772E-02
 cg2d: Sum(rhs),rhsMax =   3.75236244853916E-10  1.89018759967585E-02
 cg2d: Sum(rhs),rhsMax =   3.75279418651786E-10  1.89016242074698E-02
 cg2d: Sum(rhs),rhsMax =   3.75319109124916E-10  1.89013709477006E-02
 cg2d: Sum(rhs),rhsMax =   3.75358993887076E-10  1.89011163876983E-02
 cg2d: Sum(rhs),rhsMax =   3.75398767626933E-10  1.89008606996571E-02
 cg2d: Sum(rhs),rhsMax =   3.75440609157174E-10  1.89006040777760E-02
 cg2d: Sum(rhs),rhsMax =   3.75468989233241E-10  1.89003466954417E-02
 cg2d: Sum(rhs),rhsMax =   3.75507069882985E-10  1.89000887062347E-02
 cg2d: Sum(rhs),rhsMax =   3.75551839626453E-10  1.88998303129646E-02
 cg2d: Sum(rhs),rhsMax =   3.75592640322608E-10  1.88995717291820E-02
 cg2d: Sum(rhs),rhsMax =   3.75629985449599E-10  1.88993131495847E-02
 cg2d: Sum(rhs),rhsMax =   3.75682568387603E-10  1.88990547589862E-02
 cg2d: Sum(rhs),rhsMax =   3.75731099011567E-10  1.88987967502942E-02
 cg2d: Sum(rhs),rhsMax =   3.75768305360680E-10  1.88985393226986E-02
 cg2d: Sum(rhs),rhsMax =   3.75805081498370E-10  1.88982826735023E-02
 cg2d: Sum(rhs),rhsMax =   3.75850989220439E-10  1.88980269958288E-02
 cg2d: Sum(rhs),rhsMax =   3.75895148341243E-10  1.88977724812573E-02
 cg2d: Sum(rhs),rhsMax =   3.75938585817082E-10  1.88975193129800E-02
 cg2d: Sum(rhs),rhsMax =   3.75968367549717E-10  1.88972676723514E-02
 cg2d: Sum(rhs),rhsMax =   3.76021463965870E-10  1.88970177382952E-02
 cg2d: Sum(rhs),rhsMax =   3.76063291618323E-10  1.88967696817897E-02
 cg2d: Sum(rhs),rhsMax =   3.76114167588426E-10  1.88965236694115E-02
 cg2d: Sum(rhs),rhsMax =   3.76165210091983E-10  1.88962798609233E-02
 cg2d: Sum(rhs),rhsMax =   3.76210562702539E-10  1.88960384103094E-02
 cg2d: Sum(rhs),rhsMax =   3.76247366595805E-10  1.88957994606437E-02
 cg2d: Sum(rhs),rhsMax =   3.76305001048571E-10  1.88955631476934E-02
 cg2d: Sum(rhs),rhsMax =   3.76328815332450E-10  1.88953295886490E-02
 cg2d: Sum(rhs),rhsMax =   3.76385533851220E-10  1.88950988916401E-02
 cg2d: Sum(rhs),rhsMax =   3.76437048199563E-10  1.88948711610624E-02
 cg2d: Sum(rhs),rhsMax =   3.76485814745919E-10  1.88946464956930E-02
 cg2d: Sum(rhs),rhsMax =   3.76524061929118E-10  1.88944249739744E-02
 cg2d: Sum(rhs),rhsMax =   3.76568790039222E-10  1.88942066672910E-02
 cg2d: Sum(rhs),rhsMax =   3.76605122087703E-10  1.88939916374321E-02
 cg2d: Sum(rhs),rhsMax =   3.76653583322728E-10  1.88937799283876E-02
 cg2d: Sum(rhs),rhsMax =   3.76691094983173E-10  1.88935715743081E-02
 cg2d: Sum(rhs),rhsMax =   3.76740014185195E-10  1.88933665951176E-02
 cg2d: Sum(rhs),rhsMax =   3.76774764165866E-10  1.88932017452195E-02
 cg2d: Sum(rhs),rhsMax =   3.76817951841524E-10  1.88930445405888E-02
 cg2d: Sum(rhs),rhsMax =   3.76858280692893E-10  1.88928900211591E-02
 cg2d: Sum(rhs),rhsMax =   3.76905825993923E-10  1.88927380763612E-02
 cg2d: Sum(rhs),rhsMax =   3.76954384373462E-10  1.88925883965251E-02
 cg2d: Sum(rhs),rhsMax =   3.76997363882303E-10  1.88924406896330E-02
 cg2d: Sum(rhs),rhsMax =   3.77039552357239E-10  1.88922946719676E-02
 cg2d: Sum(rhs),rhsMax =   3.77087513991903E-10  1.88921500502724E-02
 cg2d: Sum(rhs),rhsMax =   3.77128758777268E-10  1.88920065285940E-02
 cg2d: Sum(rhs),rhsMax =   3.77162912013063E-10  1.88918638025800E-02
 cg2d: Sum(rhs),rhsMax =   3.77214606772647E-10  1.88917215703324E-02
 cg2d: Sum(rhs),rhsMax =   3.77259265493812E-10  1.88915795256588E-02
 cg2d: Sum(rhs),rhsMax =   3.77292752595793E-10  1.88914373693598E-02
 cg2d: Sum(rhs),rhsMax =   3.77337411316958E-10  1.88912946892038E-02
 cg2d: Sum(rhs),rhsMax =   3.77389564043540E-10  1.88911509057421E-02
 cg2d: Sum(rhs),rhsMax =   3.77439149379377E-10  1.88910054951569E-02
 cg2d: Sum(rhs),rhsMax =   3.77477618607180E-10  1.88908585657087E-02
 cg2d: Sum(rhs),rhsMax =   3.77533157513987E-10  1.88907098313681E-02
 cg2d: Sum(rhs),rhsMax =   3.77578870947026E-10  1.88905590840794E-02
 cg2d: Sum(rhs),rhsMax =   3.77621142688689E-10  1.88904061541651E-02
 cg2d: Sum(rhs),rhsMax =   3.77650036242905E-10  1.88902508777778E-02
 cg2d: Sum(rhs),rhsMax =   3.77704978404836E-10  1.88900930983446E-02
 cg2d: Sum(rhs),rhsMax =   3.77740186352504E-10  1.88899326682635E-02
 cg2d: Sum(rhs),rhsMax =   3.77768316628391E-10  1.88897694510546E-02
 cg2d: Sum(rhs),rhsMax =   3.77812003904410E-10  1.88896033190326E-02
 cg2d: Sum(rhs),rhsMax =   3.77846545718263E-10  1.88894341559332E-02
 cg2d: Sum(rhs),rhsMax =   3.77897144132611E-10  1.88892618581928E-02
 cg2d: Sum(rhs),rhsMax =   3.77926717698429E-10  1.88890863322404E-02
 cg2d: Sum(rhs),rhsMax =   3.77970613141265E-10  1.88889074974356E-02
 cg2d: Sum(rhs),rhsMax =   3.78013731427984E-10  1.88887252831360E-02
 cg2d: Sum(rhs),rhsMax =   3.78050271643282E-10  1.88885396348809E-02
 cg2d: Sum(rhs),rhsMax =   3.78103395815010E-10  1.88883505072063E-02
 cg2d: Sum(rhs),rhsMax =   3.78153744429177E-10  1.88881578688116E-02
 cg2d: Sum(rhs),rhsMax =   3.78204551010342E-10  1.88879617004261E-02
 cg2d: Sum(rhs),rhsMax =   3.78235595621668E-10  1.88877619951814E-02
 cg2d: Sum(rhs),rhsMax =   3.78273343204505E-10  1.88875587602791E-02
 cg2d: Sum(rhs),rhsMax =   3.78331019290634E-10  1.88873520113311E-02
 cg2d: Sum(rhs),rhsMax =   3.78375011877985E-10  1.88871417817362E-02
 cg2d: Sum(rhs),rhsMax =   3.78425069058608E-10  1.88869281149054E-02
 cg2d: Sum(rhs),rhsMax =   3.78472322926093E-10  1.88867109121993E-02
 cg2d: Sum(rhs),rhsMax =   3.78527542643781E-10  1.88864897307556E-02
 cg2d: Sum(rhs),rhsMax =   3.78580014559482E-10  1.88862651990425E-02
 cg2d: Sum(rhs),rhsMax =   3.78611406115503E-10  1.88860375051799E-02
 cg2d: Sum(rhs),rhsMax =   3.78668429945606E-10  1.88858067683872E-02
 cg2d: Sum(rhs),rhsMax =   3.78718501004016E-10  1.88855731102777E-02
 cg2d: Sum(rhs),rhsMax =   3.78751377483333E-10  1.88853366598260E-02
 cg2d: Sum(rhs),rhsMax =   3.78800324440931E-10  1.88850975578435E-02
 cg2d: Sum(rhs),rhsMax =   3.78861789163132E-10  1.88848559568553E-02
 cg2d: Sum(rhs),rhsMax =   3.78900452679964E-10  1.88846120145664E-02
 cg2d: Sum(rhs),rhsMax =   3.78953923796388E-10  1.88843659020985E-02
 cg2d: Sum(rhs),rhsMax =   3.79011100282156E-10  1.88839825659789E-02
 cg2d: Sum(rhs),rhsMax =   3.79052955690184E-10  1.88835635621159E-02
 cg2d: Sum(rhs),rhsMax =   3.79110534631799E-10  1.88831444963143E-02
 cg2d: Sum(rhs),rhsMax =   3.79154610485877E-10  1.88827264071030E-02
 cg2d: Sum(rhs),rhsMax =   3.79206721579095E-10  1.88823105889828E-02
 cg2d: Sum(rhs),rhsMax =   3.79247688808704E-10  1.88818982933551E-02
 cg2d: Sum(rhs),rhsMax =   3.79296094532577E-10  1.88814906328188E-02
 cg2d: Sum(rhs),rhsMax =   3.79343723100334E-10  1.88810886966437E-02
 cg2d: Sum(rhs),rhsMax =   3.79395959093642E-10  1.88806934901984E-02
 cg2d: Sum(rhs),rhsMax =   3.79446168929931E-10  1.88803061398492E-02
 cg2d: Sum(rhs),rhsMax =   3.79494546898229E-10  1.88799275796117E-02
 cg2d: Sum(rhs),rhsMax =   3.79541079120749E-10  1.88795586925862E-02
 cg2d: Sum(rhs),rhsMax =   3.79593301236270E-10  1.88792003653906E-02
 cg2d: Sum(rhs),rhsMax =   3.79648146253686E-10  1.88788534372935E-02
 cg2d: Sum(rhs),rhsMax =   3.79696149521713E-10  1.88785186834274E-02
 cg2d: Sum(rhs),rhsMax =   3.79742084999357E-10  1.88781968168943E-02
 cg2d: Sum(rhs),rhsMax =   3.79790573989958E-10  1.88778884925460E-02
 cg2d: Sum(rhs),rhsMax =   3.79842809983266E-10  1.88775943092178E-02
 cg2d: Sum(rhs),rhsMax =   3.79888870361000E-10  1.88773148030593E-02
 cg2d: Sum(rhs),rhsMax =   3.79923523197156E-10  1.88770504532906E-02
 cg2d: Sum(rhs),rhsMax =   3.79964115726494E-10  1.88768016710341E-02
 cg2d: Sum(rhs),rhsMax =   3.79997394661657E-10  1.88765688082849E-02
 cg2d: Sum(rhs),rhsMax =   3.80042289305216E-10  1.88763521500433E-02
 cg2d: Sum(rhs),rhsMax =   3.80076956019160E-10  1.88761519186371E-02
 cg2d: Sum(rhs),rhsMax =   3.80122294751928E-10  1.88759682738082E-02
 cg2d: Sum(rhs),rhsMax =   3.80162318291966E-10  1.88758013101884E-02
 cg2d: Sum(rhs),rhsMax =   3.80192391458145E-10  1.88756510594510E-02
 cg2d: Sum(rhs),rhsMax =   3.80235301578047E-10  1.88755174912093E-02
 cg2d: Sum(rhs),rhsMax =   3.80275116951267E-10  1.88754005128749E-02
 cg2d: Sum(rhs),rhsMax =   3.80312906167468E-10  1.88752999730346E-02
 cg2d: Sum(rhs),rhsMax =   3.80351333761908E-10  1.88752156597478E-02
 cg2d: Sum(rhs),rhsMax =   3.80386430687274E-10  1.88751473005354E-02
 Computing Diagnostic #    26 "THETA   " (list#  1) Parms "SMR     MR      ", Count=     144
 Computing Diagnostic #    27 "SALT    " (list#  1) Parms "SMR     MR      ", Count=     144
 Computing Diagnostic #    30 "UVEL    " (list#  1) Parms "UUR     MR      ", Count=     144
             Vector  Mate for "UVEL    " :  Diagnostic #     31 "VVEL    " exists
 Computing Diagnostic #    32 "WVEL    " (list#  1) Parms "WM      LR      ", Count=     144
 Computing Diagnostic #    31 "VVEL    " (list#  1) Parms "VVR     MR      ", Count=     144
             Vector  Mate for "VVEL    " :  Diagnostic #     30 "UVEL    " exists
 Computing Diagnostic #   197 "BRGfwFlx" (list#  2) Parms "SM      MR      ", Count=     144
 Computing Diagnostic #   198 "BRGhtFlx" (list#  2) Parms "SM      MR      ", Count=     144
 Computing Diagnostic #   199 "BRGmltRt" (list#  2) Parms "SM      MR      ", Count=     144
 Computing Diagnostic #   201 "BRG_TauX" (list#  2) Parms "UU      MR      ", Count=    1728
 Computing Diagnostic #   202 "BRG_TauY" (list#  2) Parms "VV      MR      ", Count=    1728
 Computing Diagnostic #   203 "BRGhFacC" (list#  2) Parms "SM      MR      ", Count=    1728
 cg2d: Sum(rhs),rhsMax =   3.80423359480631E-10  1.88750945286157E-02
 cg2d: Sum(rhs),rhsMax =   3.80452017112454E-10  1.88750570210735E-02
 cg2d: Sum(rhs),rhsMax =   3.80493914153845E-10  1.88750343514675E-02
 cg2d: Sum(rhs),rhsMax =   3.80539169619887E-10  1.88750260430963E-02
 cg2d: Sum(rhs),rhsMax =   3.80577402925297E-10  1.88750315766738E-02
 cg2d: Sum(rhs),rhsMax =   3.80611750450122E-10  1.88750503867635E-02
 cg2d: Sum(rhs),rhsMax =   3.80650538867044E-10  1.88750818680100E-02
 cg2d: Sum(rhs),rhsMax =   3.80691797530197E-10  1.88751253736431E-02
 cg2d: Sum(rhs),rhsMax =   3.80725520554570E-10  1.88751802265005E-02
 cg2d: Sum(rhs),rhsMax =   3.80766279617362E-10  1.88752457118419E-02
 cg2d: Sum(rhs),rhsMax =   3.80806108868370E-10  1.88753210881200E-02
 cg2d: Sum(rhs),rhsMax =   3.80851558623441E-10  1.88754055864039E-02
 cg2d: Sum(rhs),rhsMax =   3.80884365713818E-10  1.88754984195198E-02
 cg2d: Sum(rhs),rhsMax =   3.80922432485775E-10  1.88755987737455E-02
 cg2d: Sum(rhs),rhsMax =   3.80968923074931E-10  1.88757058210786E-02
 cg2d: Sum(rhs),rhsMax =   3.81006795557859E-10  1.88758187206397E-02
 cg2d: Sum(rhs),rhsMax =   3.81056977638572E-10  1.88759366202109E-02
 cg2d: Sum(rhs),rhsMax =   3.81085066281095E-10  1.88760586611723E-02
 cg2d: Sum(rhs),rhsMax =   3.81128545390297E-10  1.88761839801376E-02
 cg2d: Sum(rhs),rhsMax =   3.81158243856206E-10  1.88763117207812E-02
 cg2d: Sum(rhs),rhsMax =   3.81200626620171E-10  1.88764410151676E-02
 cg2d: Sum(rhs),rhsMax =   3.81225620516012E-10  1.88765710030271E-02
 cg2d: Sum(rhs),rhsMax =   3.81263992599301E-10  1.88767021155972E-02
 cg2d: Sum(rhs),rhsMax =   3.81312509345477E-10  1.88768348829805E-02
 cg2d: Sum(rhs),rhsMax =   3.81343914779286E-10  1.88769683992968E-02
 cg2d: Sum(rhs),rhsMax =   3.81396386694988E-10  1.88771017565917E-02
 cg2d: Sum(rhs),rhsMax =   3.81432871399134E-10  1.88772340525681E-02
 cg2d: Sum(rhs),rhsMax =   3.81473949651046E-10  1.88773643862658E-02
 cg2d: Sum(rhs),rhsMax =   3.81497222701199E-10  1.88774918675112E-02
 cg2d: Sum(rhs),rhsMax =   3.81543560634690E-10  1.88776156210926E-02
 cg2d: Sum(rhs),rhsMax =   3.81582418440551E-10  1.88777347880931E-02
 cg2d: Sum(rhs),rhsMax =   3.81622775047497E-10  1.88778485826447E-02
 cg2d: Sum(rhs),rhsMax =   3.81643869284964E-10  1.88779560718173E-02
 cg2d: Sum(rhs),rhsMax =   3.81691914186355E-10  1.88780565211727E-02
 cg2d: Sum(rhs),rhsMax =   3.81718684439036E-10  1.88781491948916E-02
 cg2d: Sum(rhs),rhsMax =   3.81756168343905E-10  1.88782333515786E-02
 cg2d: Sum(rhs),rhsMax =   3.81796302906245E-10  1.88783082858121E-02
 cg2d: Sum(rhs),rhsMax =   3.81844125763031E-10  1.88783733457534E-02
 cg2d: Sum(rhs),rhsMax =   3.81880527200451E-10  1.88784279180377E-02
 cg2d: Sum(rhs),rhsMax =   3.81919898484462E-10  1.88784714290533E-02
 cg2d: Sum(rhs),rhsMax =   3.81970122198538E-10  1.88785033514587E-02
 cg2d: Sum(rhs),rhsMax =   3.82006967725168E-10  1.88785231975945E-02
 cg2d: Sum(rhs),rhsMax =   3.82047851688050E-10  1.88785305295252E-02
 cg2d: Sum(rhs),rhsMax =   3.82085238448404E-10  1.88785249588635E-02
 cg2d: Sum(rhs),rhsMax =   3.82122888886727E-10  1.88785061464343E-02
 cg2d: Sum(rhs),rhsMax =   3.82159998091325E-10  1.88784738066137E-02
 cg2d: Sum(rhs),rhsMax =   3.82210763039126E-10  1.88784276936999E-02
 cg2d: Sum(rhs),rhsMax =   3.82242570928781E-10  1.88783676195851E-02
 cg2d: Sum(rhs),rhsMax =   3.82278056432206E-10  1.88782934595569E-02
 cg2d: Sum(rhs),rhsMax =   3.82312681512786E-10  1.88782051318420E-02
 cg2d: Sum(rhs),rhsMax =   3.82354883865510E-10  1.88781026088046E-02
 cg2d: Sum(rhs),rhsMax =   3.82393075537557E-10  1.88779859141536E-02
 cg2d: Sum(rhs),rhsMax =   3.82442980062514E-10  1.88778551282953E-02
 cg2d: Sum(rhs),rhsMax =   3.82484238725667E-10  1.88777103817602E-02
 cg2d: Sum(rhs),rhsMax =   3.82515796815142E-10  1.88775518564606E-02
 cg2d: Sum(rhs),rhsMax =   3.82555265243667E-10  1.88773797835152E-02
 cg2d: Sum(rhs),rhsMax =   3.82594067538378E-10  1.88771944431488E-02
 cg2d: Sum(rhs),rhsMax =   3.82644180230152E-10  1.88769961560750E-02
 cg2d: Sum(rhs),rhsMax =   3.82683398858497E-10  1.88767852870833E-02
 cg2d: Sum(rhs),rhsMax =   3.82732373571670E-10  1.88765622468185E-02
 cg2d: Sum(rhs),rhsMax =   3.82778128638073E-10  1.88763274865883E-02
 cg2d: Sum(rhs),rhsMax =   3.82824050237929E-10  1.88760814912677E-02
 cg2d: Sum(rhs),rhsMax =   3.82865600334625E-10  1.88758247864687E-02
 cg2d: Sum(rhs),rhsMax =   3.82911397034391E-10  1.88755579277340E-02
 cg2d: Sum(rhs),rhsMax =   3.82960441136504E-10  1.88752815043187E-02
 cg2d: Sum(rhs),rhsMax =   3.82997619730041E-10  1.88749961346566E-02
 cg2d: Sum(rhs),rhsMax =   3.83038378792833E-10  1.88747024607171E-02
 cg2d: Sum(rhs),rhsMax =   3.83096457334808E-10  1.88744011479713E-02
 cg2d: Sum(rhs),rhsMax =   3.83147916172000E-10  1.88740928804730E-02
 cg2d: Sum(rhs),rhsMax =   3.83193796138492E-10  1.88737783637404E-02
 cg2d: Sum(rhs),rhsMax =   3.83243978219205E-10  1.88734583167040E-02
 cg2d: Sum(rhs),rhsMax =   3.83290552075088E-10  1.88731334741078E-02
 cg2d: Sum(rhs),rhsMax =   3.83331658082575E-10  1.88728045691543E-02
 cg2d: Sum(rhs),rhsMax =   3.83373915946450E-10  1.88724723429411E-02
 cg2d: Sum(rhs),rhsMax =   3.83418991001250E-10  1.88721375514548E-02
 cg2d: Sum(rhs),rhsMax =   3.83461623565395E-10  1.88718009464617E-02
 cg2d: Sum(rhs),rhsMax =   3.83501105871709E-10  1.88714632758737E-02
 cg2d: Sum(rhs),rhsMax =   3.83551662652692E-10  1.88711252751433E-02
 cg2d: Sum(rhs),rhsMax =   3.83589188190925E-10  1.88707876807531E-02
 cg2d: Sum(rhs),rhsMax =   3.83633444456244E-10  1.88704512151574E-02
 cg2d: Sum(rhs),rhsMax =   3.83666501346802E-10  1.88701165898323E-02
 cg2d: Sum(rhs),rhsMax =   3.83717627117086E-10  1.88697845035097E-02
 cg2d: Sum(rhs),rhsMax =   3.83761064592925E-10  1.88694556300087E-02
 cg2d: Sum(rhs),rhsMax =   3.83816131654946E-10  1.88691306255575E-02
 cg2d: Sum(rhs),rhsMax =   3.83854573127174E-10  1.88688101259616E-02
 cg2d: Sum(rhs),rhsMax =   3.83920284452444E-10  1.88684947426283E-02
 cg2d: Sum(rhs),rhsMax =   3.83952258875553E-10  1.88681850580700E-02
 cg2d: Sum(rhs),rhsMax =   3.83992143637713E-10  1.88678816300618E-02
 cg2d: Sum(rhs),rhsMax =   3.84043269407996E-10  1.88675849836224E-02
 cg2d: Sum(rhs),rhsMax =   3.84091008998055E-10  1.88672956131512E-02
 cg2d: Sum(rhs),rhsMax =   3.84140400044863E-10  1.88670139801431E-02
 cg2d: Sum(rhs),rhsMax =   3.84188694746435E-10  1.88667405125370E-02
 cg2d: Sum(rhs),rhsMax =   3.84237128225884E-10  1.88664756043879E-02
 cg2d: Sum(rhs),rhsMax =   3.84282050625018E-10  1.88662196107670E-02
 cg2d: Sum(rhs),rhsMax =   3.84326057090156E-10  1.88659728498443E-02
 cg2d: Sum(rhs),rhsMax =   3.84374670980847E-10  1.88657356054596E-02
 cg2d: Sum(rhs),rhsMax =   3.84417497834022E-10  1.88655081221597E-02
 cg2d: Sum(rhs),rhsMax =   3.84455217661284E-10  1.88652906041638E-02
 cg2d: Sum(rhs),rhsMax =   3.84502374384255E-10  1.88650832208050E-02
 cg2d: Sum(rhs),rhsMax =   3.84556594901220E-10  1.88648860977348E-02
 cg2d: Sum(rhs),rhsMax =   3.84602974468073E-10  1.88646993272308E-02
 cg2d: Sum(rhs),rhsMax =   3.84651116513979E-10  1.88645229599312E-02
 cg2d: Sum(rhs),rhsMax =   3.84693069066522E-10  1.88643570099308E-02
 cg2d: Sum(rhs),rhsMax =   3.84725182267509E-10  1.88642014540586E-02
 cg2d: Sum(rhs),rhsMax =   3.84766135619330E-10  1.88640562338878E-02
 cg2d: Sum(rhs),rhsMax =   3.84806311815034E-10  1.88639212502415E-02
 cg2d: Sum(rhs),rhsMax =   3.84853787727124E-10  1.88637963763840E-02
 cg2d: Sum(rhs),rhsMax =   3.84903137140569E-10  1.88636814469064E-02
 cg2d: Sum(rhs),rhsMax =   3.84945894604805E-10  1.88635762637727E-02
 cg2d: Sum(rhs),rhsMax =   3.84986389989628E-10  1.88634806006448E-02
 cg2d: Sum(rhs),rhsMax =   3.85017920323527E-10  1.88633941955710E-02
 cg2d: Sum(rhs),rhsMax =   3.85069032216023E-10  1.88633167687360E-02
 cg2d: Sum(rhs),rhsMax =   3.85118034684773E-10  1.88632480033959E-02
 cg2d: Sum(rhs),rhsMax =   3.85167356342642E-10  1.88631875582211E-02
 cg2d: Sum(rhs),rhsMax =   3.85216011866696E-10  1.88631350724289E-02
 cg2d: Sum(rhs),rhsMax =   3.85265111479960E-10  1.88630901642572E-02
 cg2d: Sum(rhs),rhsMax =   3.85309173456250E-10  1.88630524267485E-02
 cg2d: Sum(rhs),rhsMax =   3.85360673926805E-10  1.88630214386070E-02
 cg2d: Sum(rhs),rhsMax =   3.85383336354295E-10  1.88629967626995E-02
 cg2d: Sum(rhs),rhsMax =   3.85417933679300E-10  1.88629779458085E-02
 cg2d: Sum(rhs),rhsMax =   3.85471418673511E-10  1.88629645228973E-02
 cg2d: Sum(rhs),rhsMax =   3.85515883105647E-10  1.88629560200558E-02
 cg2d: Sum(rhs),rhsMax =   3.85555823378958E-10  1.88629519534189E-02
 cg2d: Sum(rhs),rhsMax =   3.85598747376648E-10  1.88629518344289E-02
 cg2d: Sum(rhs),rhsMax =   3.85646639622372E-10  1.88629551699764E-02
 cg2d: Sum(rhs),rhsMax =   3.85681278580741E-10  1.88629614609870E-02
 cg2d: Sum(rhs),rhsMax =   3.85720677620327E-10  1.88629702152628E-02
 cg2d: Sum(rhs),rhsMax =   3.85756371290569E-10  1.88629809381981E-02
 cg2d: Sum(rhs),rhsMax =   3.85800724700402E-10  1.88629931381061E-02
 cg2d: Sum(rhs),rhsMax =   3.85843162975519E-10  1.88630063297580E-02
 cg2d: Sum(rhs),rhsMax =   3.85882548137317E-10  1.88630200355744E-02
 cg2d: Sum(rhs),rhsMax =   3.85915757683541E-10  1.88630337870604E-02
 cg2d: Sum(rhs),rhsMax =   3.85946941072746E-10  1.88630471235494E-02
 cg2d: Sum(rhs),rhsMax =   3.85982218409353E-10  1.88630596008319E-02
 cg2d: Sum(rhs),rhsMax =   3.86030263310744E-10  1.88630707856254E-02
 cg2d: Sum(rhs),rhsMax =   3.86060378110287E-10  1.88630802631825E-02
 cg2d: Sum(rhs),rhsMax =   3.86095863613711E-10  1.88630876036377E-02
 cg2d: Sum(rhs),rhsMax =   3.86139273333974E-10  1.88630923936749E-02
 cg2d: Sum(rhs),rhsMax =   3.86183543477081E-10  1.88630942634337E-02
 cg2d: Sum(rhs),rhsMax =   3.86236695404385E-10  1.88630928749302E-02
 cg2d: Sum(rhs),rhsMax =   3.86279702668801E-10  1.88630879082321E-02
 cg2d: Sum(rhs),rhsMax =   3.86323056877913E-10  1.88630790621361E-02
 cg2d: Sum(rhs),rhsMax =   3.86352963510639E-10  1.88630660620163E-02
 cg2d: Sum(rhs),rhsMax =   3.86397566720653E-10  1.88630134340137E-02
 Computing Diagnostic #    26 "THETA   " (list#  1) Parms "SMR     MR      ", Count=     144
 Computing Diagnostic #    27 "SALT    " (list#  1) Parms "SMR     MR      ", Count=     144
 Computing Diagnostic #    30 "UVEL    " (list#  1) Parms "UUR     MR      ", Count=     144
             Vector  Mate for "UVEL    " :  Diagnostic #     31 "VVEL    " exists
 Computing Diagnostic #    32 "WVEL    " (list#  1) Parms "WM      LR      ", Count=     144
 Computing Diagnostic #    31 "VVEL    " (list#  1) Parms "VVR     MR      ", Count=     144
             Vector  Mate for "VVEL    " :  Diagnostic #     30 "UVEL    " exists
 Computing Diagnostic #   197 "BRGfwFlx" (list#  2) Parms "SM      MR      ", Count=     144
 Computing Diagnostic #   198 "BRGhtFlx" (list#  2) Parms "SM      MR      ", Count=     144
 Computing Diagnostic #   199 "BRGmltRt" (list#  2) Parms "SM      MR      ", Count=     144
 Computing Diagnostic #   201 "BRG_TauX" (list#  2) Parms "UU      MR      ", Count=    1728
 Computing Diagnostic #   202 "BRG_TauY" (list#  2) Parms "VV      MR      ", Count=    1728
 Computing Diagnostic #   203 "BRGhFacC" (list#  2) Parms "SM      MR      ", Count=    1728
 cg2d: Sum(rhs),rhsMax =   3.86449747202811E-10  1.88629565801226E-02
 cg2d: Sum(rhs),rhsMax =   3.86491283421719E-10  1.88628956709097E-02
 cg2d: Sum(rhs),rhsMax =   3.86537177266000E-10  1.88628307783480E-02
 cg2d: Sum(rhs),rhsMax =   3.86567569621299E-10  1.88627621179195E-02
 cg2d: Sum(rhs),rhsMax =   3.86610049529779E-10  1.88626898771948E-02
 cg2d: Sum(rhs),rhsMax =   3.86649573469455E-10  1.88626142508603E-02
 cg2d: Sum(rhs),rhsMax =   3.86691956233420E-10  1.88625354511712E-02
 cg2d: Sum(rhs),rhsMax =   3.86732035284609E-10  1.88624537020112E-02
 cg2d: Sum(rhs),rhsMax =   3.86779011596339E-10  1.88623692292668E-02
 cg2d: Sum(rhs),rhsMax =   3.86825849130190E-10  1.88622822700489E-02
 cg2d: Sum(rhs),rhsMax =   3.86871007451717E-10  1.88621930619841E-02
 cg2d: Sum(rhs),rhsMax =   3.86909115857037E-10  1.88621018501836E-02
 cg2d: Sum(rhs),rhsMax =   3.86961254705831E-10  1.88620088760114E-02
 cg2d: Sum(rhs),rhsMax =   3.87009327362797E-10  1.88619143852831E-02
 cg2d: Sum(rhs),rhsMax =   3.87069098994886E-10  1.88618186197921E-02
 cg2d: Sum(rhs),rhsMax =   3.87124068912392E-10  1.88617218196539E-02
 cg2d: Sum(rhs),rhsMax =   3.87159429515727E-10  1.88616242197387E-02
 cg2d: Sum(rhs),rhsMax =   3.87203324958563E-10  1.88615260515048E-02
 cg2d: Sum(rhs),rhsMax =   3.87238768828624E-10  1.88614275364218E-02
 cg2d: Sum(rhs),rhsMax =   3.87295973069968E-10  1.88613288914901E-02
 cg2d: Sum(rhs),rhsMax =   3.87333373708110E-10  1.88612303243225E-02
 cg2d: Sum(rhs),rhsMax =   3.87380474919929E-10  1.88611320315863E-02
 cg2d: Sum(rhs),rhsMax =   3.87430990067550E-10  1.88610342039533E-02
 cg2d: Sum(rhs),rhsMax =   3.87477036567496E-10  1.88609370171096E-02
 cg2d: Sum(rhs),rhsMax =   3.87520571187849E-10  1.88608406363508E-02
 cg2d: Sum(rhs),rhsMax =   3.87563106607480E-10  1.88607452189923E-02
 cg2d: Sum(rhs),rhsMax =   3.87606988172529E-10  1.88606509043667E-02
 cg2d: Sum(rhs),rhsMax =   3.87661736045430E-10  1.88605578256079E-02
 cg2d: Sum(rhs),rhsMax =   3.87694168435537E-10  1.88604661009280E-02
 cg2d: Sum(rhs),rhsMax =   3.87736981410924E-10  1.88603758337222E-02
 cg2d: Sum(rhs),rhsMax =   3.87785206723557E-10  1.88602871197759E-02
 cg2d: Sum(rhs),rhsMax =   3.87826895598131E-10  1.88602000425687E-02
 cg2d: Sum(rhs),rhsMax =   3.87864046436093E-10  1.88601145028225E-02
 cg2d: Sum(rhs),rhsMax =   3.87904278142948E-10  1.88600305603260E-02
 cg2d: Sum(rhs),rhsMax =   3.87943427382353E-10  1.88599482701497E-02
 cg2d: Sum(rhs),rhsMax =   3.87983506433542E-10  1.88598676781566E-02
 cg2d: Sum(rhs),rhsMax =   3.88023849162700E-10  1.88597888203945E-02
 cg2d: Sum(rhs),rhsMax =   3.88071019763458E-10  1.88597117251928E-02
 cg2d: Sum(rhs),rhsMax =   3.88124907213516E-10  1.88596364177406E-02
 cg2d: Sum(rhs),rhsMax =   3.88155368957754E-10  1.88595629170115E-02
 cg2d: Sum(rhs),rhsMax =   3.88189785871518E-10  1.88594912352548E-02
 cg2d: Sum(rhs),rhsMax =   3.88228782455258E-10  1.88594213794050E-02
 cg2d: Sum(rhs),rhsMax =   3.88275703255836E-10  1.88593533540831E-02
 cg2d: Sum(rhs),rhsMax =   3.88316698241020E-10  1.88592871628651E-02
 cg2d: Sum(rhs),rhsMax =   3.88357193625843E-10  1.88592228045951E-02
 cg2d: Sum(rhs),rhsMax =   3.88395968164978E-10  1.88591602743074E-02
 cg2d: Sum(rhs),rhsMax =   3.88447773946865E-10  1.88590995714138E-02
 cg2d: Sum(rhs),rhsMax =   3.88496679271100E-10  1.88590406920731E-02
 cg2d: Sum(rhs),rhsMax =   3.88546805840662E-10  1.88589836341676E-02
 cg2d: Sum(rhs),rhsMax =   3.88588633493114E-10  1.88589283957688E-02
 cg2d: Sum(rhs),rhsMax =   3.88624007974236E-10  1.88588752234672E-02
 cg2d: Sum(rhs),rhsMax =   3.88671705930932E-10  1.88588249030480E-02
 cg2d: Sum(rhs),rhsMax =   3.88709189835801E-10  1.88587764044803E-02
 cg2d: Sum(rhs),rhsMax =   3.88765672432179E-10  1.88587297189959E-02
 cg2d: Sum(rhs),rhsMax =   3.88815146745713E-10  1.88586848561397E-02
 cg2d: Sum(rhs),rhsMax =   3.88863483080648E-10  1.88586418180623E-02
 cg2d: Sum(rhs),rhsMax =   3.88911500226463E-10  1.88586004538875E-02
 cg2d: Sum(rhs),rhsMax =   3.88946916340949E-10  1.88585608921281E-02
 cg2d: Sum(rhs),rhsMax =   3.88995502476064E-10  1.88585231603612E-02
 cg2d: Sum(rhs),rhsMax =   3.89033319447840E-10  1.88584872913239E-02
 cg2d: Sum(rhs),rhsMax =   3.89058077421289E-10  1.88584533226649E-02
 cg2d: Sum(rhs),rhsMax =   3.89102305931033E-10  1.88584213057359E-02
 cg2d: Sum(rhs),rhsMax =   3.89137957967911E-10  1.88583912908990E-02
 cg2d: Sum(rhs),rhsMax =   3.89182186477655E-10  1.88583633389471E-02
 cg2d: Sum(rhs),rhsMax =   3.89225568442342E-10  1.88583375161026E-02
 cg2d: Sum(rhs),rhsMax =   3.89275500722874E-10  1.88583138959732E-02
 cg2d: Sum(rhs),rhsMax =   3.89318050020293E-10  1.88582925544799E-02
 cg2d: Sum(rhs),rhsMax =   3.89349746887646E-10  1.88582735757833E-02
 cg2d: Sum(rhs),rhsMax =   3.89381069054728E-10  1.88582570478245E-02
 cg2d: Sum(rhs),rhsMax =   3.89426713098828E-10  1.88582430624055E-02
 cg2d: Sum(rhs),rhsMax =   3.89472093464960E-10  1.88582317155619E-02
 cg2d: Sum(rhs),rhsMax =   3.89513546417142E-10  1.88582231043916E-02
 cg2d: Sum(rhs),rhsMax =   3.89553389545938E-10  1.88582173296971E-02
 cg2d: Sum(rhs),rhsMax =   3.89592774707737E-10  1.88582144916497E-02
 cg2d: Sum(rhs),rhsMax =   3.89655613330930E-10  1.88582146936502E-02
 cg2d: Sum(rhs),rhsMax =   3.89696899749659E-10  1.88582180341156E-02
 cg2d: Sum(rhs),rhsMax =   3.89745236084593E-10  1.88582246136780E-02
 cg2d: Sum(rhs),rhsMax =   3.89790699717452E-10  1.88582345283137E-02
 cg2d: Sum(rhs),rhsMax =   3.89824117430493E-10  1.88582478704087E-02
 cg2d: Sum(rhs),rhsMax =   3.89869428407685E-10  1.88582647287019E-02
 cg2d: Sum(rhs),rhsMax =   3.89914642240363E-10  1.88582851850834E-02
 cg2d: Sum(rhs),rhsMax =   3.89951640422659E-10  1.88583093153090E-02
 cg2d: Sum(rhs),rhsMax =   3.89988819016196E-10  1.88583371860495E-02
 cg2d: Sum(rhs),rhsMax =   3.90027482533029E-10  1.88583688564937E-02
 cg2d: Sum(rhs),rhsMax =   3.90072432687738E-10  1.88584043739167E-02
 cg2d: Sum(rhs),rhsMax =   3.90119644921860E-10  1.88584437708201E-02
 cg2d: Sum(rhs),rhsMax =   3.90162666064064E-10  1.88584870808664E-02
 cg2d: Sum(rhs),rhsMax =   3.90203230837827E-10  1.88585343199218E-02
 cg2d: Sum(rhs),rhsMax =   3.90247376080843E-10  1.88585854836194E-02
 cg2d: Sum(rhs),rhsMax =   3.90289273122235E-10  1.88586405595453E-02
 cg2d: Sum(rhs),rhsMax =   3.90329379929000E-10  1.88586995135992E-02
 cg2d: Sum(rhs),rhsMax =   3.90364421343214E-10  1.88587622872944E-02
 cg2d: Sum(rhs),rhsMax =   3.90391816096347E-10  1.88588288176133E-02
 cg2d: Sum(rhs),rhsMax =   3.90423429696973E-10  1.88588990256772E-02
 cg2d: Sum(rhs),rhsMax =   3.90477844502968E-10  1.88589728117492E-02
 cg2d: Sum(rhs),rhsMax =   3.90516063930590E-10  1.88590500605997E-02
 cg2d: Sum(rhs),rhsMax =   3.90542320705123E-10  1.88591306362489E-02
 cg2d: Sum(rhs),rhsMax =   3.90584647957937E-10  1.88592143861473E-02
 cg2d: Sum(rhs),rhsMax =   3.90628515645197E-10  1.88593011398569E-02
 cg2d: Sum(rhs),rhsMax =   3.90659851690067E-10  1.88593907032511E-02
 cg2d: Sum(rhs),rhsMax =   3.90706828001797E-10  1.88594828648515E-02
 cg2d: Sum(rhs),rhsMax =   3.90744547829058E-10  1.88595774036771E-02
 cg2d: Sum(rhs),rhsMax =   3.90793397642142E-10  1.88596740708120E-02
 cg2d: Sum(rhs),rhsMax =   3.90831519925250E-10  1.88597725974042E-02
 cg2d: Sum(rhs),rhsMax =   3.90862342491971E-10  1.88598727014063E-02
 cg2d: Sum(rhs),rhsMax =   3.90905419145327E-10  1.88599738660777E-02
 cg2d: Sum(rhs),rhsMax =   3.90937476835163E-10  1.88600754700579E-02
 cg2d: Sum(rhs),rhsMax =   3.90980858799850E-10  1.88601776933225E-02
 cg2d: Sum(rhs),rhsMax =   3.91024101986659E-10  1.88602802815865E-02
 cg2d: Sum(rhs),rhsMax =   3.91056798054734E-10  1.88603828833866E-02
 cg2d: Sum(rhs),rhsMax =   3.91091922735676E-10  1.88604851297931E-02
 cg2d: Sum(rhs),rhsMax =   3.91119941989260E-10  1.88605866378764E-02
 cg2d: Sum(rhs),rhsMax =   3.91143395450655E-10  1.88606870144423E-02
 cg2d: Sum(rhs),rhsMax =   3.91187485182520E-10  1.88607858544502E-02
 cg2d: Sum(rhs),rhsMax =   3.91221596784952E-10  1.88608827471196E-02
 cg2d: Sum(rhs),rhsMax =   3.91266435917359E-10  1.88609772683691E-02
 cg2d: Sum(rhs),rhsMax =   3.91301060997939E-10  1.88610689945845E-02
 cg2d: Sum(rhs),rhsMax =   3.91336185678881E-10  1.88611575163677E-02
 cg2d: Sum(rhs),rhsMax =   3.91369936458830E-10  1.88612423343395E-02
 cg2d: Sum(rhs),rhsMax =   3.91412527389612E-10  1.88613230524953E-02
 cg2d: Sum(rhs),rhsMax =   3.91444640590599E-10  1.88613990468526E-02
 cg2d: Sum(rhs),rhsMax =   3.91477530947704E-10  1.88614700113641E-02
 cg2d: Sum(rhs),rhsMax =   3.91511392749955E-10  1.88615355884043E-02
 cg2d: Sum(rhs),rhsMax =   3.91549112577216E-10  1.88615953136904E-02
 cg2d: Sum(rhs),rhsMax =   3.91602625327003E-10  1.88616487445889E-02
 cg2d: Sum(rhs),rhsMax =   3.91647936304196E-10  1.88616954785154E-02
 cg2d: Sum(rhs),rhsMax =   3.91686572065453E-10  1.88617351331559E-02
 cg2d: Sum(rhs),rhsMax =   3.91717103198630E-10  1.88617673322064E-02
 cg2d: Sum(rhs),rhsMax =   3.91759527595958E-10  1.88617917082408E-02
 cg2d: Sum(rhs),rhsMax =   3.91797552734552E-10  1.88618079098950E-02
 cg2d: Sum(rhs),rhsMax =   3.91849455660953E-10  1.88618155952081E-02
 cg2d: Sum(rhs),rhsMax =   3.91883511752233E-10  1.88618144415881E-02
 cg2d: Sum(rhs),rhsMax =   3.91930640719629E-10  1.88618041432983E-02
 cg2d: Sum(rhs),rhsMax =   3.91973883906438E-10  1.88617844185526E-02
 cg2d: Sum(rhs),rhsMax =   3.92014018468778E-10  1.88617550040102E-02
 cg2d: Sum(rhs),rhsMax =   3.92052196263037E-10  1.88617156571312E-02
 cg2d: Sum(rhs),rhsMax =   3.92082449840458E-10  1.88616661604818E-02
 cg2d: Sum(rhs),rhsMax =   3.92131882520630E-10  1.88616063177748E-02
 cg2d: Sum(rhs),rhsMax =   3.92164800633310E-10  1.88615359590156E-02
 cg2d: Sum(rhs),rhsMax =   3.92198967746893E-10  1.88614549359301E-02
 cg2d: Sum(rhs),rhsMax =   3.92240587232529E-10  1.88613631257081E-02
 cg2d: Sum(rhs),rhsMax =   3.92294391415859E-10  1.88612604309272E-02
 cg2d: Sum(rhs),rhsMax =   3.92326518494635E-10  1.88611467799680E-02
 cg2d: Sum(rhs),rhsMax =   3.92360158252281E-10  1.88610221253081E-02
 Computing Diagnostic #    26 "THETA   " (list#  1) Parms "SMR     MR      ", Count=     144
 Computing Diagnostic #    27 "SALT    " (list#  1) Parms "SMR     MR      ", Count=     144
 Computing Diagnostic #    30 "UVEL    " (list#  1) Parms "UUR     MR      ", Count=     144
             Vector  Mate for "UVEL    " :  Diagnostic #     31 "VVEL    " exists
 Computing Diagnostic #    32 "WVEL    " (list#  1) Parms "WM      LR      ", Count=     144
 Computing Diagnostic #    31 "VVEL    " (list#  1) Parms "VVR     MR      ", Count=     144
             Vector  Mate for "VVEL    " :  Diagnostic #     30 "UVEL    " exists
 Computing Diagnostic #   197 "BRGfwFlx" (list#  2) Parms "SM      MR      ", Count=     144
 Computing Diagnostic #   198 "BRGhtFlx" (list#  2) Parms "SM      MR      ", Count=     144
 Computing Diagnostic #   199 "BRGmltRt" (list#  2) Parms "SM      MR      ", Count=     144
 Computing Diagnostic #   201 "BRG_TauX" (list#  2) Parms "UU      MR      ", Count=    1728
 Computing Diagnostic #   202 "BRG_TauY" (list#  2) Parms "VV      MR      ", Count=    1728
 Computing Diagnostic #   203 "BRGhFacC" (list#  2) Parms "SM      MR      ", Count=    1728
 cg2d: Sum(rhs),rhsMax =   3.92411103611323E-10  1.88608864460970E-02
 cg2d: Sum(rhs),rhsMax =   3.92462215503819E-10  1.88607397413894E-02
 cg2d: Sum(rhs),rhsMax =   3.92508081592524E-10  1.88605820371711E-02
 cg2d: Sum(rhs),rhsMax =   3.92550991712426E-10  1.88604133879540E-02
 cg2d: Sum(rhs),rhsMax =   3.92605975507720E-10  1.88602338700740E-02
 cg2d: Sum(rhs),rhsMax =   3.92653534686538E-10  1.88600435802040E-02
 cg2d: Sum(rhs),rhsMax =   3.92706617224903E-10  1.88598426440811E-02
 cg2d: Sum(rhs),rhsMax =   3.92748375488416E-10  1.88596312042202E-02
 cg2d: Sum(rhs),rhsMax =   3.92793089720733E-10  1.88594094267303E-02
 cg2d: Sum(rhs),rhsMax =   3.92830490358875E-10  1.88591774987469E-02
 cg2d: Sum(rhs),rhsMax =   3.92882976152364E-10  1.88589357561743E-02
 cg2d: Sum(rhs),rhsMax =   3.92932103521204E-10  1.88586844384584E-02
 cg2d: Sum(rhs),rhsMax =   3.92978038998848E-10  1.88584237791085E-02
 cg2d: Sum(rhs),rhsMax =   3.93035118340102E-10  1.88581540302540E-02
 cg2d: Sum(rhs),rhsMax =   3.93067717263662E-10  1.88578754585501E-02
 cg2d: Sum(rhs),rhsMax =   3.93105159535168E-10  1.88575883447358E-02
 cg2d: Sum(rhs),rhsMax =   3.93149873767484E-10  1.88572929760310E-02
 cg2d: Sum(rhs),rhsMax =   3.93202748139032E-10  1.88569896531136E-02
 cg2d: Sum(rhs),rhsMax =   3.93256718855817E-10  1.88566786868613E-02
 cg2d: Sum(rhs),rhsMax =   3.93290261468948E-10  1.88563603902767E-02
 cg2d: Sum(rhs),rhsMax =   3.93340790494356E-10  1.88560350860143E-02
 cg2d: Sum(rhs),rhsMax =   3.93382271202114E-10  1.88557031002424E-02
 cg2d: Sum(rhs),rhsMax =   3.93434090861788E-10  1.88553647610963E-02
 cg2d: Sum(rhs),rhsMax =   3.93478111204715E-10  1.88550203998898E-02
 cg2d: Sum(rhs),rhsMax =   3.93535870557571E-10  1.88546703468605E-02
 cg2d: Sum(rhs),rhsMax =   3.93589938418870E-10  1.88543149332395E-02
 cg2d: Sum(rhs),rhsMax =   3.93648405538904E-10  1.88539544840618E-02
 cg2d: Sum(rhs),rhsMax =   3.93708773915868E-10  1.88535893268156E-02
 cg2d: Sum(rhs),rhsMax =   3.93753196714641E-10  1.88532197393873E-02
 cg2d: Sum(rhs),rhsMax =   3.93791124708720E-10  1.88528460434762E-02
 cg2d: Sum(rhs),rhsMax =   3.93839766354986E-10  1.88524684791649E-02
 cg2d: Sum(rhs),rhsMax =   3.93881358085046E-10  1.88520873360304E-02
 cg2d: Sum(rhs),rhsMax =   3.93931526287972E-10  1.88517028798942E-02
 cg2d: Sum(rhs),rhsMax =   3.93978294432884E-10  1.88513153658258E-02
 cg2d: Sum(rhs),rhsMax =   3.94029586736622E-10  1.88509250427769E-02
 cg2d: Sum(rhs),rhsMax =   3.94069207820813E-10  1.88505321545644E-02
 cg2d: Sum(rhs),rhsMax =   3.94116531077238E-10  1.88501369330745E-02
 cg2d: Sum(rhs),rhsMax =   3.94166935202556E-10  1.88497396374368E-02
 cg2d: Sum(rhs),rhsMax =   3.94205376674783E-10  1.88493405275028E-02
 cg2d: Sum(rhs),rhsMax =   3.94253116264842E-10  1.88489398356403E-02
 cg2d: Sum(rhs),rhsMax =   3.94307267392868E-10  1.88485378417087E-02
 cg2d: Sum(rhs),rhsMax =   3.94371063583421E-10  1.88481347967226E-02
 cg2d: Sum(rhs),rhsMax =   3.94420773819348E-10  1.88477309149706E-02
 cg2d: Sum(rhs),rhsMax =   3.94486082688772E-10  1.88473263982825E-02
 cg2d: Sum(rhs),rhsMax =   3.94547255977429E-10  1.88469214361981E-02
 cg2d: Sum(rhs),rhsMax =   3.94595869868120E-10  1.88465162046858E-02
 cg2d: Sum(rhs),rhsMax =   3.94651394897139E-10  1.88461108671724E-02
 cg2d: Sum(rhs),rhsMax =   3.94697052819026E-10  1.88457055686562E-02
 cg2d: Sum(rhs),rhsMax =   3.94746554888137E-10  1.88453004475237E-02
 cg2d: Sum(rhs),rhsMax =   3.94816290771871E-10  1.88448956226373E-02
 cg2d: Sum(rhs),rhsMax =   3.94866070396738E-10  1.88444912031429E-02
 cg2d: Sum(rhs),rhsMax =   3.94907634371222E-10  1.88440872834381E-02
 cg2d: Sum(rhs),rhsMax =   3.94960827931889E-10  1.88436839457908E-02
 cg2d: Sum(rhs),rhsMax =   3.95022722865512E-10  1.88432812605047E-02
 cg2d: Sum(rhs),rhsMax =   3.95059221447447E-10  1.88428792854261E-02
 cg2d: Sum(rhs),rhsMax =   3.95109264750282E-10  1.88424780679622E-02
 cg2d: Sum(rhs),rhsMax =   3.95162291777496E-10  1.88420776404041E-02
 cg2d: Sum(rhs),rhsMax =   3.95209184822498E-10  1.88416780344951E-02
 cg2d: Sum(rhs),rhsMax =   3.95256424812196E-10  1.88412792636343E-02
 cg2d: Sum(rhs),rhsMax =   3.95308105693992E-10  1.88408813377580E-02
 cg2d: Sum(rhs),rhsMax =   3.95362076410777E-10  1.88404842431982E-02
 cg2d: Sum(rhs),rhsMax =   3.95408775166750E-10  1.88400879637655E-02
 cg2d: Sum(rhs),rhsMax =   3.95456264956628E-10  1.88396924866394E-02
 cg2d: Sum(rhs),rhsMax =   3.95498661598381E-10  1.88392977943269E-02
 cg2d: Sum(rhs),rhsMax =   3.95550953102841E-10  1.88389038669262E-02
 cg2d: Sum(rhs),rhsMax =   3.95595028956919E-10  1.88385106793131E-02
 cg2d: Sum(rhs),rhsMax =   3.95644683681695E-10  1.88381182059476E-02
 cg2d: Sum(rhs),rhsMax =   3.95685650911304E-10  1.88377264205658E-02
 cg2d: Sum(rhs),rhsMax =   3.95749308323978E-10  1.88373352938399E-02
 cg2d: Sum(rhs),rhsMax =   3.95781712958510E-10  1.88369447941858E-02
 cg2d: Sum(rhs),rhsMax =   3.95822888354935E-10  1.88365548943827E-02
 cg2d: Sum(rhs),rhsMax =   3.95876248449056E-10  1.88361655637342E-02
 cg2d: Sum(rhs),rhsMax =   3.95911511907876E-10  1.88357767927608E-02
 cg2d: Sum(rhs),rhsMax =   3.95966218147414E-10  1.88353885592837E-02
 cg2d: Sum(rhs),rhsMax =   3.96021243576072E-10  1.88350008450884E-02
 cg2d: Sum(rhs),rhsMax =   3.96068788877102E-10  1.88346136411182E-02
 cg2d: Sum(rhs),rhsMax =   3.96117430523368E-10  1.88342269448777E-02
 cg2d: Sum(rhs),rhsMax =   3.96175925398978E-10  1.88338407573848E-02
 cg2d: Sum(rhs),rhsMax =   3.96219765330663E-10  1.88334550852012E-02
 cg2d: Sum(rhs),rhsMax =   3.96258206802891E-10  1.88330699419571E-02
 cg2d: Sum(rhs),rhsMax =   3.96317367812316E-10  1.88326853503825E-02
 cg2d: Sum(rhs),rhsMax =   3.96358515453166E-10  1.88323013381685E-02
 cg2d: Sum(rhs),rhsMax =   3.96415719694510E-10  1.88319179438435E-02
 cg2d: Sum(rhs),rhsMax =   3.96466207086554E-10  1.88315352107990E-02
 cg2d: Sum(rhs),rhsMax =   3.96503621602484E-10  1.88311531967604E-02
 cg2d: Sum(rhs),rhsMax =   3.96551486092633E-10  1.88307719580228E-02
 cg2d: Sum(rhs),rhsMax =   3.96602237162647E-10  1.88303915496539E-02
 cg2d: Sum(rhs),rhsMax =   3.96644925237943E-10  1.88300120707484E-02
 cg2d: Sum(rhs),rhsMax =   3.96700755578294E-10  1.88296336043480E-02
 cg2d: Sum(rhs),rhsMax =   3.96750049480588E-10  1.88292562324853E-02
 cg2d: Sum(rhs),rhsMax =   3.96797442125951E-10  1.88288800494037E-02
 cg2d: Sum(rhs),rhsMax =   3.96853216955151E-10  1.88285051671617E-02
 cg2d: Sum(rhs),rhsMax =   3.96898028331982E-10  1.88281316969719E-02
 cg2d: Sum(rhs),rhsMax =   3.96934499158341E-10  1.88277597567015E-02
 cg2d: Sum(rhs),rhsMax =   3.96982030581583E-10  1.88273894653870E-02
 cg2d: Sum(rhs),rhsMax =   3.97040705868434E-10  1.88270209524436E-02
 cg2d: Sum(rhs),rhsMax =   3.97091137749328E-10  1.88266543458651E-02
 cg2d: Sum(rhs),rhsMax =   3.97141416974556E-10  1.88262897811602E-02
 cg2d: Sum(rhs),rhsMax =   3.97186852851839E-10  1.88259273956100E-02
 cg2d: Sum(rhs),rhsMax =   3.97239324767540E-10  1.88255673260563E-02
 cg2d: Sum(rhs),rhsMax =   3.97290381148885E-10  1.88252097156996E-02
 cg2d: Sum(rhs),rhsMax =   3.97332708401699E-10  1.88248547029829E-02
 cg2d: Sum(rhs),rhsMax =   3.97387456274600E-10  1.88245024270697E-02
 cg2d: Sum(rhs),rhsMax =   3.97423968734323E-10  1.88241530270625E-02
 cg2d: Sum(rhs),rhsMax =   3.97474719804336E-10  1.88238066403259E-02
 cg2d: Sum(rhs),rhsMax =   3.97521598971551E-10  1.88234634003579E-02
 cg2d: Sum(rhs),rhsMax =   3.97581398359215E-10  1.88231234366702E-02
 cg2d: Sum(rhs),rhsMax =   3.97626362391712E-10  1.88227868764604E-02
 cg2d: Sum(rhs),rhsMax =   3.97678751040687E-10  1.88224538398099E-02
 cg2d: Sum(rhs),rhsMax =   3.97724880807360E-10  1.88221244424653E-02
 cg2d: Sum(rhs),rhsMax =   3.97763058601619E-10  1.88217987922634E-02
 cg2d: Sum(rhs),rhsMax =   3.97802360496691E-10  1.88214769905961E-02
 cg2d: Sum(rhs),rhsMax =   3.97831975695873E-10  1.88211591333364E-02
 cg2d: Sum(rhs),rhsMax =   3.97878827107512E-10  1.88208453037280E-02
 cg2d: Sum(rhs),rhsMax =   3.97940125296259E-10  1.88205355799700E-02
 cg2d: Sum(rhs),rhsMax =   3.97979871280540E-10  1.88202300272102E-02
 cg2d: Sum(rhs),rhsMax =   3.98038657589694E-10  1.88199287069074E-02
 cg2d: Sum(rhs),rhsMax =   3.98085994723907E-10  1.88196316640907E-02
 cg2d: Sum(rhs),rhsMax =   3.98132624090941E-10  1.88193389371241E-02
 cg2d: Sum(rhs),rhsMax =   3.98174895832604E-10  1.88190505525670E-02
 cg2d: Sum(rhs),rhsMax =   3.98229116349569E-10  1.88187665264319E-02
 cg2d: Sum(rhs),rhsMax =   3.98287042235879E-10  1.88184868639051E-02
 cg2d: Sum(rhs),rhsMax =   3.98335447959752E-10  1.88182115576610E-02
 cg2d: Sum(rhs),rhsMax =   3.98381161392791E-10  1.88179405939583E-02
 cg2d: Sum(rhs),rhsMax =   3.98431648784836E-10  1.88176739416878E-02
 cg2d: Sum(rhs),rhsMax =   3.98469826579095E-10  1.88174115653275E-02
 cg2d: Sum(rhs),rhsMax =   3.98521826650011E-10  1.88171534143695E-02
 cg2d: Sum(rhs),rhsMax =   3.98557575831404E-10  1.88168994301794E-02
 cg2d: Sum(rhs),rhsMax =   3.98605759510673E-10  1.88166495443012E-02
 cg2d: Sum(rhs),rhsMax =   3.98668709156169E-10  1.88164036764958E-02
 cg2d: Sum(rhs),rhsMax =   3.98717378558011E-10  1.88161617409241E-02
 cg2d: Sum(rhs),rhsMax =   3.98764646303285E-10  1.88159236410712E-02
 cg2d: Sum(rhs),rhsMax =   3.98802532664000E-10  1.88156892717989E-02
 cg2d: Sum(rhs),rhsMax =   3.98843541526972E-10  1.88154585230053E-02
 cg2d: Sum(rhs),rhsMax =   3.98883634455949E-10  1.88152312744867E-02
 cg2d: Sum(rhs),rhsMax =   3.98925961708763E-10  1.88150074014238E-02
 cg2d: Sum(rhs),rhsMax =   3.98971758408528E-10  1.88147867757948E-02
 cg2d: Sum(rhs),rhsMax =   3.99036678699893E-10  1.88145692615835E-02
 cg2d: Sum(rhs),rhsMax =   3.99073565859887E-10  1.88143547188982E-02
 cg2d: Sum(rhs),rhsMax =   3.99126842687281E-10  1.88141430058152E-02
 cg2d: Sum(rhs),rhsMax =   3.99171723453051E-10  1.88139339773444E-02
 cg2d: Sum(rhs),rhsMax =   3.99212746193811E-10  1.88137274893869E-02
 cg2d: Sum(rhs),rhsMax =   3.99257918393126E-10  1.88135233904913E-02
 cg2d: Sum(rhs),rhsMax =   3.99304311837767E-10  1.88133215366690E-02
 Computing Diagnostic #    26 "THETA   " (list#  1) Parms "SMR     MR      ", Count=     144
 Computing Diagnostic #    27 "SALT    " (list#  1) Parms "SMR     MR      ", Count=     144
 Computing Diagnostic #    30 "UVEL    " (list#  1) Parms "UUR     MR      ", Count=     144
             Vector  Mate for "UVEL    " :  Diagnostic #     31 "VVEL    " exists
 Computing Diagnostic #    32 "WVEL    " (list#  1) Parms "WM      LR      ", Count=     144
 Computing Diagnostic #    31 "VVEL    " (list#  1) Parms "VVR     MR      ", Count=     144
             Vector  Mate for "VVEL    " :  Diagnostic #     30 "UVEL    " exists
 Computing Diagnostic #   197 "BRGfwFlx" (list#  2) Parms "SM      MR      ", Count=     144
 Computing Diagnostic #   198 "BRGhtFlx" (list#  2) Parms "SM      MR      ", Count=     144
 Computing Diagnostic #   199 "BRGmltRt" (list#  2) Parms "SM      MR      ", Count=     144
 Computing Diagnostic #   201 "BRG_TauX" (list#  2) Parms "UU      MR      ", Count=    1728
 Computing Diagnostic #   202 "BRG_TauY" (list#  2) Parms "VV      MR      ", Count=    1728
 Computing Diagnostic #   203 "BRGhFacC" (list#  2) Parms "SM      MR      ", Count=    1728
 cg2d: Sum(rhs),rhsMax =   3.99333899281373E-10  1.88131217779769E-02
 cg2d: Sum(rhs),rhsMax =   3.99374797122043E-10  1.88129239691407E-02
 cg2d: Sum(rhs),rhsMax =   3.99422064867316E-10  1.88127279671471E-02
 cg2d: Sum(rhs),rhsMax =   3.99474703316471E-10  1.88125336320926E-02
 cg2d: Sum(rhs),rhsMax =   3.99514504811904E-10  1.88123408250061E-02
 cg2d: Sum(rhs),rhsMax =   3.99570473930133E-10  1.88121494121040E-02
 cg2d: Sum(rhs),rhsMax =   3.99606778223038E-10  1.88119592655485E-02
 cg2d: Sum(rhs),rhsMax =   3.99652852478560E-10  1.88117702605475E-02
 cg2d: Sum(rhs),rhsMax =   3.99703187214939E-10  1.88115822786257E-02
 cg2d: Sum(rhs),rhsMax =   3.99746513668475E-10  1.88113951979657E-02
 cg2d: Sum(rhs),rhsMax =   3.99790242577858E-10  1.88112088638566E-02
 cg2d: Sum(rhs),rhsMax =   3.99836525000197E-10  1.88110232282250E-02
 cg2d: Sum(rhs),rhsMax =   3.99874550138790E-10  1.88108382400715E-02
 cg2d: Sum(rhs),rhsMax =   3.99911187498603E-10  1.88106538144678E-02
 cg2d: Sum(rhs),rhsMax =   3.99964769637329E-10  1.88104698556364E-02
 cg2d: Sum(rhs),rhsMax =   4.00019517510231E-10  1.88102863120582E-02
 cg2d: Sum(rhs),rhsMax =   4.00059180227785E-10  1.88101030321937E-02
 cg2d: Sum(rhs),rhsMax =   4.00088059904213E-10  1.88099200386688E-02
 cg2d: Sum(rhs),rhsMax =   4.00128763455854E-10  1.88097372784749E-02
 cg2d: Sum(rhs),rhsMax =   4.00172825432143E-10  1.88095547099173E-02
 cg2d: Sum(rhs),rhsMax =   4.00217345375431E-10  1.88093722899659E-02
 cg2d: Sum(rhs),rhsMax =   4.00266847444541E-10  1.88091900076056E-02
 cg2d: Sum(rhs),rhsMax =   4.00319652427150E-10  1.88090078414915E-02
 cg2d: Sum(rhs),rhsMax =   4.00364214003801E-10  1.88088257919929E-02
 cg2d: Sum(rhs),rhsMax =   4.00404639999685E-10  1.88086438488001E-02
 cg2d: Sum(rhs),rhsMax =   4.00446134585231E-10  1.88084620188214E-02
 cg2d: Sum(rhs),rhsMax =   4.00490293706035E-10  1.88082803031574E-02
 cg2d: Sum(rhs),rhsMax =   4.00544125644942E-10  1.88080987155675E-02
 cg2d: Sum(rhs),rhsMax =   4.00585439819245E-10  1.88079172639204E-02
 cg2d: Sum(rhs),rhsMax =   4.00632874097973E-10  1.88077359581409E-02
 cg2d: Sum(rhs),rhsMax =   4.00686941959272E-10  1.88075548322045E-02
 cg2d: Sum(rhs),rhsMax =   4.00741911876779E-10  1.88073739037746E-02
 cg2d: Sum(rhs),rhsMax =   4.00779659459616E-10  1.88071931876133E-02
 cg2d: Sum(rhs),rhsMax =   4.00828231716943E-10  1.88070127078899E-02
 cg2d: Sum(rhs),rhsMax =   4.00877567252600E-10  1.88068324845060E-02
 cg2d: Sum(rhs),rhsMax =   4.00919769605323E-10  1.88066525424624E-02
 cg2d: Sum(rhs),rhsMax =   4.00967176128475E-10  1.88064728977236E-02
 cg2d: Sum(rhs),rhsMax =   4.01014249584719E-10  1.88062935669022E-02
 cg2d: Sum(rhs),rhsMax =   4.01062863475410E-10  1.88061145606416E-02
 cg2d: Sum(rhs),rhsMax =   4.01102276392784E-10  1.88059358949871E-02
 cg2d: Sum(rhs),rhsMax =   4.01144673034537E-10  1.88057575712056E-02
 cg2d: Sum(rhs),rhsMax =   4.01185293319450E-10  1.88055795886303E-02
 cg2d: Sum(rhs),rhsMax =   4.01234392932714E-10  1.88054019359913E-02
 cg2d: Sum(rhs),rhsMax =   4.01275415673474E-10  1.88052246044119E-02
 cg2d: Sum(rhs),rhsMax =   4.01320268683669E-10  1.88050475734926E-02
 cg2d: Sum(rhs),rhsMax =   4.01355809698245E-10  1.88048708142784E-02
 cg2d: Sum(rhs),rhsMax =   4.01398803084874E-10  1.88046942909587E-02
 cg2d: Sum(rhs),rhsMax =   4.01445959807845E-10  1.88045179604854E-02
 cg2d: Sum(rhs),rhsMax =   4.01486857648514E-10  1.88043417678230E-02
 cg2d: Sum(rhs),rhsMax =   4.01525673821013E-10  1.88041656529704E-02
 cg2d: Sum(rhs),rhsMax =   4.01577882058746E-10  1.88039895432657E-02
 cg2d: Sum(rhs),rhsMax =   4.01634836499909E-10  1.88038133616066E-02
 cg2d: Sum(rhs),rhsMax =   4.01665187221845E-10  1.88036370164799E-02
 cg2d: Sum(rhs),rhsMax =   4.01697342056195E-10  1.88034604129116E-02
 cg2d: Sum(rhs),rhsMax =   4.01739613797858E-10  1.88032834410537E-02
 cg2d: Sum(rhs),rhsMax =   4.01789990167600E-10  1.88031059863678E-02
 cg2d: Sum(rhs),rhsMax =   4.01829680640731E-10  1.88029279233878E-02
 cg2d: Sum(rhs),rhsMax =   4.01882499501127E-10  1.88027491194792E-02
 cg2d: Sum(rhs),rhsMax =   4.01924438175882E-10  1.88025694313001E-02
 cg2d: Sum(rhs),rhsMax =   4.01965932761428E-10  1.88023887118273E-02
 cg2d: Sum(rhs),rhsMax =   4.02014463385392E-10  1.88022067981959E-02
 cg2d: Sum(rhs),rhsMax =   4.02058608628408E-10  1.88020235013985E-02
 cg2d: Sum(rhs),rhsMax =   4.02096744789304E-10  1.88018387544746E-02
 cg2d: Sum(rhs),rhsMax =   4.02148273015435E-10  1.88016522865512E-02
 cg2d: Sum(rhs),rhsMax =   4.02194680337864E-10  1.88014639338291E-02
 cg2d: Sum(rhs),rhsMax =   4.02243918729006E-10  1.88012735276410E-02
 cg2d: Sum(rhs),rhsMax =   4.02282512856900E-10  1.88010808816905E-02
 cg2d: Sum(rhs),rhsMax =   4.02325256443348E-10  1.88008858048333E-02
 cg2d: Sum(rhs),rhsMax =   4.02375174846092E-10  1.88006881094944E-02
 cg2d: Sum(rhs),rhsMax =   4.02423164236332E-10  1.88004876052225E-02
 cg2d: Sum(rhs),rhsMax =   4.02470695659574E-10  1.88002841040348E-02
 cg2d: Sum(rhs),rhsMax =   4.02521294073921E-10  1.88000774136794E-02
 cg2d: Sum(rhs),rhsMax =   4.02553615441725E-10  1.87998673454737E-02
 cg2d: Sum(rhs),rhsMax =   4.02604102833770E-10  1.87996537162361E-02
 cg2d: Sum(rhs),rhsMax =   4.02648206443423E-10  1.87994363432049E-02
 cg2d: Sum(rhs),rhsMax =   4.02688146716734E-10  1.87992150521072E-02
 cg2d: Sum(rhs),rhsMax =   4.02734914861647E-10  1.87989896720502E-02
 cg2d: Sum(rhs),rhsMax =   4.02779268271480E-10  1.87987600369793E-02
 cg2d: Sum(rhs),rhsMax =   4.02832600610026E-10  1.87985259930352E-02
 cg2d: Sum(rhs),rhsMax =   4.02858607584378E-10  1.87982873924996E-02
 cg2d: Sum(rhs),rhsMax =   4.02915562025541E-10  1.87980440974371E-02
 cg2d: Sum(rhs),rhsMax =   4.02958361123140E-10  1.87977959779583E-02
 cg2d: Sum(rhs),rhsMax =   4.03013039607103E-10  1.87975429200336E-02
 cg2d: Sum(rhs),rhsMax =   4.03066094389892E-10  1.87972848195744E-02
 cg2d: Sum(rhs),rhsMax =   4.03120398173584E-10  1.87970215836519E-02
 cg2d: Sum(rhs),rhsMax =   4.03172301099985E-10  1.87967531361020E-02
 cg2d: Sum(rhs),rhsMax =   4.03221886435823E-10  1.87964794127987E-02
 cg2d: Sum(rhs),rhsMax =   4.03275565719063E-10  1.87962010851813E-02
 cg2d: Sum(rhs),rhsMax =   4.03321626096798E-10  1.87959174060369E-02
 cg2d: Sum(rhs),rhsMax =   4.03366451351417E-10  1.87956283016198E-02
 cg2d: Sum(rhs),rhsMax =   4.03426445028110E-10  1.87953338310564E-02
 cg2d: Sum(rhs),rhsMax =   4.03483968458573E-10  1.87950339936501E-02
 cg2d: Sum(rhs),rhsMax =   4.03527947168136E-10  1.87947288941775E-02
 cg2d: Sum(rhs),rhsMax =   4.03573993668083E-10  1.87944185921763E-02
 cg2d: Sum(rhs),rhsMax =   4.03616459698775E-10  1.87941031527245E-02
 cg2d: Sum(rhs),rhsMax =   4.03664254799985E-10  1.87937826530014E-02
 cg2d: Sum(rhs),rhsMax =   4.03709690677267E-10  1.87934571870998E-02
 cg2d: Sum(rhs),rhsMax =   4.03762287493059E-10  1.87931268664545E-02
 cg2d: Sum(rhs),rhsMax =   4.03809430338242E-10  1.87927918149863E-02
 cg2d: Sum(rhs),rhsMax =   4.03864414133537E-10  1.87924521768364E-02
 cg2d: Sum(rhs),rhsMax =   4.03921771030546E-10  1.87921081075239E-02
 cg2d: Sum(rhs),rhsMax =   4.03971564533201E-10  1.87917597809123E-02
 cg2d: Sum(rhs),rhsMax =   4.04015931820823E-10  1.87914073832503E-02
 cg2d: Sum(rhs),rhsMax =   4.04067557191468E-10  1.87910511152856E-02
 cg2d: Sum(rhs),rhsMax =   4.04111494267667E-10  1.87906911896113E-02
 cg2d: Sum(rhs),rhsMax =   4.04155223177050E-10  1.87903278329959E-02
 cg2d: Sum(rhs),rhsMax =   4.04198743919615E-10  1.87899612832889E-02
 cg2d: Sum(rhs),rhsMax =   4.04244263063624E-10  1.87895917876791E-02
 cg2d: Sum(rhs),rhsMax =   4.04277333831971E-10  1.87892196060570E-02
 cg2d: Sum(rhs),rhsMax =   4.04331387815482E-10  1.87888450051360E-02
 cg2d: Sum(rhs),rhsMax =   4.04373687312720E-10  1.87884682612179E-02
 cg2d: Sum(rhs),rhsMax =   4.04408312393301E-10  1.87880896548064E-02
 cg2d: Sum(rhs),rhsMax =   4.04463254555232E-10  1.87877094766915E-02
 cg2d: Sum(rhs),rhsMax =   4.04514421958879E-10  1.87873280197919E-02
 cg2d: Sum(rhs),rhsMax =   4.04562688904875E-10  1.87869455802958E-02
 cg2d: Sum(rhs),rhsMax =   4.04606709247801E-10  1.87865624604273E-02
 cg2d: Sum(rhs),rhsMax =   4.04661665287520E-10  1.87861789606084E-02
 cg2d: Sum(rhs),rhsMax =   4.04718702995410E-10  1.87857953838843E-02
 cg2d: Sum(rhs),rhsMax =   4.04777905638198E-10  1.87854120314759E-02
 cg2d: Sum(rhs),rhsMax =   4.04826797084645E-10  1.87850292038449E-02
 cg2d: Sum(rhs),rhsMax =   4.04882044557908E-10  1.87846471978068E-02
 cg2d: Sum(rhs),rhsMax =   4.04930741715326E-10  1.87842663062062E-02
 cg2d: Sum(rhs),rhsMax =   4.04975747381187E-10  1.87838868188393E-02
 cg2d: Sum(rhs),rhsMax =   4.05027691940951E-10  1.87835090142535E-02
 cg2d: Sum(rhs),rhsMax =   4.05067299147355E-10  1.87831331681134E-02
 cg2d: Sum(rhs),rhsMax =   4.05121408642017E-10  1.87827595456624E-02
 cg2d: Sum(rhs),rhsMax =   4.05165470618307E-10  1.87823884017917E-02
 cg2d: Sum(rhs),rhsMax =   4.05213057552700E-10  1.87820199867375E-02
 cg2d: Sum(rhs),rhsMax =   4.05255148883121E-10  1.87816545373583E-02
 cg2d: Sum(rhs),rhsMax =   4.05302527650697E-10  1.87812922780187E-02
 cg2d: Sum(rhs),rhsMax =   4.05343897336152E-10  1.87809334037558E-02
 cg2d: Sum(rhs),rhsMax =   4.05396216596188E-10  1.87805781174277E-02
 cg2d: Sum(rhs),rhsMax =   4.05445843565388E-10  1.87802265792817E-02
 cg2d: Sum(rhs),rhsMax =   4.05501021649712E-10  1.87798789564304E-02
 cg2d: Sum(rhs),rhsMax =   4.05550440452096E-10  1.87795353845057E-02
 cg2d: Sum(rhs),rhsMax =   4.05596181640711E-10  1.87791960598652E-02
 cg2d: Sum(rhs),rhsMax =   4.05647640477902E-10  1.87788610531478E-02
 cg2d: Sum(rhs),rhsMax =   4.05687344828820E-10  1.87785304623760E-02
 cg2d: Sum(rhs),rhsMax =   4.05742342501902E-10  1.87782044011653E-02
 cg2d: Sum(rhs),rhsMax =   4.05787570212368E-10  1.87778829594205E-02
 cg2d: Sum(rhs),rhsMax =   4.05829744809516E-10  1.87775662066141E-02
 cg2d: Sum(rhs),rhsMax =   4.05870559383459E-10  1.87772541997914E-02
 cg2d: Sum(rhs),rhsMax =   4.05917230383857E-10  1.87769469830937E-02
 cg2d: Sum(rhs),rhsMax =   4.05966593675089E-10  1.87766001183636E-02
(PID.TID 0000.0001)      cg2d_init_res =   1.06068279366978E-04
(PID.TID 0000.0001)      cg2d_iters(min,last) =      -1      39
(PID.TID 0000.0001)      cg2d_last_res =   6.14829645921308E-14
(PID.TID 0000.0001) // =======================================================
(PID.TID 0000.0001) // Begin MONITOR dynamic field statistics
(PID.TID 0000.0001) // =======================================================
(PID.TID 0000.0001) %MON time_tsnumber                =                 11232
(PID.TID 0000.0001) %MON time_secondsf                =   2.8080000000000E+05
(PID.TID 0000.0001) %MON dynstat_eta_max              =   5.5637554513145E-03
(PID.TID 0000.0001) %MON dynstat_eta_min              =  -2.7055610102742E-03
(PID.TID 0000.0001) %MON dynstat_eta_mean             =  -5.1050965777981E-14
(PID.TID 0000.0001) %MON dynstat_eta_sd               =   2.8138322324100E-03
(PID.TID 0000.0001) %MON dynstat_eta_del2             =   2.3882396103496E-05
(PID.TID 0000.0001) %MON dynstat_uvel_max             =   4.8491842645178E-02
(PID.TID 0000.0001) %MON dynstat_uvel_min             =  -3.3284011189892E-02
(PID.TID 0000.0001) %MON dynstat_uvel_mean            =   5.0636939855028E-09
(PID.TID 0000.0001) %MON dynstat_uvel_sd              =   6.0540810669694E-03
(PID.TID 0000.0001) %MON dynstat_uvel_del2            =   1.0459908461161E-04
(PID.TID 0000.0001) %MON dynstat_vvel_max             =   2.1798840159323E-02
(PID.TID 0000.0001) %MON dynstat_vvel_min             =  -3.2574026267031E-02
(PID.TID 0000.0001) %MON dynstat_vvel_mean            =  -8.0919745558953E-03
(PID.TID 0000.0001) %MON dynstat_vvel_sd              =   1.1378835287903E-02
(PID.TID 0000.0001) %MON dynstat_vvel_del2            =   9.3227798612244E-05
(PID.TID 0000.0001) %MON dynstat_wvel_max             =   1.3364734745517E-03
(PID.TID 0000.0001) %MON dynstat_wvel_min             =  -1.0818003760686E-03
(PID.TID 0000.0001) %MON dynstat_wvel_mean            =  -1.8518864283096E-20
(PID.TID 0000.0001) %MON dynstat_wvel_sd              =   1.2566985217396E-04
(PID.TID 0000.0001) %MON dynstat_wvel_del2            =   6.1896288833069E-06
(PID.TID 0000.0001) %MON dynstat_theta_max            =   2.6931451612903E+00
(PID.TID 0000.0001) %MON dynstat_theta_min            =  -3.4791542964850E-01
(PID.TID 0000.0001) %MON dynstat_theta_mean           =   2.2323286404066E+00
(PID.TID 0000.0001) %MON dynstat_theta_sd             =   4.9240888695293E-01
(PID.TID 0000.0001) %MON dynstat_theta_del2           =   1.4817466969471E-03
(PID.TID 0000.0001) %MON dynstat_salt_max             =   3.4699999999999E+01
(PID.TID 0000.0001) %MON dynstat_salt_min             =   3.3016889307869E+01
(PID.TID 0000.0001) %MON dynstat_salt_mean            =   3.4364512565606E+01
(PID.TID 0000.0001) %MON dynstat_salt_sd              =   3.2192180973604E-01
(PID.TID 0000.0001) %MON dynstat_salt_del2            =   2.0086114536230E-04
(PID.TID 0000.0001) %MON advcfl_uvel_max              =   2.4245921322589E-03
(PID.TID 0000.0001) %MON advcfl_vvel_max              =   1.6287013133516E-03
(PID.TID 0000.0001) %MON advcfl_wvel_max              =   6.3573761117795E-04
(PID.TID 0000.0001) %MON advcfl_W_hf_max              =   1.8032982426306E-03
(PID.TID 0000.0001) %MON pe_b_mean                    =   6.6060380785316E-08
(PID.TID 0000.0001) %MON ke_max                       =   1.1206170989544E-03
(PID.TID 0000.0001) %MON ke_mean                      =   1.0584816228812E-04
(PID.TID 0000.0001) %MON ke_vol                       =   3.2921708585402E+10
(PID.TID 0000.0001) // =======================================================
(PID.TID 0000.0001) // End MONITOR dynamic field statistics
(PID.TID 0000.0001) // =======================================================
(PID.TID 0000.0001) // =======================================================
(PID.TID 0000.0001) // Begin OBCS MONITOR field statistics
(PID.TID 0000.0001) // =======================================================
(PID.TID 0000.0001) %MON obc_E_uVel_max               =   0.0000000000000E+00
(PID.TID 0000.0001) %MON obc_E_uVel_min               =   0.0000000000000E+00
(PID.TID 0000.0001) %MON obc_E_uVel_mean              =   0.0000000000000E+00
(PID.TID 0000.0001) %MON obc_E_uVel_sd                =   0.0000000000000E+00
(PID.TID 0000.0001) %MON obc_E_uVel_Int               =   0.0000000000000E+00
(PID.TID 0000.0001) %MON obc_N_vVel_max               =  -3.6115799844846E-05
(PID.TID 0000.0001) %MON obc_N_vVel_min               =  -3.0000000000000E-02
(PID.TID 0000.0001) %MON obc_N_vVel_mean              =  -1.3225455303334E-02
(PID.TID 0000.0001) %MON obc_N_vVel_sd                =   1.1350864292742E-02
(PID.TID 0000.0001) %MON obc_N_vVel_Int               =  -5.9514548865004E+04
(PID.TID 0000.0001) %MON obc_S_vVel_max               =  -3.6115799844846E-05
(PID.TID 0000.0001) %MON obc_S_vVel_min               =  -3.0000000000000E-02
(PID.TID 0000.0001) %MON obc_S_vVel_mean              =  -1.3225455303334E-02
(PID.TID 0000.0001) %MON obc_S_vVel_sd                =   1.1350864292742E-02
(PID.TID 0000.0001) %MON obc_S_vVel_Int               =  -5.9514548865004E+04
(PID.TID 0000.0001) // =======================================================
(PID.TID 0000.0001) // End OBCS MONITOR field statistics
(PID.TID 0000.0001) // =======================================================
 Computing Diagnostic #    26 "THETA   " (list#  1) Parms "SMR     MR      ", Count=     144
 Computing Diagnostic #    27 "SALT    " (list#  1) Parms "SMR     MR      ", Count=     144
 Computing Diagnostic #    30 "UVEL    " (list#  1) Parms "UUR     MR      ", Count=     144
             Vector  Mate for "UVEL    " :  Diagnostic #     31 "VVEL    " exists
 Computing Diagnostic #    32 "WVEL    " (list#  1) Parms "WM      LR      ", Count=     144
 Computing Diagnostic #    31 "VVEL    " (list#  1) Parms "VVR     MR      ", Count=     144
             Vector  Mate for "VVEL    " :  Diagnostic #     30 "UVEL    " exists
 Computing Diagnostic #   197 "BRGfwFlx" (list#  2) Parms "SM      MR      ", Count=     144
 Computing Diagnostic #   198 "BRGhtFlx" (list#  2) Parms "SM      MR      ", Count=     144
 Computing Diagnostic #   199 "BRGmltRt" (list#  2) Parms "SM      MR      ", Count=     144
 Computing Diagnostic #   201 "BRG_TauX" (list#  2) Parms "UU      MR      ", Count=    1728
 Computing Diagnostic #   202 "BRG_TauY" (list#  2) Parms "VV      MR      ", Count=    1728
 Computing Diagnostic #   203 "BRGhFacC" (list#  2) Parms "SM      MR      ", Count=    1728
 cg2d: Sum(rhs),rhsMax =   4.06027433896838E-10  1.87761310505862E-02
 cg2d: Sum(rhs),rhsMax =   4.06076269832134E-10  1.87756638473086E-02
 cg2d: Sum(rhs),rhsMax =   4.06126063334789E-10  1.87752049677815E-02
 cg2d: Sum(rhs),rhsMax =   4.06166281163856E-10  1.87747532203053E-02
 cg2d: Sum(rhs),rhsMax =   4.06216366100054E-10  1.87743091067449E-02
 cg2d: Sum(rhs),rhsMax =   4.06259997864922E-10  1.87738733226545E-02
 cg2d: Sum(rhs),rhsMax =   4.06306960298863E-10  1.87734465154451E-02
 cg2d: Sum(rhs),rhsMax =   4.06359682014745E-10  1.87730292902912E-02
 cg2d: Sum(rhs),rhsMax =   4.06406963637806E-10  1.87726222230781E-02
 cg2d: Sum(rhs),rhsMax =   4.06466416080775E-10  1.87722258538731E-02
 cg2d: Sum(rhs),rhsMax =   4.06511602157877E-10  1.87718406882266E-02
 cg2d: Sum(rhs),rhsMax =   4.06566405541930E-10  1.87714671949859E-02
 cg2d: Sum(rhs),rhsMax =   4.06602640445897E-10  1.87711058027202E-02
 cg2d: Sum(rhs),rhsMax =   4.06649103279477E-10  1.87707569036705E-02
 cg2d: Sum(rhs),rhsMax =   4.06687933329763E-10  1.87704208482421E-02
 cg2d: Sum(rhs),rhsMax =   4.06737907243659E-10  1.87700979463310E-02
 cg2d: Sum(rhs),rhsMax =   4.06772990291238E-10  1.87697884660238E-02
 cg2d: Sum(rhs),rhsMax =   4.06817551867888E-10  1.87694926542842E-02
 cg2d: Sum(rhs),rhsMax =   4.06868427837992E-10  1.87692106329711E-02
 cg2d: Sum(rhs),rhsMax =   4.06910255490445E-10  1.87689425740701E-02
 cg2d: Sum(rhs),rhsMax =   4.06969985489170E-10  1.87686885715902E-02
 cg2d: Sum(rhs),rhsMax =   4.07019376535978E-10  1.87684486664406E-02
 cg2d: Sum(rhs),rhsMax =   4.07068184715698E-10  1.87682228642813E-02
 cg2d: Sum(rhs),rhsMax =   4.07105932298535E-10  1.87680111306811E-02
 cg2d: Sum(rhs),rhsMax =   4.07158057269541E-10  1.87678133925184E-02
 cg2d: Sum(rhs),rhsMax =   4.07199121643664E-10  1.87676295347547E-02
 cg2d: Sum(rhs),rhsMax =   4.07245306921489E-10  1.87674594052902E-02
 cg2d: Sum(rhs),rhsMax =   4.07292394255521E-10  1.87673028103632E-02
 cg2d: Sum(rhs),rhsMax =   4.07334194152398E-10  1.87671595214386E-02
 cg2d: Sum(rhs),rhsMax =   4.07391537171620E-10  1.87670292734734E-02
 cg2d: Sum(rhs),rhsMax =   4.07443495609172E-10  1.87669117658448E-02
 cg2d: Sum(rhs),rhsMax =   4.07485462039503E-10  1.87668066653212E-02
 cg2d: Sum(rhs),rhsMax =   4.07518463418910E-10  1.87667136013050E-02
 cg2d: Sum(rhs),rhsMax =   4.07547509628792E-10  1.87666321809858E-02
 cg2d: Sum(rhs),rhsMax =   4.07591710382960E-10  1.87665619751619E-02
 cg2d: Sum(rhs),rhsMax =   4.07631525756180E-10  1.87665025264599E-02
 cg2d: Sum(rhs),rhsMax =   4.07666886359515E-10  1.87664533530894E-02
 cg2d: Sum(rhs),rhsMax =   4.07704967009259E-10  1.87664139480608E-02
 cg2d: Sum(rhs),rhsMax =   4.07738912078237E-10  1.87663837801469E-02
 cg2d: Sum(rhs),rhsMax =   4.07775216371142E-10  1.87663622966113E-02
 cg2d: Sum(rhs),rhsMax =   4.07831587945218E-10  1.87663489255923E-02
 cg2d: Sum(rhs),rhsMax =   4.07870251462050E-10  1.87663430753620E-02
 cg2d: Sum(rhs),rhsMax =   4.07900643817349E-10  1.87663441401865E-02
 cg2d: Sum(rhs),rhsMax =   4.07928107959421E-10  1.87663514985945E-02
 cg2d: Sum(rhs),rhsMax =   4.07969255600271E-10  1.87663645146291E-02
 cg2d: Sum(rhs),rhsMax =   4.08014677599766E-10  1.87663825451944E-02
 cg2d: Sum(rhs),rhsMax =   4.08053313361023E-10  1.87664049320374E-02
 cg2d: Sum(rhs),rhsMax =   4.08085593095464E-10  1.87664310163345E-02
 cg2d: Sum(rhs),rhsMax =   4.08120037764803E-10  1.87664601293942E-02
 cg2d: Sum(rhs),rhsMax =   4.08158368214728E-10  1.87664915990799E-02
 cg2d: Sum(rhs),rhsMax =   4.08185873990163E-10  1.87665247542369E-02
 cg2d: Sum(rhs),rhsMax =   4.08222775027944E-10  1.87665589150445E-02
 cg2d: Sum(rhs),rhsMax =   4.08266656592993E-10  1.87665934145203E-02
 cg2d: Sum(rhs),rhsMax =   4.08301920051812E-10  1.87666275812250E-02
 cg2d: Sum(rhs),rhsMax =   4.08340680713160E-10  1.87666607521592E-02
 cg2d: Sum(rhs),rhsMax =   4.08388961536943E-10  1.87666922676510E-02
 cg2d: Sum(rhs),rhsMax =   4.08431607978876E-10  1.87667214776575E-02
 cg2d: Sum(rhs),rhsMax =   4.08469966184377E-10  1.87667477452337E-02
 cg2d: Sum(rhs),rhsMax =   4.08518691097370E-10  1.87667704403388E-02
 cg2d: Sum(rhs),rhsMax =   4.08555134168154E-10  1.87667889453374E-02
 cg2d: Sum(rhs),rhsMax =   4.08603595403179E-10  1.87668026633228E-02
 cg2d: Sum(rhs),rhsMax =   4.08642383820101E-10  1.87668110081300E-02
 cg2d: Sum(rhs),rhsMax =   4.08689540543072E-10  1.87668134106960E-02
 cg2d: Sum(rhs),rhsMax =   4.08732075962703E-10  1.87668093243968E-02
 cg2d: Sum(rhs),rhsMax =   4.08769129656150E-10  1.87667982185310E-02
 cg2d: Sum(rhs),rhsMax =   4.08807571128378E-10  1.87667795852959E-02
 cg2d: Sum(rhs),rhsMax =   4.08850828192975E-10  1.87667529411984E-02
 cg2d: Sum(rhs),rhsMax =   4.08901190684929E-10  1.87667178224494E-02
 cg2d: Sum(rhs),rhsMax =   4.08936287610295E-10  1.87666737954993E-02
 cg2d: Sum(rhs),rhsMax =   4.08990494249473E-10  1.87666204471268E-02
 cg2d: Sum(rhs),rhsMax =   4.09018610647571E-10  1.87665573932263E-02
 cg2d: Sum(rhs),rhsMax =   4.09065115114515E-10  1.87664842799594E-02
 cg2d: Sum(rhs),rhsMax =   4.09112979604664E-10  1.87664007762092E-02
 cg2d: Sum(rhs),rhsMax =   4.09152156599646E-10  1.87663065859065E-02
 cg2d: Sum(rhs),rhsMax =   4.09193581796252E-10  1.87662014403689E-02
 cg2d: Sum(rhs),rhsMax =   4.09240294430013E-10  1.87660850996144E-02
 cg2d: Sum(rhs),rhsMax =   4.09293321457227E-10  1.87659573588967E-02
 cg2d: Sum(rhs),rhsMax =   4.09334621753743E-10  1.87658180432501E-02
 cg2d: Sum(rhs),rhsMax =   4.09385497723846E-10  1.87656670101127E-02
 cg2d: Sum(rhs),rhsMax =   4.09429656844651E-10  1.87655041482120E-02
 cg2d: Sum(rhs),rhsMax =   4.09472331042160E-10  1.87653293806420E-02
 cg2d: Sum(rhs),rhsMax =   4.09504916087933E-10  1.87651426529066E-02
 cg2d: Sum(rhs),rhsMax =   4.09550976465667E-10  1.87649439511382E-02
 cg2d: Sum(rhs),rhsMax =   4.09593331474056E-10  1.87647333113694E-02
 cg2d: Sum(rhs),rhsMax =   4.09648093224746E-10  1.87645107928888E-02
 cg2d: Sum(rhs),rhsMax =   4.09692987868304E-10  1.87642764795317E-02
 cg2d: Sum(rhs),rhsMax =   4.09746223062335E-10  1.87640304855241E-02
 cg2d: Sum(rhs),rhsMax =   4.09803635470496E-10  1.87637729586399E-02
 cg2d: Sum(rhs),rhsMax =   4.09852859983850E-10  1.87635040819709E-02
 cg2d: Sum(rhs),rhsMax =   4.09886208307952E-10  1.87632240679150E-02
 cg2d: Sum(rhs),rhsMax =   4.09916545152100E-10  1.87629331600982E-02
 cg2d: Sum(rhs),rhsMax =   4.09967296222113E-10  1.87626316324596E-02
 cg2d: Sum(rhs),rhsMax =   4.10004766249195E-10  1.87623197881898E-02
 cg2d: Sum(rhs),rhsMax =   4.10052117261195E-10  1.87619979567512E-02
 cg2d: Sum(rhs),rhsMax =   4.10094833092067E-10  1.87616664952680E-02
 cg2d: Sum(rhs),rhsMax =   4.10133538242263E-10  1.87613257902825E-02
 cg2d: Sum(rhs),rhsMax =   4.10177058984829E-10  1.87609762494929E-02
 cg2d: Sum(rhs),rhsMax =   4.10228712111049E-10  1.87606183037343E-02
 cg2d: Sum(rhs),rhsMax =   4.10275383111447E-10  1.87602524063758E-02
 cg2d: Sum(rhs),rhsMax =   4.10327008482092E-10  1.87598790324469E-02
 cg2d: Sum(rhs),rhsMax =   4.10377593018652E-10  1.87594986757125E-02
 cg2d: Sum(rhs),rhsMax =   4.10428635522209E-10  1.87591118476275E-02
 cg2d: Sum(rhs),rhsMax =   4.10487574487028E-10  1.87587190753012E-02
 cg2d: Sum(rhs),rhsMax =   4.10540448858576E-10  1.87583209005277E-02
 cg2d: Sum(rhs),rhsMax =   4.10596098787686E-10  1.87579178803983E-02
 cg2d: Sum(rhs),rhsMax =   4.10642672643569E-10  1.87575105810909E-02
 cg2d: Sum(rhs),rhsMax =   4.10683417828572E-10  1.87570995776327E-02
 cg2d: Sum(rhs),rhsMax =   4.10727812871770E-10  1.87566854537266E-02
 cg2d: Sum(rhs),rhsMax =   4.10786626936499E-10  1.87562688017257E-02
 cg2d: Sum(rhs),rhsMax =   4.10827316610352E-10  1.87558502107580E-02
 cg2d: Sum(rhs),rhsMax =   4.10878372991696E-10  1.87554302772724E-02
 cg2d: Sum(rhs),rhsMax =   4.10940947936922E-10  1.87550095945104E-02
 cg2d: Sum(rhs),rhsMax =   4.10990033672398E-10  1.87545887533232E-02
 cg2d: Sum(rhs),rhsMax =   4.11036982228552E-10  1.87541683428506E-02
 cg2d: Sum(rhs),rhsMax =   4.11081543805203E-10  1.87537489409589E-02
 cg2d: Sum(rhs),rhsMax =   4.11128533994720E-10  1.87533311201388E-02
 cg2d: Sum(rhs),rhsMax =   4.11172887404554E-10  1.87529154449309E-02
 cg2d: Sum(rhs),rhsMax =   4.11217143669873E-10  1.87525024618024E-02
 cg2d: Sum(rhs),rhsMax =   4.11268158417855E-10  1.87520927070617E-02
 cg2d: Sum(rhs),rhsMax =   4.11306849690263E-10  1.87516867004345E-02
 cg2d: Sum(rhs),rhsMax =   4.11349523887772E-10  1.87512849431897E-02
 cg2d: Sum(rhs),rhsMax =   4.11400108424331E-10  1.87508879180812E-02
 cg2d: Sum(rhs),rhsMax =   4.11461170690686E-10  1.87504960859397E-02
 cg2d: Sum(rhs),rhsMax =   4.11503983666073E-10  1.87501098820060E-02
 cg2d: Sum(rhs),rhsMax =   4.11543368827871E-10  1.87497297227846E-02
 cg2d: Sum(rhs),rhsMax =   4.11594272553550E-10  1.87493559952425E-02
 cg2d: Sum(rhs),rhsMax =   4.11643233388936E-10  1.87489890593733E-02
 cg2d: Sum(rhs),rhsMax =   4.11688919066400E-10  1.87486292467082E-02
 cg2d: Sum(rhs),rhsMax =   4.11735465166707E-10  1.87482768592015E-02
 cg2d: Sum(rhs),rhsMax =   4.11787853815682E-10  1.87479321694768E-02
 cg2d: Sum(rhs),rhsMax =   4.11836884040007E-10  1.87475954160244E-02
 cg2d: Sum(rhs),rhsMax =   4.11897557728302E-10  1.87472668057526E-02
 cg2d: Sum(rhs),rhsMax =   4.11946893263959E-10  1.87469465117046E-02
 cg2d: Sum(rhs),rhsMax =   4.11987943760295E-10  1.87466346751392E-02
 cg2d: Sum(rhs),rhsMax =   4.12039957708998E-10  1.87463314017787E-02
 cg2d: Sum(rhs),rhsMax =   4.12087114431969E-10  1.87460367616878E-02
 cg2d: Sum(rhs),rhsMax =   4.12125680804287E-10  1.87457507908173E-02
 cg2d: Sum(rhs),rhsMax =   4.12177153519266E-10  1.87454734924386E-02
 cg2d: Sum(rhs),rhsMax =   4.12218592593661E-10  1.87452048315208E-02
 cg2d: Sum(rhs),rhsMax =   4.12264347660063E-10  1.87449447416265E-02
 cg2d: Sum(rhs),rhsMax =   4.12309505981590E-10  1.87446931209720E-02
 cg2d: Sum(rhs),rhsMax =   4.12352457734855E-10  1.87444498343087E-02
 cg2d: Sum(rhs),rhsMax =   4.12391898407805E-10  1.87442147152086E-02
 cg2d: Sum(rhs),rhsMax =   4.12439082886351E-10  1.87439875622163E-02
 Computing Diagnostic #    26 "THETA   " (list#  1) Parms "SMR     MR      ", Count=     144
 Computing Diagnostic #    27 "SALT    " (list#  1) Parms "SMR     MR      ", Count=     144
 Computing Diagnostic #    30 "UVEL    " (list#  1) Parms "UUR     MR      ", Count=     144
             Vector  Mate for "UVEL    " :  Diagnostic #     31 "VVEL    " exists
 Computing Diagnostic #    32 "WVEL    " (list#  1) Parms "WM      LR      ", Count=     144
 Computing Diagnostic #    31 "VVEL    " (list#  1) Parms "VVR     MR      ", Count=     144
             Vector  Mate for "VVEL    " :  Diagnostic #     30 "UVEL    " exists
 Computing Diagnostic #   197 "BRGfwFlx" (list#  2) Parms "SM      MR      ", Count=     144
 Computing Diagnostic #   198 "BRGhtFlx" (list#  2) Parms "SM      MR      ", Count=     144
 Computing Diagnostic #   199 "BRGmltRt" (list#  2) Parms "SM      MR      ", Count=     144
 Computing Diagnostic #   201 "BRG_TauX" (list#  2) Parms "UU      MR      ", Count=    1728
 Computing Diagnostic #   202 "BRG_TauY" (list#  2) Parms "VV      MR      ", Count=    1728
 Computing Diagnostic #   203 "BRGhFacC" (list#  2) Parms "SM      MR      ", Count=    1728
 cg2d: Sum(rhs),rhsMax =   4.12487488610225E-10  1.87439086074573E-02
 cg2d: Sum(rhs),rhsMax =   4.12523099013740E-10  1.87439512965102E-02
 cg2d: Sum(rhs),rhsMax =   4.12560055562672E-10  1.87439971979858E-02
 cg2d: Sum(rhs),rhsMax =   4.12600731358737E-10  1.87440445167793E-02
 cg2d: Sum(rhs),rhsMax =   4.12638395674847E-10  1.87440916199268E-02
 cg2d: Sum(rhs),rhsMax =   4.12670911331681E-10  1.87441362954480E-02
 cg2d: Sum(rhs),rhsMax =   4.12706202546076E-10  1.87441766257101E-02
 cg2d: Sum(rhs),rhsMax =   4.12741160693564E-10  1.87442107712188E-02
 cg2d: Sum(rhs),rhsMax =   4.12777340086379E-10  1.87442369428377E-02
 cg2d: Sum(rhs),rhsMax =   4.12818210171473E-10  1.87442534025922E-02
 cg2d: Sum(rhs),rhsMax =   4.12858053300269E-10  1.87442584871037E-02
 cg2d: Sum(rhs),rhsMax =   4.12898937263151E-10  1.87442506061309E-02
 cg2d: Sum(rhs),rhsMax =   4.12940751037816E-10  1.87442282508889E-02
 cg2d: Sum(rhs),rhsMax =   4.12985937114918E-10  1.87441900029913E-02
 cg2d: Sum(rhs),rhsMax =   4.13027667622856E-10  1.87441345381449E-02
 cg2d: Sum(rhs),rhsMax =   4.13069065063887E-10  1.87440606292609E-02
 cg2d: Sum(rhs),rhsMax =   4.13110781694037E-10  1.87439671516431E-02
 cg2d: Sum(rhs),rhsMax =   4.13153997125271E-10  1.87438530891496E-02
 cg2d: Sum(rhs),rhsMax =   4.13182779657184E-10  1.87437175357824E-02
 cg2d: Sum(rhs),rhsMax =   4.13228826157130E-10  1.87435596984354E-02
 cg2d: Sum(rhs),rhsMax =   4.13271875054910E-10  1.87433788956701E-02
 cg2d: Sum(rhs),rhsMax =   4.13308193225603E-10  1.87431745671966E-02
 cg2d: Sum(rhs),rhsMax =   4.13359818596248E-10  1.87429462667090E-02
 cg2d: Sum(rhs),rhsMax =   4.13406947563644E-10  1.87426936534785E-02
 cg2d: Sum(rhs),rhsMax =   4.13468773108328E-10  1.87424165171272E-02
 cg2d: Sum(rhs),rhsMax =   4.13514361641276E-10  1.87421147760865E-02
 cg2d: Sum(rhs),rhsMax =   4.13566986212643E-10  1.87417884608646E-02
 cg2d: Sum(rhs),rhsMax =   4.13612158411958E-10  1.87414377115280E-02
 cg2d: Sum(rhs),rhsMax =   4.13667336496282E-10  1.87410627875792E-02
 cg2d: Sum(rhs),rhsMax =   4.13701781165621E-10  1.87406640589011E-02
 cg2d: Sum(rhs),rhsMax =   4.13746037430940E-10  1.87402420043368E-02
 cg2d: Sum(rhs),rhsMax =   4.13786352404522E-10  1.87397972092373E-02
 cg2d: Sum(rhs),rhsMax =   4.13842599078507E-10  1.87393303603945E-02
 cg2d: Sum(rhs),rhsMax =   4.13895695494659E-10  1.87388422425913E-02
 cg2d: Sum(rhs),rhsMax =   4.13948764155236E-10  1.87383337331357E-02
 cg2d: Sum(rhs),rhsMax =   4.13994560855002E-10  1.87378057983173E-02
 cg2d: Sum(rhs),rhsMax =   4.14036249729577E-10  1.87372594905801E-02
 cg2d: Sum(rhs),rhsMax =   4.14087250599771E-10  1.87366959345615E-02
 cg2d: Sum(rhs),rhsMax =   4.14140957638587E-10  1.87361163300878E-02
 cg2d: Sum(rhs),rhsMax =   4.14197329212662E-10  1.87355219439856E-02
 cg2d: Sum(rhs),rhsMax =   4.14248274571705E-10  1.87349140921843E-02
 cg2d: Sum(rhs),rhsMax =   4.14304354712236E-10  1.87342941742815E-02
 cg2d: Sum(rhs),rhsMax =   4.14354495159586E-10  1.87336636112956E-02
 cg2d: Sum(rhs),rhsMax =   4.14407841375919E-10  1.87330200363790E-02
 cg2d: Sum(rhs),rhsMax =   4.14458592445932E-10  1.87323634937008E-02
 cg2d: Sum(rhs),rhsMax =   4.14510023527548E-10  1.87316956810892E-02
 cg2d: Sum(rhs),rhsMax =   4.14574305440674E-10  1.87310183398601E-02
 cg2d: Sum(rhs),rhsMax =   4.14635964451904E-10  1.87303332697346E-02
 cg2d: Sum(rhs),rhsMax =   4.14681441962550E-10  1.87296423220722E-02
 cg2d: Sum(rhs),rhsMax =   4.14731499143173E-10  1.87289473826735E-02
 cg2d: Sum(rhs),rhsMax =   4.14781167745737E-10  1.87282503707972E-02
 cg2d: Sum(rhs),rhsMax =   4.14838829954078E-10  1.87275532178758E-02
 cg2d: Sum(rhs),rhsMax =   4.14888748356823E-10  1.87268578689625E-02
 cg2d: Sum(rhs),rhsMax =   4.14938070014692E-10  1.87261662666868E-02
 cg2d: Sum(rhs),rhsMax =   4.14993872599467E-10  1.87254803394917E-02
 cg2d: Sum(rhs),rhsMax =   4.15054102198553E-10  1.87248020012244E-02
 cg2d: Sum(rhs),rhsMax =   4.15113193819039E-10  1.87241331332713E-02
 cg2d: Sum(rhs),rhsMax =   4.15162085265486E-10  1.87234755806820E-02
 cg2d: Sum(rhs),rhsMax =   4.15220344218703E-10  1.87228312012697E-02
 cg2d: Sum(rhs),rhsMax =   4.15286569022122E-10  1.87222017022569E-02
 cg2d: Sum(rhs),rhsMax =   4.15336279258050E-10  1.87215886942732E-02
 cg2d: Sum(rhs),rhsMax =   4.15396661512801E-10  1.87209937968263E-02
 cg2d: Sum(rhs),rhsMax =   4.15463052849674E-10  1.87204185566923E-02
 cg2d: Sum(rhs),rhsMax =   4.15512707574450E-10  1.87198644290534E-02
 cg2d: Sum(rhs),rhsMax =   4.15563083944193E-10  1.87193327663330E-02
 cg2d: Sum(rhs),rhsMax =   4.15611184356734E-10  1.87188248276775E-02
 cg2d: Sum(rhs),rhsMax =   4.15656786767471E-10  1.87183417680264E-02
 cg2d: Sum(rhs),rhsMax =   4.15704623502045E-10  1.87178846350182E-02
 cg2d: Sum(rhs),rhsMax =   4.15758261151922E-10  1.87174467648758E-02
 cg2d: Sum(rhs),rhsMax =   4.15821016508389E-10  1.87170365991306E-02
 cg2d: Sum(rhs),rhsMax =   4.15861178826304E-10  1.87166548913037E-02
 cg2d: Sum(rhs),rhsMax =   4.15894693683860E-10  1.87163022042973E-02
 cg2d: Sum(rhs),rhsMax =   4.15954284904707E-10  1.87159790337121E-02
 cg2d: Sum(rhs),rhsMax =   4.15987785884475E-10  1.87156857421789E-02
 cg2d: Sum(rhs),rhsMax =   4.16025019989164E-10  1.87154225658811E-02
 cg2d: Sum(rhs),rhsMax =   4.16066986419494E-10  1.87151896197876E-02
 cg2d: Sum(rhs),rhsMax =   4.16108023038042E-10  1.87149868955476E-02
 cg2d: Sum(rhs),rhsMax =   4.16152459714603E-10  1.87148142681058E-02
 cg2d: Sum(rhs),rhsMax =   4.16192066921006E-10  1.87146714933123E-02
 cg2d: Sum(rhs),rhsMax =   4.16233811306732E-10  1.87145582091594E-02
 cg2d: Sum(rhs),rhsMax =   4.16268006175891E-10  1.87144739427232E-02
 cg2d: Sum(rhs),rhsMax =   4.16304032913040E-10  1.87144181116638E-02
 cg2d: Sum(rhs),rhsMax =   4.16335632635878E-10  1.87143900274359E-02
 cg2d: Sum(rhs),rhsMax =   4.16373754918986E-10  1.87143888995595E-02
 cg2d: Sum(rhs),rhsMax =   4.16405396275188E-10  1.87144138442559E-02
 cg2d: Sum(rhs),rhsMax =   4.16454690177481E-10  1.87144638873133E-02
 cg2d: Sum(rhs),rhsMax =   4.16480308573774E-10  1.87145379671405E-02
 cg2d: Sum(rhs),rhsMax =   4.16530365754397E-10  1.87146349474872E-02
 cg2d: Sum(rhs),rhsMax =   4.16587306317773E-10  1.87147536181846E-02
 cg2d: Sum(rhs),rhsMax =   4.16632603417177E-10  1.87148927039179E-02
 cg2d: Sum(rhs),rhsMax =   4.16671266934010E-10  1.87150508731853E-02
 cg2d: Sum(rhs),rhsMax =   4.16696940841454E-10  1.87152267433184E-02
 cg2d: Sum(rhs),rhsMax =   4.16731038566098E-10  1.87154188890847E-02
 cg2d: Sum(rhs),rhsMax =   4.16773671130244E-10  1.87156258445988E-02
 cg2d: Sum(rhs),rhsMax =   4.16797860114393E-10  1.87158461192352E-02
 cg2d: Sum(rhs),rhsMax =   4.16827766747119E-10  1.87160781951318E-02
 cg2d: Sum(rhs),rhsMax =   4.16865000851807E-10  1.87163205465836E-02
 cg2d: Sum(rhs),rhsMax =   4.16901874134012E-10  1.87165716353712E-02
 cg2d: Sum(rhs),rhsMax =   4.16942480541138E-10  1.87168299258613E-02
 cg2d: Sum(rhs),rhsMax =   4.16985598827857E-10  1.87170938910853E-02
 cg2d: Sum(rhs),rhsMax =   4.17021778220672E-10  1.87173620175233E-02
 cg2d: Sum(rhs),rhsMax =   4.17054515922111E-10  1.87176328109634E-02
 cg2d: Sum(rhs),rhsMax =   4.17084353165897E-10  1.87179048102536E-02
 cg2d: Sum(rhs),rhsMax =   4.17116813311580E-10  1.87181765838659E-02
 cg2d: Sum(rhs),rhsMax =   4.17153464549180E-10  1.87184467427992E-02
 cg2d: Sum(rhs),rhsMax =   4.17189463530754E-10  1.87187139448784E-02
 cg2d: Sum(rhs),rhsMax =   4.17223172677339E-10  1.87189768967456E-02
 cg2d: Sum(rhs),rhsMax =   4.17261031282479E-10  1.87192343645861E-02
 cg2d: Sum(rhs),rhsMax =   4.17299514388070E-10  1.87194851767934E-02
 cg2d: Sum(rhs),rhsMax =   4.17341092240342E-10  1.87197282238634E-02
 cg2d: Sum(rhs),rhsMax =   4.17378839823179E-10  1.87199624663690E-02
 cg2d: Sum(rhs),rhsMax =   4.17409343200781E-10  1.87201869374940E-02
 cg2d: Sum(rhs),rhsMax =   4.17447479361677E-10  1.87204007477987E-02
 cg2d: Sum(rhs),rhsMax =   4.17474624314629E-10  1.87206030835176E-02
 cg2d: Sum(rhs),rhsMax =   4.17506668126677E-10  1.87207932142810E-02
 cg2d: Sum(rhs),rhsMax =   4.17550452547211E-10  1.87209704854795E-02
 cg2d: Sum(rhs),rhsMax =   4.17578402411856E-10  1.87211343330295E-02
 cg2d: Sum(rhs),rhsMax =   4.17619314130313E-10  1.87212842705960E-02
 cg2d: Sum(rhs),rhsMax =   4.17664444696264E-10  1.87214198946493E-02
 cg2d: Sum(rhs),rhsMax =   4.17704565380816E-10  1.87215408892413E-02
 cg2d: Sum(rhs),rhsMax =   4.17748474701440E-10  1.87216470178413E-02
 cg2d: Sum(rhs),rhsMax =   4.17793619145179E-10  1.87217381276667E-02
 cg2d: Sum(rhs),rhsMax =   4.17831824695014E-10  1.87218141428399E-02
 cg2d: Sum(rhs),rhsMax =   4.17863910140426E-10  1.87218750654729E-02
 cg2d: Sum(rhs),rhsMax =   4.17912385253238E-10  1.87219209762923E-02
 cg2d: Sum(rhs),rhsMax =   4.17950091202712E-10  1.87219520249471E-02
 cg2d: Sum(rhs),rhsMax =   4.17990794754353E-10  1.87219684338237E-02
 cg2d: Sum(rhs),rhsMax =   4.18029957871546E-10  1.87219704887630E-02
 cg2d: Sum(rhs),rhsMax =   4.18076101516007E-10  1.87219585380986E-02
 cg2d: Sum(rhs),rhsMax =   4.18121967604712E-10  1.87219329907715E-02
 cg2d: Sum(rhs),rhsMax =   4.18166154481092E-10  1.87218943077840E-02
 cg2d: Sum(rhs),rhsMax =   4.18203527363659E-10  1.87218430012944E-02
 cg2d: Sum(rhs),rhsMax =   4.18233878085594E-10  1.87217796282080E-02
 cg2d: Sum(rhs),rhsMax =   4.18287945946894E-10  1.87217047796005E-02
 cg2d: Sum(rhs),rhsMax =   4.18325762918670E-10  1.87216190921683E-02
 cg2d: Sum(rhs),rhsMax =   4.18372170241099E-10  1.87215232332582E-02
 cg2d: Sum(rhs),rhsMax =   4.18415302405606E-10  1.87214178881305E-02
 cg2d: Sum(rhs),rhsMax =   4.18455575745824E-10  1.87213037639430E-02
 cg2d: Sum(rhs),rhsMax =   4.18501455712317E-10  1.87211815821708E-02
 cg2d: Sum(rhs),rhsMax =   4.18533110946306E-10  1.87210520757519E-02
 cg2d: Sum(rhs),rhsMax =   4.18568971150002E-10  1.87209159810337E-02
 cg2d: Sum(rhs),rhsMax =   4.18612117192296E-10  1.87207740348910E-02
 cg2d: Sum(rhs),rhsMax =   4.18654388933959E-10  1.87206269684010E-02
 cg2d: Sum(rhs),rhsMax =   4.18698714588217E-10  1.87204755021334E-02
 Computing Diagnostic #    26 "THETA   " (list#  1) Parms "SMR     MR      ", Count=     144
 Computing Diagnostic #    27 "SALT    " (list#  1) Parms "SMR     MR      ", Count=     144
 Computing Diagnostic #    30 "UVEL    " (list#  1) Parms "UUR     MR      ", Count=     144
             Vector  Mate for "UVEL    " :  Diagnostic #     31 "VVEL    " exists
 Computing Diagnostic #    32 "WVEL    " (list#  1) Parms "WM      LR      ", Count=     144
 Computing Diagnostic #    31 "VVEL    " (list#  1) Parms "VVR     MR      ", Count=     144
             Vector  Mate for "VVEL    " :  Diagnostic #     30 "UVEL    " exists
 Computing Diagnostic #   197 "BRGfwFlx" (list#  2) Parms "SM      MR      ", Count=     144
 Computing Diagnostic #   198 "BRGhtFlx" (list#  2) Parms "SM      MR      ", Count=     144
 Computing Diagnostic #   199 "BRGmltRt" (list#  2) Parms "SM      MR      ", Count=     144
 Computing Diagnostic #   201 "BRG_TauX" (list#  2) Parms "UU      MR      ", Count=    1728
 Computing Diagnostic #   202 "BRG_TauY" (list#  2) Parms "VV      MR      ", Count=    1728
 Computing Diagnostic #   203 "BRGhFacC" (list#  2) Parms "SM      MR      ", Count=    1728
 cg2d: Sum(rhs),rhsMax =   4.18744067198773E-10  1.87203203421095E-02
 cg2d: Sum(rhs),rhsMax =   4.18790307987749E-10  1.87201621738608E-02
 cg2d: Sum(rhs),rhsMax =   4.18833759341375E-10  1.87200016630873E-02
 cg2d: Sum(rhs),rhsMax =   4.18874712693196E-10  1.87198394446670E-02
 cg2d: Sum(rhs),rhsMax =   4.18920273470569E-10  1.87196761239050E-02
 cg2d: Sum(rhs),rhsMax =   4.18960213743880E-10  1.87195122684487E-02
 cg2d: Sum(rhs),rhsMax =   4.19007856189424E-10  1.87193484115473E-02
 cg2d: Sum(rhs),rhsMax =   4.19048074018491E-10  1.87191850418102E-02
 cg2d: Sum(rhs),rhsMax =   4.19089582481824E-10  1.87190226075628E-02
 cg2d: Sum(rhs),rhsMax =   4.19132534235089E-10  1.87188615006508E-02
 cg2d: Sum(rhs),rhsMax =   4.19166173992735E-10  1.87187019671051E-02
 cg2d: Sum(rhs),rhsMax =   4.19207044077829E-10  1.87185443105505E-02
 cg2d: Sum(rhs),rhsMax =   4.19254811423464E-10  1.87183887861965E-02
 cg2d: Sum(rhs),rhsMax =   4.19289991615557E-10  1.87182355951115E-02
 cg2d: Sum(rhs),rhsMax =   4.19333304191305E-10  1.87180848900243E-02
 cg2d: Sum(rhs),rhsMax =   4.19376408600236E-10  1.87179367680012E-02
 cg2d: Sum(rhs),rhsMax =   4.19418569319596E-10  1.87177912753418E-02
 cg2d: Sum(rhs),rhsMax =   4.19463797030062E-10  1.87176484058232E-02
 cg2d: Sum(rhs),rhsMax =   4.19510079452401E-10  1.87175081036113E-02
 cg2d: Sum(rhs),rhsMax =   4.19552920183364E-10  1.87173702589528E-02
 cg2d: Sum(rhs),rhsMax =   4.19600895695815E-10  1.87172347134052E-02
 cg2d: Sum(rhs),rhsMax =   4.19638976345560E-10  1.87171012617180E-02
 cg2d: Sum(rhs),rhsMax =   4.19693044206859E-10  1.87169696510634E-02
 cg2d: Sum(rhs),rhsMax =   4.19737786194752E-10  1.87168395864189E-02
 cg2d: Sum(rhs),rhsMax =   4.19782666960522E-10  1.87167107278997E-02
 cg2d: Sum(rhs),rhsMax =   4.19818679819883E-10  1.87165826984894E-02
 cg2d: Sum(rhs),rhsMax =   4.19860091138702E-10  1.87164550809669E-02
 cg2d: Sum(rhs),rhsMax =   4.19900905712645E-10  1.87163274524374E-02
 cg2d: Sum(rhs),rhsMax =   4.19942206009161E-10  1.87161993493639E-02
 cg2d: Sum(rhs),rhsMax =   4.19987974953351E-10  1.87160702641697E-02
 cg2d: Sum(rhs),rhsMax =   4.20039669712935E-10  1.87159396645606E-02
 cg2d: Sum(rhs),rhsMax =   4.20083259844439E-10  1.87158069994766E-02
 cg2d: Sum(rhs),rhsMax =   4.20121312738608E-10  1.87156716997754E-02
 cg2d: Sum(rhs),rhsMax =   4.20179627202977E-10  1.87155331797718E-02
 cg2d: Sum(rhs),rhsMax =   4.20214099627891E-10  1.87153908465740E-02
 cg2d: Sum(rhs),rhsMax =   4.20259840816506E-10  1.87152441021215E-02
 cg2d: Sum(rhs),rhsMax =   4.20301557446656E-10  1.87150923424303E-02
 cg2d: Sum(rhs),rhsMax =   4.20350976249040E-10  1.87149349672461E-02
 cg2d: Sum(rhs),rhsMax =   4.20396578659776E-10  1.87147713795925E-02
 cg2d: Sum(rhs),rhsMax =   4.20438697745773E-10  1.87146009938696E-02
 cg2d: Sum(rhs),rhsMax =   4.20486964691769E-10  1.87144232334039E-02
 cg2d: Sum(rhs),rhsMax =   4.20534079781376E-10  1.87142375397100E-02
 cg2d: Sum(rhs),rhsMax =   4.20571591441821E-10  1.87140433713145E-02
 cg2d: Sum(rhs),rhsMax =   4.20615584029171E-10  1.87138402119767E-02
 cg2d: Sum(rhs),rhsMax =   4.20666806943970E-10  1.87136275656159E-02
 cg2d: Sum(rhs),rhsMax =   4.20709550530418E-10  1.87134049689654E-02
 cg2d: Sum(rhs),rhsMax =   4.20764617592440E-10  1.87131719879272E-02
 cg2d: Sum(rhs),rhsMax =   4.20810511436720E-10  1.87129282205053E-02
 cg2d: Sum(rhs),rhsMax =   4.20864731953685E-10  1.87126733031917E-02
 cg2d: Sum(rhs),rhsMax =   4.20917176113811E-10  1.87124069068971E-02
 cg2d: Sum(rhs),rhsMax =   4.20968357395246E-10  1.87121287449191E-02
 cg2d: Sum(rhs),rhsMax =   4.21018095386749E-10  1.87118385685454E-02
 cg2d: Sum(rhs),rhsMax =   4.21062101851888E-10  1.87115361750795E-02
 cg2d: Sum(rhs),rhsMax =   4.21104928705063E-10  1.87112214041521E-02
 cg2d: Sum(rhs),rhsMax =   4.21138610096072E-10  1.87108941429359E-02
 cg2d: Sum(rhs),rhsMax =   4.21192233868162E-10  1.87105545597254E-02
 cg2d: Sum(rhs),rhsMax =   4.21236059922059E-10  1.87102024844527E-02
 cg2d: Sum(rhs),rhsMax =   4.21287102425616E-10  1.87098382828391E-02
 cg2d: Sum(rhs),rhsMax =   4.21336271427819E-10  1.87094620696097E-02
 cg2d: Sum(rhs),rhsMax =   4.21391976868080E-10  1.87090740432431E-02
 cg2d: Sum(rhs),rhsMax =   4.21429335872858E-10  1.87086744573154E-02
 cg2d: Sum(rhs),rhsMax =   4.21483931090094E-10  1.87082635972869E-02
 cg2d: Sum(rhs),rhsMax =   4.21540052863989E-10  1.87078417637418E-02
 cg2d: Sum(rhs),rhsMax =   4.21595341970615E-10  1.87074092475710E-02
 cg2d: Sum(rhs),rhsMax =   4.21634102631963E-10  1.87069664212295E-02
 cg2d: Sum(rhs),rhsMax =   4.21682730400441E-10  1.87065136853971E-02
 cg2d: Sum(rhs),rhsMax =   4.21726875643458E-10  1.87060514651087E-02
 cg2d: Sum(rhs),rhsMax =   4.21780374515457E-10  1.87055802057699E-02
 cg2d: Sum(rhs),rhsMax =   4.21833498687185E-10  1.87051003768612E-02
 cg2d: Sum(rhs),rhsMax =   4.21887427770606E-10  1.87046124598910E-02
 cg2d: Sum(rhs),rhsMax =   4.21946422246577E-10  1.87041169593038E-02
 cg2d: Sum(rhs),rhsMax =   4.21991649957043E-10  1.87036143925487E-02
 cg2d: Sum(rhs),rhsMax =   4.22059345805970E-10  1.87031052853752E-02
 cg2d: Sum(rhs),rhsMax =   4.22115800646772E-10  1.87025901647771E-02
 cg2d: Sum(rhs),rhsMax =   4.22162083069111E-10  1.87020695705214E-02
 cg2d: Sum(rhs),rhsMax =   4.22216761553074E-10  1.87015440594552E-02
 cg2d: Sum(rhs),rhsMax =   4.22264001542771E-10  1.87010141758765E-02
 cg2d: Sum(rhs),rhsMax =   4.22317431025832E-10  1.87004804635537E-02
 cg2d: Sum(rhs),rhsMax =   4.22379534126271E-10  1.86999434679087E-02
 cg2d: Sum(rhs),rhsMax =   4.22439805358721E-10  1.86994037299634E-02
 cg2d: Sum(rhs),rhsMax =   4.22497620222728E-10  1.86988617827476E-02
 cg2d: Sum(rhs),rhsMax =   4.22544638167821E-10  1.86983181518251E-02
 cg2d: Sum(rhs),rhsMax =   4.22609267025642E-10  1.86977733489089E-02
 cg2d: Sum(rhs),rhsMax =   4.22658824605904E-10  1.86972278778524E-02
 cg2d: Sum(rhs),rhsMax =   4.22715265568918E-10  1.86966822256053E-02
 cg2d: Sum(rhs),rhsMax =   4.22769555474822E-10  1.86961368642417E-02
 cg2d: Sum(rhs),rhsMax =   4.22819931844565E-10  1.86955922509420E-02
 cg2d: Sum(rhs),rhsMax =   4.22867504901170E-10  1.86950488228056E-02
 cg2d: Sum(rhs),rhsMax =   4.22919990694659E-10  1.86945069991781E-02
 cg2d: Sum(rhs),rhsMax =   4.22972615266026E-10  1.86939671771465E-02
 cg2d: Sum(rhs),rhsMax =   4.23019633211119E-10  1.86934297366095E-02
 cg2d: Sum(rhs),rhsMax =   4.23065638077702E-10  1.86928950327651E-02
 cg2d: Sum(rhs),rhsMax =   4.23116125469747E-10  1.86923633973368E-02
 cg2d: Sum(rhs),rhsMax =   4.23172816232942E-10  1.86918351442592E-02
 cg2d: Sum(rhs),rhsMax =   4.23215282263634E-10  1.86913105577483E-02
 cg2d: Sum(rhs),rhsMax =   4.23269877480870E-10  1.86907899044046E-02
 cg2d: Sum(rhs),rhsMax =   4.23316479092328E-10  1.86902734232801E-02
 cg2d: Sum(rhs),rhsMax =   4.23363746837602E-10  1.86897613326691E-02
 cg2d: Sum(rhs),rhsMax =   4.23420409845221E-10  1.86892538224813E-02
 cg2d: Sum(rhs),rhsMax =   4.23481555378302E-10  1.86887510682418E-02
 cg2d: Sum(rhs),rhsMax =   4.23519663783622E-10  1.86882532148350E-02
 cg2d: Sum(rhs),rhsMax =   4.23576757002664E-10  1.86877603879111E-02
 cg2d: Sum(rhs),rhsMax =   4.23627147250194E-10  1.86872726936978E-02
 cg2d: Sum(rhs),rhsMax =   4.23676621563729E-10  1.86867902165495E-02
 cg2d: Sum(rhs),rhsMax =   4.23735241339429E-10  1.86863130230837E-02
 cg2d: Sum(rhs),rhsMax =   4.23789711656575E-10  1.86858411570004E-02
 cg2d: Sum(rhs),rhsMax =   4.23844445651689E-10  1.86853746508326E-02
 cg2d: Sum(rhs),rhsMax =   4.23891893808204E-10  1.86849135139329E-02
 cg2d: Sum(rhs),rhsMax =   4.23939924831807E-10  1.86844577447517E-02
 cg2d: Sum(rhs),rhsMax =   4.23983015362950E-10  1.86840073252332E-02
 cg2d: Sum(rhs),rhsMax =   4.24030727197433E-10  1.86835622251588E-02
 cg2d: Sum(rhs),rhsMax =   4.24081672556476E-10  1.86831224026380E-02
 cg2d: Sum(rhs),rhsMax =   4.24126900266941E-10  1.86826878025311E-02
 cg2d: Sum(rhs),rhsMax =   4.24177637459167E-10  1.86822583641186E-02
 cg2d: Sum(rhs),rhsMax =   4.24227847295455E-10  1.86818340145797E-02
 cg2d: Sum(rhs),rhsMax =   4.24273532972919E-10  1.86814146769703E-02
 cg2d: Sum(rhs),rhsMax =   4.24320412140133E-10  1.86810002664838E-02
 cg2d: Sum(rhs),rhsMax =   4.24359186679268E-10  1.86805906949496E-02
 cg2d: Sum(rhs),rhsMax =   4.24413476585173E-10  1.86801858703977E-02
 cg2d: Sum(rhs),rhsMax =   4.24465226855908E-10  1.86797856982626E-02
 cg2d: Sum(rhs),rhsMax =   4.24510898655583E-10  1.86793900810707E-02
 cg2d: Sum(rhs),rhsMax =   4.24546744981491E-10  1.86789988613826E-02
 cg2d: Sum(rhs),rhsMax =   4.24599563841888E-10  1.86786119741427E-02
 cg2d: Sum(rhs),rhsMax =   4.24650481445354E-10  1.86782293481153E-02
 cg2d: Sum(rhs),rhsMax =   4.24692725431441E-10  1.86778507920988E-02
 cg2d: Sum(rhs),rhsMax =   4.24739840521049E-10  1.86774762079839E-02
 cg2d: Sum(rhs),rhsMax =   4.24783763719461E-10  1.86771055442145E-02
 cg2d: Sum(rhs),rhsMax =   4.24843119017915E-10  1.86767387340626E-02
 cg2d: Sum(rhs),rhsMax =   4.24886348326936E-10  1.86763757036694E-02
 cg2d: Sum(rhs),rhsMax =   4.24931562159614E-10  1.86760163832067E-02
 cg2d: Sum(rhs),rhsMax =   4.24965840295499E-10  1.86756607022520E-02
 cg2d: Sum(rhs),rhsMax =   4.25004115234273E-10  1.86753086113046E-02
 cg2d: Sum(rhs),rhsMax =   4.25050050711917E-10  1.86749600665837E-02
 cg2d: Sum(rhs),rhsMax =   4.25090865285860E-10  1.86746150254206E-02
 cg2d: Sum(rhs),rhsMax =   4.25145210702915E-10  1.86742734452838E-02
 cg2d: Sum(rhs),rhsMax =   4.25192117625706E-10  1.86739352935848E-02
 cg2d: Sum(rhs),rhsMax =   4.25251334146282E-10  1.86736005413774E-02
 cg2d: Sum(rhs),rhsMax =   4.25294854888847E-10  1.86732691623650E-02
 cg2d: Sum(rhs),rhsMax =   4.25339125031954E-10  1.86729411334373E-02
 cg2d: Sum(rhs),rhsMax =   4.25393345548919E-10  1.86726164373683E-02
 cg2d: Sum(rhs),rhsMax =   4.25433049899837E-10  1.86722950584545E-02
 cg2d: Sum(rhs),rhsMax =   4.25491086808449E-10  1.86719769839298E-02
 cg2d: Sum(rhs),rhsMax =   4.25555105043607E-10  1.86716622046960E-02
 cg2d: Sum(rhs),rhsMax =   4.25595017561342E-10  1.86713507131401E-02
 Computing Diagnostic #    26 "THETA   " (list#  1) Parms "SMR     MR      ", Count=     144
 Computing Diagnostic #    27 "SALT    " (list#  1) Parms "SMR     MR      ", Count=     144
 Computing Diagnostic #    30 "UVEL    " (list#  1) Parms "UUR     MR      ", Count=     144
             Vector  Mate for "UVEL    " :  Diagnostic #     31 "VVEL    " exists
 Computing Diagnostic #    32 "WVEL    " (list#  1) Parms "WM      LR      ", Count=     144
 Computing Diagnostic #    31 "VVEL    " (list#  1) Parms "VVR     MR      ", Count=     144
             Vector  Mate for "VVEL    " :  Diagnostic #     30 "UVEL    " exists
 Computing Diagnostic #   197 "BRGfwFlx" (list#  2) Parms "SM      MR      ", Count=     144
 Computing Diagnostic #   198 "BRGhtFlx" (list#  2) Parms "SM      MR      ", Count=     144
 Computing Diagnostic #   199 "BRGmltRt" (list#  2) Parms "SM      MR      ", Count=     144
 Computing Diagnostic #   201 "BRG_TauX" (list#  2) Parms "UU      MR      ", Count=    1728
 Computing Diagnostic #   202 "BRG_TauY" (list#  2) Parms "VV      MR      ", Count=    1728
 Computing Diagnostic #   203 "BRGhFacC" (list#  2) Parms "SM      MR      ", Count=    1728
 cg2d: Sum(rhs),rhsMax =   4.25640911405623E-10  1.86710425042828E-02
 cg2d: Sum(rhs),rhsMax =   4.25692023298119E-10  1.86707375762653E-02
 cg2d: Sum(rhs),rhsMax =   4.25744536847183E-10  1.86704359252703E-02
 cg2d: Sum(rhs),rhsMax =   4.25791096825279E-10  1.86701375495027E-02
 cg2d: Sum(rhs),rhsMax =   4.25833840411727E-10  1.86698424478627E-02
 cg2d: Sum(rhs),rhsMax =   4.25880788967881E-10  1.86695506175385E-02
 cg2d: Sum(rhs),rhsMax =   4.25925988922771E-10  1.86692620421540E-02
 cg2d: Sum(rhs),rhsMax =   4.25966970030167E-10  1.86689766587211E-02
 cg2d: Sum(rhs),rhsMax =   4.26010948739730E-10  1.86686944325145E-02
 cg2d: Sum(rhs),rhsMax =   4.26060783875748E-10  1.86684152862570E-02
 cg2d: Sum(rhs),rhsMax =   4.26097698791317E-10  1.86681391439655E-02
 cg2d: Sum(rhs),rhsMax =   4.26137472531174E-10  1.86678659385463E-02
 cg2d: Sum(rhs),rhsMax =   4.26177884649270E-10  1.86675955990911E-02
 cg2d: Sum(rhs),rhsMax =   4.26223834004702E-10  1.86673280502960E-02
 cg2d: Sum(rhs),rhsMax =   4.26272836473451E-10  1.86670632177891E-02
 cg2d: Sum(rhs),rhsMax =   4.26324392455157E-10  1.86668010257800E-02
 cg2d: Sum(rhs),rhsMax =   4.26376170481468E-10  1.86665414016505E-02
 cg2d: Sum(rhs),rhsMax =   4.26405286080289E-10  1.86662841013656E-02
 cg2d: Sum(rhs),rhsMax =   4.26449223156489E-10  1.86660292606456E-02
 cg2d: Sum(rhs),rhsMax =   4.26496421512823E-10  1.86657764588094E-02
 cg2d: Sum(rhs),rhsMax =   4.26538651621122E-10  1.86655256291489E-02
 cg2d: Sum(rhs),rhsMax =   4.26578897205765E-10  1.86652766506480E-02
 cg2d: Sum(rhs),rhsMax =   4.26619253812710E-10  1.86650293789018E-02
 cg2d: Sum(rhs),rhsMax =   4.26677887466198E-10  1.86647836705181E-02
 cg2d: Sum(rhs),rhsMax =   4.26721782909034E-10  1.86645393851851E-02
 cg2d: Sum(rhs),rhsMax =   4.26767662875527E-10  1.86642963891204E-02
 cg2d: Sum(rhs),rhsMax =   4.26818594356781E-10  1.86640545519692E-02
 cg2d: Sum(rhs),rhsMax =   4.26859617097541E-10  1.86638137432604E-02
 cg2d: Sum(rhs),rhsMax =   4.26909452233559E-10  1.86635738390776E-02
 cg2d: Sum(rhs),rhsMax =   4.26953181142942E-10  1.86633347201373E-02
 cg2d: Sum(rhs),rhsMax =   4.27005084069343E-10  1.86630962668067E-02
 cg2d: Sum(rhs),rhsMax =   4.27057222918137E-10  1.86628583672327E-02
 cg2d: Sum(rhs),rhsMax =   4.27096996657994E-10  1.86626209147651E-02
 cg2d: Sum(rhs),rhsMax =   4.27150523285569E-10  1.86623838021058E-02
 cg2d: Sum(rhs),rhsMax =   4.27193252994229E-10  1.86621469317299E-02
 cg2d: Sum(rhs),rhsMax =   4.27244628564694E-10  1.86619102060443E-02
 cg2d: Sum(rhs),rhsMax =   4.27288607274257E-10  1.86616735332892E-02
 cg2d: Sum(rhs),rhsMax =   4.27335167252352E-10  1.86614368269648E-02
 cg2d: Sum(rhs),rhsMax =   4.27371055211623E-10  1.86612000005611E-02
 cg2d: Sum(rhs),rhsMax =   4.27427218618881E-10  1.86609629731560E-02
 cg2d: Sum(rhs),rhsMax =   4.27460691843073E-10  1.86607256713415E-02
 cg2d: Sum(rhs),rhsMax =   4.27488752730021E-10  1.86604880251599E-02
 cg2d: Sum(rhs),rhsMax =   4.27526666846312E-10  1.86602499664626E-02
 cg2d: Sum(rhs),rhsMax =   4.27575710948425E-10  1.86600114230148E-02
 cg2d: Sum(rhs),rhsMax =   4.27615692855099E-10  1.86597723303799E-02
 cg2d: Sum(rhs),rhsMax =   4.27657936841186E-10  1.86595326198361E-02
 cg2d: Sum(rhs),rhsMax =   4.27702429028898E-10  1.86592922293074E-02
 cg2d: Sum(rhs),rhsMax =   4.27743590547536E-10  1.86590510943385E-02
 cg2d: Sum(rhs),rhsMax =   4.27799323743372E-10  1.86588091525385E-02
 cg2d: Sum(rhs),rhsMax =   4.27841415073793E-10  1.86585663435284E-02
 cg2d: Sum(rhs),rhsMax =   4.27873098063358E-10  1.86583226048759E-02
 cg2d: Sum(rhs),rhsMax =   4.27918422918339E-10  1.86580778739431E-02
 cg2d: Sum(rhs),rhsMax =   4.27967744576208E-10  1.86578320883743E-02
 cg2d: Sum(rhs),rhsMax =   4.28012514319676E-10  1.86575851851760E-02
 cg2d: Sum(rhs),rhsMax =   4.28068913649327E-10  1.86573371007418E-02
 cg2d: Sum(rhs),rhsMax =   4.28119387163584E-10  1.86570877693178E-02
 cg2d: Sum(rhs),rhsMax =   4.28171983979375E-10  1.86568371204125E-02
 cg2d: Sum(rhs),rhsMax =   4.28221097470427E-10  1.86565850900170E-02
 cg2d: Sum(rhs),rhsMax =   4.28259608331594E-10  1.86563316632404E-02
 cg2d: Sum(rhs),rhsMax =   4.28302879273978E-10  1.86560768922554E-02
 cg2d: Sum(rhs),rhsMax =   4.28345720004941E-10  1.86558206847757E-02
 cg2d: Sum(rhs),rhsMax =   4.28391933038341E-10  1.86555629476288E-02
 cg2d: Sum(rhs),rhsMax =   4.28431609633684E-10  1.86553035822994E-02
 cg2d: Sum(rhs),rhsMax =   4.28457977430519E-10  1.86550424897835E-02
 cg2d: Sum(rhs),rhsMax =   4.28498625471008E-10  1.86547795701522E-02
 cg2d: Sum(rhs),rhsMax =   4.28544172370593E-10  1.86545147173750E-02
 cg2d: Sum(rhs),rhsMax =   4.28586860445890E-10  1.86542478249920E-02
 cg2d: Sum(rhs),rhsMax =   4.28624039039427E-10  1.86539787871077E-02
 cg2d: Sum(rhs),rhsMax =   4.28678828545692E-10  1.86537074931775E-02
 cg2d: Sum(rhs),rhsMax =   4.28729302059949E-10  1.86534338373498E-02
 cg2d: Sum(rhs),rhsMax =   4.28762983450959E-10  1.86531577086990E-02
 cg2d: Sum(rhs),rhsMax =   4.28812887975916E-10  1.86528789998557E-02
 cg2d: Sum(rhs),rhsMax =   4.28872437563399E-10  1.86525976040673E-02
 cg2d: Sum(rhs),rhsMax =   4.28910892913414E-10  1.86523134159993E-02
 cg2d: Sum(rhs),rhsMax =   4.28938121133093E-10  1.86520263311256E-02
 cg2d: Sum(rhs),rhsMax =   4.28994589851683E-10  1.86517362528035E-02
 cg2d: Sum(rhs),rhsMax =   4.29039373472939E-10  1.86514430836130E-02
 cg2d: Sum(rhs),rhsMax =   4.29086655096000E-10  1.86511467331578E-02
 cg2d: Sum(rhs),rhsMax =   4.29126317813555E-10  1.86508471157671E-02
 cg2d: Sum(rhs),rhsMax =   4.29166396864744E-10  1.86505441506377E-02
 cg2d: Sum(rhs),rhsMax =   4.29217356101574E-10  1.86502377858659E-02
 cg2d: Sum(rhs),rhsMax =   4.29262181356194E-10  1.86499279001264E-02
 cg2d: Sum(rhs),rhsMax =   4.29311836080970E-10  1.86496144786105E-02
 cg2d: Sum(rhs),rhsMax =   4.29362143061773E-10  1.86492974813958E-02
 cg2d: Sum(rhs),rhsMax =   4.29411520230794E-10  1.86489768596404E-02
 cg2d: Sum(rhs),rhsMax =   4.29457483464013E-10  1.86486525806722E-02
 cg2d: Sum(rhs),rhsMax =   4.29497243326082E-10  1.86483246341707E-02
 cg2d: Sum(rhs),rhsMax =   4.29535518264856E-10  1.86479930140545E-02
 cg2d: Sum(rhs),rhsMax =   4.29576624272343E-10  1.86476577320443E-02
 cg2d: Sum(rhs),rhsMax =   4.29625654496668E-10  1.86473188110369E-02
 cg2d: Sum(rhs),rhsMax =   4.29684163250066E-10  1.86469762859567E-02
 cg2d: Sum(rhs),rhsMax =   4.29737093132765E-10  1.86466302099111E-02
 cg2d: Sum(rhs),rhsMax =   4.29775451338266E-10  1.86462806449541E-02
 cg2d: Sum(rhs),rhsMax =   4.29829366543899E-10  1.86459276749513E-02
 cg2d: Sum(rhs),rhsMax =   4.29882601737930E-10  1.86455713985507E-02
 cg2d: Sum(rhs),rhsMax =   4.29934685075573E-10  1.86452119231528E-02
 cg2d: Sum(rhs),rhsMax =   4.29978969096467E-10  1.86448494083676E-02
 cg2d: Sum(rhs),rhsMax =   4.30029525877451E-10  1.86444839564800E-02
 cg2d: Sum(rhs),rhsMax =   4.30075614010761E-10  1.86441157263043E-02
 cg2d: Sum(rhs),rhsMax =   4.30116151028948E-10  1.86437449082393E-02
 cg2d: Sum(rhs),rhsMax =   4.30156604780407E-10  1.86433717007622E-02
 cg2d: Sum(rhs),rhsMax =   4.30204136203649E-10  1.86429963104530E-02
 cg2d: Sum(rhs),rhsMax =   4.30255692185355E-10  1.86426189602543E-02
 cg2d: Sum(rhs),rhsMax =   4.30300184373067E-10  1.86422398664475E-02
 cg2d: Sum(rhs),rhsMax =   4.30347812940823E-10  1.86418592425407E-02
 cg2d: Sum(rhs),rhsMax =   4.30386559724383E-10  1.86414773612059E-02
 cg2d: Sum(rhs),rhsMax =   4.30433869103020E-10  1.86410945030184E-02
 cg2d: Sum(rhs),rhsMax =   4.30483995672581E-10  1.86407109677155E-02
 cg2d: Sum(rhs),rhsMax =   4.30540741946928E-10  1.86403270639549E-02
 cg2d: Sum(rhs),rhsMax =   4.30584901067732E-10  1.86399431138200E-02
 cg2d: Sum(rhs),rhsMax =   4.30623689484655E-10  1.86395594487627E-02
 cg2d: Sum(rhs),rhsMax =   4.30669319650967E-10  1.86391764102364E-02
 cg2d: Sum(rhs),rhsMax =   4.30716823318633E-10  1.86387943435570E-02
 cg2d: Sum(rhs),rhsMax =   4.30775276560880E-10  1.86384136234202E-02
 cg2d: Sum(rhs),rhsMax =   4.30820282226740E-10  1.86380346079351E-02
 cg2d: Sum(rhs),rhsMax =   4.30871505141539E-10  1.86376576525398E-02
 cg2d: Sum(rhs),rhsMax =   4.30924768091145E-10  1.86372831458907E-02
 cg2d: Sum(rhs),rhsMax =   4.30973645659805E-10  1.86369114690495E-02
 cg2d: Sum(rhs),rhsMax =   4.31022564861827E-10  1.86365429881952E-02
 cg2d: Sum(rhs),rhsMax =   4.31064309247553E-10  1.86361780811246E-02
 cg2d: Sum(rhs),rhsMax =   4.31108163057026E-10  1.86358171841194E-02
 cg2d: Sum(rhs),rhsMax =   4.31164021152952E-10  1.86354606111958E-02
 cg2d: Sum(rhs),rhsMax =   4.31220850694025E-10  1.86351088109901E-02
 cg2d: Sum(rhs),rhsMax =   4.31264773892437E-10  1.86347621741264E-02
 cg2d: Sum(rhs),rhsMax =   4.31314692295182E-10  1.86344209158186E-02
 cg2d: Sum(rhs),rhsMax =   4.31366095621222E-10  1.86340855038604E-02
 cg2d: Sum(rhs),rhsMax =   4.31407368162162E-10  1.86337563167813E-02
 cg2d: Sum(rhs),rhsMax =   4.31454205696014E-10  1.86334336456735E-02
 cg2d: Sum(rhs),rhsMax =   4.31501417930136E-10  1.86331177725122E-02
 cg2d: Sum(rhs),rhsMax =   4.31560273628229E-10  1.86328089849434E-02
 cg2d: Sum(rhs),rhsMax =   4.31602045769530E-10  1.86325075522296E-02
 cg2d: Sum(rhs),rhsMax =   4.31646621223969E-10  1.86322137208917E-02
 cg2d: Sum(rhs),rhsMax =   4.31697205760528E-10  1.86319277184102E-02
 cg2d: Sum(rhs),rhsMax =   4.31748164997359E-10  1.86316497466009E-02
 cg2d: Sum(rhs),rhsMax =   4.31790714294777E-10  1.86313799840126E-02
 cg2d: Sum(rhs),rhsMax =   4.31838592662714E-10  1.86311185825000E-02
 cg2d: Sum(rhs),rhsMax =   4.31891966634623E-10  1.86308656682920E-02
 cg2d: Sum(rhs),rhsMax =   4.31939539691228E-10  1.86306213405665E-02
 cg2d: Sum(rhs),rhsMax =   4.31986196813838E-10  1.86303856672923E-02
 cg2d: Sum(rhs),rhsMax =   4.32039501396808E-10  1.86301586876874E-02
 cg2d: Sum(rhs),rhsMax =   4.32086116886055E-10  1.86299404096440E-02
 cg2d: Sum(rhs),rhsMax =   4.32134883432411E-10  1.86297308115428E-02
 cg2d: Sum(rhs),rhsMax =   4.32184191212492E-10  1.86295298391289E-02
 cg2d: Sum(rhs),rhsMax =   4.32226060498309E-10  1.86293374079981E-02
 Computing Diagnostic #    26 "THETA   " (list#  1) Parms "SMR     MR      ", Count=     144
 Computing Diagnostic #    27 "SALT    " (list#  1) Parms "SMR     MR      ", Count=     144
 Computing Diagnostic #    30 "UVEL    " (list#  1) Parms "UUR     MR      ", Count=     144
             Vector  Mate for "UVEL    " :  Diagnostic #     31 "VVEL    " exists
 Computing Diagnostic #    32 "WVEL    " (list#  1) Parms "WM      LR      ", Count=     144
 Computing Diagnostic #    31 "VVEL    " (list#  1) Parms "VVR     MR      ", Count=     144
             Vector  Mate for "VVEL    " :  Diagnostic #     30 "UVEL    " exists
 Computing Diagnostic #   197 "BRGfwFlx" (list#  2) Parms "SM      MR      ", Count=     144
 Computing Diagnostic #   198 "BRGhtFlx" (list#  2) Parms "SM      MR      ", Count=     144
 Computing Diagnostic #   199 "BRGmltRt" (list#  2) Parms "SM      MR      ", Count=     144
 Computing Diagnostic #   201 "BRG_TauX" (list#  2) Parms "UU      MR      ", Count=    1728
 Computing Diagnostic #   202 "BRG_TauY" (list#  2) Parms "VV      MR      ", Count=    1728
 Computing Diagnostic #   203 "BRGhFacC" (list#  2) Parms "SM      MR      ", Count=    1728
 cg2d: Sum(rhs),rhsMax =   4.32277214024168E-10  1.86291534040214E-02
 cg2d: Sum(rhs),rhsMax =   4.32320138021858E-10  1.86289776815748E-02
 cg2d: Sum(rhs),rhsMax =   4.32371208280991E-10  1.86288100658634E-02
 cg2d: Sum(rhs),rhsMax =   4.32396993210737E-10  1.86286503488826E-02
 cg2d: Sum(rhs),rhsMax =   4.32454877463684E-10  1.86284982968303E-02
 cg2d: Sum(rhs),rhsMax =   4.32500785185752E-10  1.86283536468303E-02
 cg2d: Sum(rhs),rhsMax =   4.32541974459966E-10  1.86282161085958E-02
 cg2d: Sum(rhs),rhsMax =   4.32593919019730E-10  1.86280853661663E-02
 cg2d: Sum(rhs),rhsMax =   4.32630167801484E-10  1.86279610727138E-02
 cg2d: Sum(rhs),rhsMax =   4.32676741657367E-10  1.86278428635098E-02
 cg2d: Sum(rhs),rhsMax =   4.32725619226026E-10  1.86277303458390E-02
 cg2d: Sum(rhs),rhsMax =   4.32765628888276E-10  1.86276231052998E-02
 cg2d: Sum(rhs),rhsMax =   4.32809524331113E-10  1.86275207089764E-02
 cg2d: Sum(rhs),rhsMax =   4.32847452325191E-10  1.86274227033415E-02
 cg2d: Sum(rhs),rhsMax =   4.32889835089156E-10  1.86273286184001E-02
 cg2d: Sum(rhs),rhsMax =   4.32933994209961E-10  1.86272379677767E-02
 cg2d: Sum(rhs),rhsMax =   4.32970007069322E-10  1.86271502532196E-02
 cg2d: Sum(rhs),rhsMax =   4.33005076239112E-10  1.86270683109576E-02
 cg2d: Sum(rhs),rhsMax =   4.33042254832650E-10  1.86269909148954E-02
 cg2d: Sum(rhs),rhsMax =   4.33079086481492E-10  1.86269151005031E-02
 cg2d: Sum(rhs),rhsMax =   4.33132418820037E-10  1.86268403106801E-02
 cg2d: Sum(rhs),rhsMax =   4.33159993984411E-10  1.86267659781472E-02
 cg2d: Sum(rhs),rhsMax =   4.33198074634156E-10  1.86266915222789E-02
 cg2d: Sum(rhs),rhsMax =   4.33239166763855E-10  1.86266163681904E-02
 cg2d: Sum(rhs),rhsMax =   4.33292776658156E-10  1.86265399433319E-02
 cg2d: Sum(rhs),rhsMax =   4.33334521043882E-10  1.86264616905132E-02
 cg2d: Sum(rhs),rhsMax =   4.33381525111187E-10  1.86263810439622E-02
 cg2d: Sum(rhs),rhsMax =   4.33431290858266E-10  1.86262974486781E-02
 cg2d: Sum(rhs),rhsMax =   4.33476379790854E-10  1.86262103707677E-02
 cg2d: Sum(rhs),rhsMax =   4.33523605902764E-10  1.86261192776152E-02
 cg2d: Sum(rhs),rhsMax =   4.33583752235123E-10  1.86260236626089E-02
 cg2d: Sum(rhs),rhsMax =   4.33630437113308E-10  1.86259230385100E-02
 cg2d: Sum(rhs),rhsMax =   4.33676664024496E-10  1.86258169399724E-02
 cg2d: Sum(rhs),rhsMax =   4.33714425485121E-10  1.86257049233670E-02
 cg2d: Sum(rhs),rhsMax =   4.33774655084207E-10  1.86255865734482E-02
 cg2d: Sum(rhs),rhsMax =   4.33807809119280E-10  1.86254614963918E-02
 cg2d: Sum(rhs),rhsMax =   4.33858171611234E-10  1.86253293338581E-02
 cg2d: Sum(rhs),rhsMax =   4.33896168994252E-10  1.86251897520991E-02
 cg2d: Sum(rhs),rhsMax =   4.33953373235596E-10  1.86250424506943E-02
 cg2d: Sum(rhs),rhsMax =   4.34013783245923E-10  1.86248871636540E-02
 cg2d: Sum(rhs),rhsMax =   4.34055083542439E-10  1.86247236574021E-02
 cg2d: Sum(rhs),rhsMax =   4.34105668078999E-10  1.86245517343173E-02
 cg2d: Sum(rhs),rhsMax =   4.34158584083910E-10  1.86243712299904E-02
 cg2d: Sum(rhs),rhsMax =   4.34202770960290E-10  1.86241820234867E-02
 cg2d: Sum(rhs),rhsMax =   4.34261820947413E-10  1.86239840257135E-02
 cg2d: Sum(rhs),rhsMax =   4.34308644603476E-10  1.86237771855199E-02
 cg2d: Sum(rhs),rhsMax =   4.34357855239043E-10  1.86235614913918E-02
 cg2d: Sum(rhs),rhsMax =   4.34395228121609E-10  1.86233369686498E-02
 cg2d: Sum(rhs),rhsMax =   4.34432018137088E-10  1.86231024876254E-02
 cg2d: Sum(rhs),rhsMax =   4.34476760124980E-10  1.86228593569823E-02
 cg2d: Sum(rhs),rhsMax =   4.34513564018246E-10  1.86226077307367E-02
 cg2d: Sum(rhs),rhsMax =   4.34566924112367E-10  1.86223477951291E-02
 cg2d: Sum(rhs),rhsMax =   4.34619076838949E-10  1.86220797725449E-02
 cg2d: Sum(rhs),rhsMax =   4.34673741445124E-10  1.86218039226353E-02
 cg2d: Sum(rhs),rhsMax =   4.34717026265297E-10  1.86215205354184E-02
 cg2d: Sum(rhs),rhsMax =   4.34760311085469E-10  1.86212299344544E-02
 cg2d: Sum(rhs),rhsMax =   4.34806426974355E-10  1.86209324720225E-02
 cg2d: Sum(rhs),rhsMax =   4.34849933839132E-10  1.86206285299490E-02
 cg2d: Sum(rhs),rhsMax =   4.34913161040384E-10  1.86203185433654E-02
 cg2d: Sum(rhs),rhsMax =   4.34954877670535E-10  1.86200029046158E-02
 cg2d: Sum(rhs),rhsMax =   4.35004587906462E-10  1.86196820574308E-02
 cg2d: Sum(rhs),rhsMax =   4.35042640800631E-10  1.86193565145351E-02
 cg2d: Sum(rhs),rhsMax =   4.35087618710917E-10  1.86190267821015E-02
 cg2d: Sum(rhs),rhsMax =   4.35133706844226E-10  1.86186933705621E-02
 cg2d: Sum(rhs),rhsMax =   4.35192645809046E-10  1.86183568032875E-02
 cg2d: Sum(rhs),rhsMax =   4.35248864727455E-10  1.86180176245912E-02
 cg2d: Sum(rhs),rhsMax =   4.35305971824285E-10  1.86176763830741E-02
 cg2d: Sum(rhs),rhsMax =   4.35344871263510E-10  1.86173336591890E-02
 cg2d: Sum(rhs),rhsMax =   4.35394179043591E-10  1.86169900163357E-02
 cg2d: Sum(rhs),rhsMax =   4.35444222346426E-10  1.86166460221526E-02
 cg2d: Sum(rhs),rhsMax =   4.35495917106010E-10  1.86163022457121E-02
 cg2d: Sum(rhs),rhsMax =   4.35540700727266E-10  1.86159592573726E-02
 cg2d: Sum(rhs),rhsMax =   4.35582681035385E-10  1.86156176232251E-02
 cg2d: Sum(rhs),rhsMax =   4.35636693385533E-10  1.86152779019983E-02
 cg2d: Sum(rhs),rhsMax =   4.35686139943492E-10  1.86149406394072E-02
 cg2d: Sum(rhs),rhsMax =   4.35740651894001E-10  1.86146063758539E-02
 cg2d: Sum(rhs),rhsMax =   4.35790972752592E-10  1.86142756471567E-02
 cg2d: Sum(rhs),rhsMax =   4.35836658430055E-10  1.86139489866263E-02
 cg2d: Sum(rhs),rhsMax =   4.35887853589279E-10  1.86136268914184E-02
 cg2d: Sum(rhs),rhsMax =   4.35934524589676E-10  1.86133098394235E-02
 cg2d: Sum(rhs),rhsMax =   4.35993449676708E-10  1.86129982858798E-02
 cg2d: Sum(rhs),rhsMax =   4.36029101713586E-10  1.86126926646181E-02
 cg2d: Sum(rhs),rhsMax =   4.36062796982384E-10  1.86123933827221E-02
 cg2d: Sum(rhs),rhsMax =   4.36115490942690E-10  1.86121056846505E-02
 cg2d: Sum(rhs),rhsMax =   4.36162453376632E-10  1.86118250101331E-02
 cg2d: Sum(rhs),rhsMax =   4.36211469723169E-10  1.86115516175549E-02
 cg2d: Sum(rhs),rhsMax =   4.36266120451556E-10  1.86112857616135E-02
 cg2d: Sum(rhs),rhsMax =   4.36310862439448E-10  1.86110276477475E-02
 cg2d: Sum(rhs),rhsMax =   4.36351635380028E-10  1.86107774587636E-02
 cg2d: Sum(rhs),rhsMax =   4.36400665604353E-10  1.86105353464259E-02
 cg2d: Sum(rhs),rhsMax =   4.36454053454050E-10  1.86103014346409E-02
 cg2d: Sum(rhs),rhsMax =   4.36518071689207E-10  1.86100758149693E-02
 cg2d: Sum(rhs),rhsMax =   4.36557012761796E-10  1.86098585503347E-02
 cg2d: Sum(rhs),rhsMax =   4.36612301868422E-10  1.86096496709312E-02
 cg2d: Sum(rhs),rhsMax =   4.36668159964348E-10  1.86094491801360E-02
 cg2d: Sum(rhs),rhsMax =   4.36713942786326E-10  1.86092570518243E-02
 cg2d: Sum(rhs),rhsMax =   4.36753175292459E-10  1.86090732286264E-02
 cg2d: Sum(rhs),rhsMax =   4.36793629043919E-10  1.86088976263542E-02
 cg2d: Sum(rhs),rhsMax =   4.36835803641067E-10  1.86087301320594E-02
 cg2d: Sum(rhs),rhsMax =   4.36881711363135E-10  1.86085706057672E-02
 cg2d: Sum(rhs),rhsMax =   4.36925620683759E-10  1.86084188849976E-02
 cg2d: Sum(rhs),rhsMax =   4.36959107785739E-10  1.86082747761213E-02
 cg2d: Sum(rhs),rhsMax =   4.36993594088442E-10  1.86081380690554E-02
 cg2d: Sum(rhs),rhsMax =   4.37032313116426E-10  1.86080085215135E-02
 cg2d: Sum(rhs),rhsMax =   4.37079164528065E-10  1.86078858802588E-02
 cg2d: Sum(rhs),rhsMax =   4.37120187268825E-10  1.86077698637942E-02
 cg2d: Sum(rhs),rhsMax =   4.37158351185296E-10  1.86076601751822E-02
 cg2d: Sum(rhs),rhsMax =   4.37193697910843E-10  1.86073578634109E-02
 cg2d: Sum(rhs),rhsMax =   4.37251526652638E-10  1.86068713567008E-02
 cg2d: Sum(rhs),rhsMax =   4.37294409016964E-10  1.86063901375139E-02
 cg2d: Sum(rhs),rhsMax =   4.37340011427700E-10  1.86059209154914E-02
 cg2d: Sum(rhs),rhsMax =   4.37399130803762E-10  1.86054612568387E-02
 cg2d: Sum(rhs),rhsMax =   4.37456723623164E-10  1.86050113150488E-02
 cg2d: Sum(rhs),rhsMax =   4.37494526717153E-10  1.86045715265846E-02
 cg2d: Sum(rhs),rhsMax =   4.37551550547255E-10  1.86041422667296E-02
 cg2d: Sum(rhs),rhsMax =   4.37599123603860E-10  1.86037238570320E-02
 cg2d: Sum(rhs),rhsMax =   4.37642783124303E-10  1.86033165782985E-02
 cg2d: Sum(rhs),rhsMax =   4.37689523513640E-10  1.86029206783062E-02
 cg2d: Sum(rhs),rhsMax =   4.37738789660358E-10  1.86025363639107E-02
 cg2d: Sum(rhs),rhsMax =   4.37794689389648E-10  1.86021638137842E-02
 cg2d: Sum(rhs),rhsMax =   4.37843761247336E-10  1.86018031633124E-02
 cg2d: Sum(rhs),rhsMax =   4.37895969485069E-10  1.86014545152784E-02
 cg2d: Sum(rhs),rhsMax =   4.37926847562942E-10  1.86011179381008E-02
 cg2d: Sum(rhs),rhsMax =   4.37979194578553E-10  1.86007934667701E-02
 cg2d: Sum(rhs),rhsMax =   4.38020300586039E-10  1.86004810972825E-02
 cg2d: Sum(rhs),rhsMax =   4.38059519214384E-10  1.86001807957299E-02
 cg2d: Sum(rhs),rhsMax =   4.38117528367421E-10  1.85998924978889E-02
 cg2d: Sum(rhs),rhsMax =   4.38161271154591E-10  1.85996161045082E-02
 cg2d: Sum(rhs),rhsMax =   4.38214228792866E-10  1.85993514884969E-02
 cg2d: Sum(rhs),rhsMax =   4.38243982769926E-10  1.85990984945822E-02
 cg2d: Sum(rhs),rhsMax =   4.38284949999534E-10  1.85988569398235E-02
 cg2d: Sum(rhs),rhsMax =   4.38328831564583E-10  1.85986266136014E-02
 cg2d: Sum(rhs),rhsMax =   4.38373004563175E-10  1.85984072838723E-02
 cg2d: Sum(rhs),rhsMax =   4.38422978477071E-10  1.85981986914436E-02
 cg2d: Sum(rhs),rhsMax =   4.38485442399994E-10  1.85980005606459E-02
 cg2d: Sum(rhs),rhsMax =   4.38513017564368E-10  1.85978125920176E-02
 cg2d: Sum(rhs),rhsMax =   4.38553790504947E-10  1.85976344696625E-02
 cg2d: Sum(rhs),rhsMax =   4.38595854079793E-10  1.85974658624595E-02
 cg2d: Sum(rhs),rhsMax =   4.38641678535134E-10  1.85973064218334E-02
 cg2d: Sum(rhs),rhsMax =   4.38690098136796E-10  1.85971557878482E-02
 cg2d: Sum(rhs),rhsMax =   4.38736574848164E-10  1.85970135880298E-02
 cg2d: Sum(rhs),rhsMax =   4.38789532486439E-10  1.85968794405213E-02
 cg2d: Sum(rhs),rhsMax =   4.38827890691940E-10  1.85967529588447E-02
 cg2d: Sum(rhs),rhsMax =   4.38867969743129E-10  1.85966337384931E-02
 Computing Diagnostic #    26 "THETA   " (list#  1) Parms "SMR     MR      ", Count=     144
 Computing Diagnostic #    27 "SALT    " (list#  1) Parms "SMR     MR      ", Count=     144
 Computing Diagnostic #    30 "UVEL    " (list#  1) Parms "UUR     MR      ", Count=     144
             Vector  Mate for "UVEL    " :  Diagnostic #     31 "VVEL    " exists
 Computing Diagnostic #    32 "WVEL    " (list#  1) Parms "WM      LR      ", Count=     144
 Computing Diagnostic #    31 "VVEL    " (list#  1) Parms "VVR     MR      ", Count=     144
             Vector  Mate for "VVEL    " :  Diagnostic #     30 "UVEL    " exists
 Computing Diagnostic #   197 "BRGfwFlx" (list#  2) Parms "SM      MR      ", Count=     144
 Computing Diagnostic #   198 "BRGhtFlx" (list#  2) Parms "SM      MR      ", Count=     144
 Computing Diagnostic #   199 "BRGmltRt" (list#  2) Parms "SM      MR      ", Count=     144
 Computing Diagnostic #   201 "BRG_TauX" (list#  2) Parms "UU      MR      ", Count=    1728
 Computing Diagnostic #   202 "BRG_TauY" (list#  2) Parms "VV      MR      ", Count=    1728
 Computing Diagnostic #   203 "BRGhFacC" (list#  2) Parms "SM      MR      ", Count=    1728
 cg2d: Sum(rhs),rhsMax =   4.38907146738110E-10  1.85965213855093E-02
 cg2d: Sum(rhs),rhsMax =   4.38959757431689E-10  1.85964188406403E-02
 cg2d: Sum(rhs),rhsMax =   4.39006775376782E-10  1.85963272198287E-02
 cg2d: Sum(rhs),rhsMax =   4.39047617706301E-10  1.85962461000663E-02
 cg2d: Sum(rhs),rhsMax =   4.39094038906518E-10  1.85961750150963E-02
 cg2d: Sum(rhs),rhsMax =   4.39134201224434E-10  1.85961135174870E-02
 cg2d: Sum(rhs),rhsMax =   4.39173530875081E-10  1.85960611459507E-02
 cg2d: Sum(rhs),rhsMax =   4.39222463954891E-10  1.85960173828017E-02
 cg2d: Sum(rhs),rhsMax =   4.39263569962378E-10  1.85959817186174E-02
 cg2d: Sum(rhs),rhsMax =   4.39302566546118E-10  1.85959536446562E-02
 cg2d: Sum(rhs),rhsMax =   4.39345920755230E-10  1.85959326429738E-02
 cg2d: Sum(rhs),rhsMax =   4.39387554118653E-10  1.85959181863742E-02
 cg2d: Sum(rhs),rhsMax =   4.39427924603386E-10  1.85959094750624E-02
 cg2d: Sum(rhs),rhsMax =   4.39465755452950E-10  1.85959062428678E-02
 cg2d: Sum(rhs),rhsMax =   4.39499325821657E-10  1.85959079582606E-02
 cg2d: Sum(rhs),rhsMax =   4.39544567409911E-10  1.85959140884282E-02
 cg2d: Sum(rhs),rhsMax =   4.39584174616314E-10  1.85959241048596E-02
 cg2d: Sum(rhs),rhsMax =   4.39612110603171E-10  1.85959374846018E-02
 cg2d: Sum(rhs),rhsMax =   4.39661071438557E-10  1.85959537107296E-02
 cg2d: Sum(rhs),rhsMax =   4.39714736844010E-10  1.85959722725390E-02
 cg2d: Sum(rhs),rhsMax =   4.39755190595470E-10  1.85959926703197E-02
 cg2d: Sum(rhs),rhsMax =   4.39797046003498E-10  1.85960144170379E-02
 cg2d: Sum(rhs),rhsMax =   4.39830116771844E-10  1.85960370374560E-02
 cg2d: Sum(rhs),rhsMax =   4.39871736257480E-10  1.85960600700575E-02
 cg2d: Sum(rhs),rhsMax =   4.39914327188262E-10  1.85960830628042E-02
 cg2d: Sum(rhs),rhsMax =   4.39955391562386E-10  1.85961055849712E-02
 cg2d: Sum(rhs),rhsMax =   4.39987352107707E-10  1.85961272265932E-02
 cg2d: Sum(rhs),rhsMax =   4.40026501347113E-10  1.85961475909286E-02
 cg2d: Sum(rhs),rhsMax =   4.40074129914869E-10  1.85961662982179E-02
 cg2d: Sum(rhs),rhsMax =   4.40113376298790E-10  1.85961829874490E-02
 cg2d: Sum(rhs),rhsMax =   4.40154232506096E-10  1.85961973222087E-02
 cg2d: Sum(rhs),rhsMax =   4.40191896822206E-10  1.85962089841114E-02
 cg2d: Sum(rhs),rhsMax =   4.40220651598544E-10  1.85962176734057E-02
 cg2d: Sum(rhs),rhsMax =   4.40268918544540E-10  1.85962231127840E-02
 cg2d: Sum(rhs),rhsMax =   4.40300421122863E-10  1.85962250477090E-02
 cg2d: Sum(rhs),rhsMax =   4.40330591433558E-10  1.85962232405216E-02
 cg2d: Sum(rhs),rhsMax =   4.40373543186823E-10  1.85962174775741E-02
 cg2d: Sum(rhs),rhsMax =   4.40419062330832E-10  1.85962075663257E-02
 cg2d: Sum(rhs),rhsMax =   4.40458128303511E-10  1.85961933329770E-02
 cg2d: Sum(rhs),rhsMax =   4.40497166520615E-10  1.85961746240585E-02
 cg2d: Sum(rhs),rhsMax =   4.40547112678935E-10  1.85961513071261E-02
 cg2d: Sum(rhs),rhsMax =   4.40594366546421E-10  1.85961232688954E-02
 cg2d: Sum(rhs),rhsMax =   4.40625813613593E-10  1.85960904133937E-02
 cg2d: Sum(rhs),rhsMax =   4.40670652746000E-10  1.85960526653917E-02
 cg2d: Sum(rhs),rhsMax =   4.40715700045224E-10  1.85960099647752E-02
 cg2d: Sum(rhs),rhsMax =   4.40745329122194E-10  1.85959622688151E-02
 cg2d: Sum(rhs),rhsMax =   4.40784575506115E-10  1.85959095502014E-02
 cg2d: Sum(rhs),rhsMax =   4.40838990312109E-10  1.85958517967272E-02
 cg2d: Sum(rhs),rhsMax =   4.40877070961854E-10  1.85957890115793E-02
 cg2d: Sum(rhs),rhsMax =   4.40916650412682E-10  1.85957212087874E-02
 cg2d: Sum(rhs),rhsMax =   4.40954703306851E-10  1.85956484181651E-02
 cg2d: Sum(rhs),rhsMax =   4.41000264084224E-10  1.85955706768606E-02
 cg2d: Sum(rhs),rhsMax =   4.41035194476136E-10  1.85954880329089E-02
 cg2d: Sum(rhs),rhsMax =   4.41085293290122E-10  1.85954005446175E-02
 cg2d: Sum(rhs),rhsMax =   4.41123207406413E-10  1.85953082795250E-02
 cg2d: Sum(rhs),rhsMax =   4.41156805530696E-10  1.85952113101626E-02
 cg2d: Sum(rhs),rhsMax =   4.41195802114436E-10  1.85951097151242E-02
 cg2d: Sum(rhs),rhsMax =   4.41238032222735E-10  1.85950035798089E-02
 cg2d: Sum(rhs),rhsMax =   4.41286104879701E-10  1.85948929917833E-02
 cg2d: Sum(rhs),rhsMax =   4.41331568512560E-10  1.85947780440706E-02
 cg2d: Sum(rhs),rhsMax =   4.41374312099008E-10  1.85946588296915E-02
 cg2d: Sum(rhs),rhsMax =   4.41418915309022E-10  1.85945354427296E-02
 cg2d: Sum(rhs),rhsMax =   4.41470054957094E-10  1.85944079744678E-02
 cg2d: Sum(rhs),rhsMax =   4.41517683524850E-10  1.85942765153759E-02
 cg2d: Sum(rhs),rhsMax =   4.41561315289718E-10  1.85941411709157E-02
 cg2d: Sum(rhs),rhsMax =   4.41601075151787E-10  1.85940020347227E-02
 cg2d: Sum(rhs),rhsMax =   4.41642389326091E-10  1.85938591933027E-02
 cg2d: Sum(rhs),rhsMax =   4.41690767294389E-10  1.85937127310138E-02
 cg2d: Sum(rhs),rhsMax =   4.41727446287565E-10  1.85935627323058E-02
 cg2d: Sum(rhs),rhsMax =   4.41761030534060E-10  1.85934092732781E-02
 cg2d: Sum(rhs),rhsMax =   4.41790132255093E-10  1.85932524287250E-02
 cg2d: Sum(rhs),rhsMax =   4.41845421361720E-10  1.85930922641591E-02
 cg2d: Sum(rhs),rhsMax =   4.41888289848258E-10  1.85929288424392E-02
 cg2d: Sum(rhs),rhsMax =   4.41938763362515E-10  1.85927622212425E-02
 cg2d: Sum(rhs),rhsMax =   4.41983200039076E-10  1.85925924494563E-02
 cg2d: Sum(rhs),rhsMax =   4.42037018100194E-10  1.85924195739308E-02
 cg2d: Sum(rhs),rhsMax =   4.42080858031879E-10  1.85922436356950E-02
 cg2d: Sum(rhs),rhsMax =   4.42115455356884E-10  1.85920646503933E-02
 cg2d: Sum(rhs),rhsMax =   4.42161224301074E-10  1.85918826552480E-02
 cg2d: Sum(rhs),rhsMax =   4.42216249729732E-10  1.85916976743394E-02
 cg2d: Sum(rhs),rhsMax =   4.42259825983449E-10  1.85915097184070E-02
 cg2d: Sum(rhs),rhsMax =   4.42304526337978E-10  1.85913187947283E-02
 cg2d: Sum(rhs),rhsMax =   4.42348213613997E-10  1.85911249037125E-02
 cg2d: Sum(rhs),rhsMax =   4.42391970278955E-10  1.85909274049869E-02
 cg2d: Sum(rhs),rhsMax =   4.42430883595968E-10  1.85907269168572E-02
 cg2d: Sum(rhs),rhsMax =   4.42488115592887E-10  1.85905234536485E-02
 cg2d: Sum(rhs),rhsMax =   4.42525183164122E-10  1.85903169971688E-02
 cg2d: Sum(rhs),rhsMax =   4.42571604364339E-10  1.85901075339181E-02
 cg2d: Sum(rhs),rhsMax =   4.42617151263924E-10  1.85898950452445E-02
 cg2d: Sum(rhs),rhsMax =   4.42667152933396E-10  1.85896795116755E-02
 cg2d: Sum(rhs),rhsMax =   4.42719347293341E-10  1.85894609102610E-02
 cg2d: Sum(rhs),rhsMax =   4.42766268093919E-10  1.85892392176252E-02
 cg2d: Sum(rhs),rhsMax =   4.42808512080006E-10  1.85890144089534E-02
 cg2d: Sum(rhs),rhsMax =   4.42854586335528E-10  1.85887864601255E-02
 cg2d: Sum(rhs),rhsMax =   4.42909098286037E-10  1.85885553462148E-02
 cg2d: Sum(rhs),rhsMax =   4.42962597158036E-10  1.85883210423192E-02
 cg2d: Sum(rhs),rhsMax =   4.43013056794506E-10  1.85880835280560E-02
 cg2d: Sum(rhs),rhsMax =   4.43053885246236E-10  1.85878427822489E-02
 cg2d: Sum(rhs),rhsMax =   4.43113837289566E-10  1.85875987889309E-02
 cg2d: Sum(rhs),rhsMax =   4.43149739126625E-10  1.85873515337666E-02
 cg2d: Sum(rhs),rhsMax =   4.43200795507970E-10  1.85871010064003E-02
 cg2d: Sum(rhs),rhsMax =   4.43245287695682E-10  1.85868472046359E-02
 cg2d: Sum(rhs),rhsMax =   4.43289072116215E-10  1.85865901262459E-02
 cg2d: Sum(rhs),rhsMax =   4.43346276357559E-10  1.85863297794194E-02
 cg2d: Sum(rhs),rhsMax =   4.43401523830822E-10  1.85860661749679E-02
 cg2d: Sum(rhs),rhsMax =   4.43446404596592E-10  1.85857993317328E-02
 cg2d: Sum(rhs),rhsMax =   4.43501096958343E-10  1.85855293292893E-02
 cg2d: Sum(rhs),rhsMax =   4.43548656137160E-10  1.85852562668564E-02
 cg2d: Sum(rhs),rhsMax =   4.43584932674490E-10  1.85849801956061E-02
 cg2d: Sum(rhs),rhsMax =   4.43630535085227E-10  1.85847012602901E-02
 cg2d: Sum(rhs),rhsMax =   4.43680217565579E-10  1.85844196603346E-02
 cg2d: Sum(rhs),rhsMax =   4.43738795707915E-10  1.85841355456772E-02
 cg2d: Sum(rhs),rhsMax =   4.43786021819825E-10  1.85838490344056E-02
 cg2d: Sum(rhs),rhsMax =   4.43834927144060E-10  1.85835602569860E-02
 cg2d: Sum(rhs),rhsMax =   4.43877087863420E-10  1.85832693493857E-02
 cg2d: Sum(rhs),rhsMax =   4.43917028136731E-10  1.85829764510523E-02
 cg2d: Sum(rhs),rhsMax =   4.43971595598391E-10  1.85826817050997E-02
 cg2d: Sum(rhs),rhsMax =   4.44027939416891E-10  1.85823852554548E-02
 cg2d: Sum(rhs),rhsMax =   4.44082146056068E-10  1.85820872512822E-02
 cg2d: Sum(rhs),rhsMax =   4.44135908606036E-10  1.85817878423422E-02
 cg2d: Sum(rhs),rhsMax =   4.44191891602053E-10  1.85814871812044E-02
 cg2d: Sum(rhs),rhsMax =   4.44233774765657E-10  1.85811854249468E-02
 cg2d: Sum(rhs),rhsMax =   4.44277559186190E-10  1.85808827283405E-02
 cg2d: Sum(rhs),rhsMax =   4.44320497061668E-10  1.85805792480469E-02
 cg2d: Sum(rhs),rhsMax =   4.44379325004185E-10  1.85802751448477E-02
 cg2d: Sum(rhs),rhsMax =   4.44426065393522E-10  1.85799705772605E-02
 cg2d: Sum(rhs),rhsMax =   4.44480147132609E-10  1.85796657054857E-02
 cg2d: Sum(rhs),rhsMax =   4.44520975584339E-10  1.85793606909803E-02
 cg2d: Sum(rhs),rhsMax =   4.44573586277919E-10  1.85790556956352E-02
 cg2d: Sum(rhs),rhsMax =   4.44624559392537E-10  1.85787508839741E-02
 cg2d: Sum(rhs),rhsMax =   4.44666137244809E-10  1.85784464161550E-02
 cg2d: Sum(rhs),rhsMax =   4.44711573122092E-10  1.85781424544542E-02
 cg2d: Sum(rhs),rhsMax =   4.44754510997569E-10  1.85778391669695E-02
 cg2d: Sum(rhs),rhsMax =   4.44796088849841E-10  1.85775367126896E-02
 cg2d: Sum(rhs),rhsMax =   4.44845674185679E-10  1.85772352491796E-02
 cg2d: Sum(rhs),rhsMax =   4.44895564832848E-10  1.85769349350850E-02
 cg2d: Sum(rhs),rhsMax =   4.44946940403312E-10  1.85766359339654E-02
 cg2d: Sum(rhs),rhsMax =   4.44994055492920E-10  1.85763384114023E-02
 cg2d: Sum(rhs),rhsMax =   4.45038686458510E-10  1.85760425312502E-02
 cg2d: Sum(rhs),rhsMax =   4.45094960888071E-10  1.85757484598160E-02
 cg2d: Sum(rhs),rhsMax =   4.45135067694835E-10  1.85754563638195E-02
 cg2d: Sum(rhs),rhsMax =   4.45185943664939E-10  1.85751664069588E-02
 cg2d: Sum(rhs),rhsMax =   4.45227313350394E-10  1.85748787550075E-02
 cg2d: Sum(rhs),rhsMax =   4.45288222961082E-10  1.85745935752535E-02
(PID.TID 0000.0001)      cg2d_init_res =   1.33168249492355E-04
(PID.TID 0000.0001)      cg2d_iters(min,last) =      -1      39
(PID.TID 0000.0001)      cg2d_last_res =   9.43159122599800E-14
(PID.TID 0000.0001) // =======================================================
(PID.TID 0000.0001) // Begin MONITOR dynamic field statistics
(PID.TID 0000.0001) // =======================================================
(PID.TID 0000.0001) %MON time_tsnumber                =                 12096
(PID.TID 0000.0001) %MON time_secondsf                =   3.0240000000000E+05
(PID.TID 0000.0001) %MON dynstat_eta_max              =   5.5190224336004E-03
(PID.TID 0000.0001) %MON dynstat_eta_min              =  -2.6901968568002E-03
(PID.TID 0000.0001) %MON dynstat_eta_mean             =  -5.5390857526157E-14
(PID.TID 0000.0001) %MON dynstat_eta_sd               =   2.7934505545772E-03
(PID.TID 0000.0001) %MON dynstat_eta_del2             =   2.3646620137684E-05
(PID.TID 0000.0001) %MON dynstat_uvel_max             =   4.8156029133182E-02
(PID.TID 0000.0001) %MON dynstat_uvel_min             =  -3.4331727119686E-02
(PID.TID 0000.0001) %MON dynstat_uvel_mean            =   5.9095229634458E-09
(PID.TID 0000.0001) %MON dynstat_uvel_sd              =   6.1054885035586E-03
(PID.TID 0000.0001) %MON dynstat_uvel_del2            =   1.0409778724869E-04
(PID.TID 0000.0001) %MON dynstat_vvel_max             =   2.2132747148389E-02
(PID.TID 0000.0001) %MON dynstat_vvel_min             =  -3.2566422451335E-02
(PID.TID 0000.0001) %MON dynstat_vvel_mean            =  -8.0919744597371E-03
(PID.TID 0000.0001) %MON dynstat_vvel_sd              =   1.1398350472582E-02
(PID.TID 0000.0001) %MON dynstat_vvel_del2            =   9.3034908845019E-05
(PID.TID 0000.0001) %MON dynstat_wvel_max             =   1.3441689924304E-03
(PID.TID 0000.0001) %MON dynstat_wvel_min             =  -1.0731846443089E-03
(PID.TID 0000.0001) %MON dynstat_wvel_mean            =  -5.9488008596516E-21
(PID.TID 0000.0001) %MON dynstat_wvel_sd              =   1.2537765076249E-04
(PID.TID 0000.0001) %MON dynstat_wvel_del2            =   6.1880943329804E-06
(PID.TID 0000.0001) %MON dynstat_theta_max            =   2.6931451612903E+00
(PID.TID 0000.0001) %MON dynstat_theta_min            =  -3.8864511879491E-01
(PID.TID 0000.0001) %MON dynstat_theta_mean           =   2.2310824717004E+00
(PID.TID 0000.0001) %MON dynstat_theta_sd             =   4.9621714023138E-01
(PID.TID 0000.0001) %MON dynstat_theta_del2           =   1.4994240051292E-03
(PID.TID 0000.0001) %MON dynstat_salt_max             =   3.4699999999999E+01
(PID.TID 0000.0001) %MON dynstat_salt_min             =   3.3015641431513E+01
(PID.TID 0000.0001) %MON dynstat_salt_mean            =   3.4364441297632E+01
(PID.TID 0000.0001) %MON dynstat_salt_sd              =   3.2206520004386E-01
(PID.TID 0000.0001) %MON dynstat_salt_del2            =   2.0071783569004E-04
(PID.TID 0000.0001) %MON advcfl_uvel_max              =   2.4078014566591E-03
(PID.TID 0000.0001) %MON advcfl_vvel_max              =   1.6283211225668E-03
(PID.TID 0000.0001) %MON advcfl_wvel_max              =   6.3502352306352E-04
(PID.TID 0000.0001) %MON advcfl_W_hf_max              =   1.7269440742923E-03
(PID.TID 0000.0001) %MON pe_b_mean                    =   6.5106844851568E-08
(PID.TID 0000.0001) %MON ke_max                       =   1.1031144030904E-03
(PID.TID 0000.0001) %MON ke_mean                      =   1.0638253123179E-04
(PID.TID 0000.0001) %MON ke_vol                       =   3.2921708585402E+10
(PID.TID 0000.0001) // =======================================================
(PID.TID 0000.0001) // End MONITOR dynamic field statistics
(PID.TID 0000.0001) // =======================================================
(PID.TID 0000.0001) // =======================================================
(PID.TID 0000.0001) // Begin OBCS MONITOR field statistics
(PID.TID 0000.0001) // =======================================================
(PID.TID 0000.0001) %MON obc_E_uVel_max               =   0.0000000000000E+00
(PID.TID 0000.0001) %MON obc_E_uVel_min               =   0.0000000000000E+00
(PID.TID 0000.0001) %MON obc_E_uVel_mean              =   0.0000000000000E+00
(PID.TID 0000.0001) %MON obc_E_uVel_sd                =   0.0000000000000E+00
(PID.TID 0000.0001) %MON obc_E_uVel_Int               =   0.0000000000000E+00
(PID.TID 0000.0001) %MON obc_N_vVel_max               =  -3.6115799844846E-05
(PID.TID 0000.0001) %MON obc_N_vVel_min               =  -3.0000000000000E-02
(PID.TID 0000.0001) %MON obc_N_vVel_mean              =  -1.3225455303334E-02
(PID.TID 0000.0001) %MON obc_N_vVel_sd                =   1.1350864292742E-02
(PID.TID 0000.0001) %MON obc_N_vVel_Int               =  -5.9514548865004E+04
(PID.TID 0000.0001) %MON obc_S_vVel_max               =  -3.6115799844846E-05
(PID.TID 0000.0001) %MON obc_S_vVel_min               =  -3.0000000000000E-02
(PID.TID 0000.0001) %MON obc_S_vVel_mean              =  -1.3225455303334E-02
(PID.TID 0000.0001) %MON obc_S_vVel_sd                =   1.1350864292742E-02
(PID.TID 0000.0001) %MON obc_S_vVel_Int               =  -5.9514548865004E+04
(PID.TID 0000.0001) // =======================================================
(PID.TID 0000.0001) // End OBCS MONITOR field statistics
(PID.TID 0000.0001) // =======================================================
 Computing Diagnostic #    26 "THETA   " (list#  1) Parms "SMR     MR      ", Count=     144
 Computing Diagnostic #    27 "SALT    " (list#  1) Parms "SMR     MR      ", Count=     144
 Computing Diagnostic #    30 "UVEL    " (list#  1) Parms "UUR     MR      ", Count=     144
             Vector  Mate for "UVEL    " :  Diagnostic #     31 "VVEL    " exists
 Computing Diagnostic #    32 "WVEL    " (list#  1) Parms "WM      LR      ", Count=     144
 Computing Diagnostic #    31 "VVEL    " (list#  1) Parms "VVR     MR      ", Count=     144
             Vector  Mate for "VVEL    " :  Diagnostic #     30 "UVEL    " exists
 Computing Diagnostic #   197 "BRGfwFlx" (list#  2) Parms "SM      MR      ", Count=     144
 Computing Diagnostic #   198 "BRGhtFlx" (list#  2) Parms "SM      MR      ", Count=     144
 Computing Diagnostic #   199 "BRGmltRt" (list#  2) Parms "SM      MR      ", Count=     144
 Computing Diagnostic #   201 "BRG_TauX" (list#  2) Parms "UU      MR      ", Count=    1728
 Computing Diagnostic #   202 "BRG_TauY" (list#  2) Parms "VV      MR      ", Count=    1728
 Computing Diagnostic #   203 "BRGhFacC" (list#  2) Parms "SM      MR      ", Count=    1728
 cg2d: Sum(rhs),rhsMax =   4.45330106124686E-10  1.85743110356329E-02
 cg2d: Sum(rhs),rhsMax =   4.45372391744137E-10  1.85740313011753E-02
 cg2d: Sum(rhs),rhsMax =   4.45416745153970E-10  1.85737545421389E-02
 cg2d: Sum(rhs),rhsMax =   4.45462292053556E-10  1.85734809254641E-02
 cg2d: Sum(rhs),rhsMax =   4.45522521652642E-10  1.85732106179115E-02
 cg2d: Sum(rhs),rhsMax =   4.45558687167669E-10  1.85729437899605E-02
 cg2d: Sum(rhs),rhsMax =   4.45604150800527E-10  1.85726806103114E-02
 cg2d: Sum(rhs),rhsMax =   4.45652195701918E-10  1.85724212473455E-02
 cg2d: Sum(rhs),rhsMax =   4.45691275552385E-10  1.85721658729054E-02
 cg2d: Sum(rhs),rhsMax =   4.45740708232556E-10  1.85719146545130E-02
 cg2d: Sum(rhs),rhsMax =   4.45783743252548E-10  1.85716677617957E-02
 cg2d: Sum(rhs),rhsMax =   4.45836978446579E-10  1.85714253627309E-02
 cg2d: Sum(rhs),rhsMax =   4.45864956066799E-10  1.85711876284310E-02
 cg2d: Sum(rhs),rhsMax =   4.45914472013698E-10  1.85709547256437E-02
 cg2d: Sum(rhs),rhsMax =   4.45959269512741E-10  1.85707268207401E-02
 cg2d: Sum(rhs),rhsMax =   4.46001013898467E-10  1.85705040826879E-02
 cg2d: Sum(rhs),rhsMax =   4.46065198667078E-10  1.85702866713794E-02
 cg2d: Sum(rhs),rhsMax =   4.46099851503234E-10  1.85700747542548E-02
 cg2d: Sum(rhs),rhsMax =   4.46137279896952E-10  1.85698684888604E-02
 cg2d: Sum(rhs),rhsMax =   4.46186171343399E-10  1.85696680348139E-02
 cg2d: Sum(rhs),rhsMax =   4.46240780438423E-10  1.85694735475431E-02
 cg2d: Sum(rhs),rhsMax =   4.46271769538598E-10  1.85692851763580E-02
 cg2d: Sum(rhs),rhsMax =   4.46315442936829E-10  1.85691030719215E-02
 cg2d: Sum(rhs),rhsMax =   4.46357451000523E-10  1.85689273765247E-02
 cg2d: Sum(rhs),rhsMax =   4.46401499099025E-10  1.85687582284980E-02
 cg2d: Sum(rhs),rhsMax =   4.46443326751478E-10  1.85685957594881E-02
 cg2d: Sum(rhs),rhsMax =   4.46487805061402E-10  1.85684400966758E-02
 cg2d: Sum(rhs),rhsMax =   4.46544731746989E-10  1.85682913601266E-02
 cg2d: Sum(rhs),rhsMax =   4.46586267965898E-10  1.85681496612133E-02
 cg2d: Sum(rhs),rhsMax =   4.46621559180294E-10  1.85680151049920E-02
 cg2d: Sum(rhs),rhsMax =   4.46666759135184E-10  1.85678877849787E-02
 cg2d: Sum(rhs),rhsMax =   4.46719425339914E-10  1.85677677880050E-02
 cg2d: Sum(rhs),rhsMax =   4.46764569783653E-10  1.85676551894727E-02
 cg2d: Sum(rhs),rhsMax =   4.46803233300486E-10  1.85675500520789E-02
 cg2d: Sum(rhs),rhsMax =   4.46853942737135E-10  1.85674524294067E-02
 cg2d: Sum(rhs),rhsMax =   4.46901904371799E-10  1.85673623604962E-02
 cg2d: Sum(rhs),rhsMax =   4.46938500098248E-10  1.85672798785306E-02
 cg2d: Sum(rhs),rhsMax =   4.46985656821219E-10  1.85672049977532E-02
 cg2d: Sum(rhs),rhsMax =   4.47020087612771E-10  1.85671377264524E-02
 cg2d: Sum(rhs),rhsMax =   4.47053769003780E-10  1.85670780517463E-02
 cg2d: Sum(rhs),rhsMax =   4.47102577183500E-10  1.85670259438563E-02
 cg2d: Sum(rhs),rhsMax =   4.47140505177579E-10  1.85669813590009E-02
 cg2d: Sum(rhs),rhsMax =   4.47185746765832E-10  1.85669442332352E-02
 cg2d: Sum(rhs),rhsMax =   4.47220524502079E-10  1.85669144864077E-02
 cg2d: Sum(rhs),rhsMax =   4.47257550439950E-10  1.85668920181931E-02
 cg2d: Sum(rhs),rhsMax =   4.47298725836376E-10  1.85668767001018E-02
 cg2d: Sum(rhs),rhsMax =   4.47332990094473E-10  1.85668683974924E-02
 cg2d: Sum(rhs),rhsMax =   4.47389639224305E-10  1.85668669554924E-02
 cg2d: Sum(rhs),rhsMax =   4.47418990745518E-10  1.85668722010792E-02
 cg2d: Sum(rhs),rhsMax =   4.47461290242757E-10  1.85668839369496E-02
 cg2d: Sum(rhs),rhsMax =   4.47493375688168E-10  1.85669019280585E-02
 cg2d: Sum(rhs),rhsMax =   4.47528084035476E-10  1.85669259265899E-02
 cg2d: Sum(rhs),rhsMax =   4.47560100091948E-10  1.85669556720428E-02
 cg2d: Sum(rhs),rhsMax =   4.47603634712301E-10  1.85669908778825E-02
 cg2d: Sum(rhs),rhsMax =   4.47638676126516E-10  1.85670312369038E-02
 cg2d: Sum(rhs),rhsMax =   4.47688150440051E-10  1.85670764196476E-02
 cg2d: Sum(rhs),rhsMax =   4.47724760044288E-10  1.85671260753348E-02
 cg2d: Sum(rhs),rhsMax =   4.47771056344415E-10  1.85671798335719E-02
 cg2d: Sum(rhs),rhsMax =   4.47792747326758E-10  1.85672373052156E-02
 cg2d: Sum(rhs),rhsMax =   4.47836073780294E-10  1.85672980774377E-02
 cg2d: Sum(rhs),rhsMax =   4.47871351116902E-10  1.85673617225405E-02
 cg2d: Sum(rhs),rhsMax =   4.47900078137664E-10  1.85674277926993E-02
 cg2d: Sum(rhs),rhsMax =   4.47941558845422E-10  1.85674958204700E-02
 cg2d: Sum(rhs),rhsMax =   4.47982068108033E-10  1.85675653269860E-02
 cg2d: Sum(rhs),rhsMax =   4.48016956866581E-10  1.85676358103702E-02
 cg2d: Sum(rhs),rhsMax =   4.48056883262105E-10  1.85676279478674E-02
 cg2d: Sum(rhs),rhsMax =   4.48097128846747E-10  1.85676287370419E-02
 cg2d: Sum(rhs),rhsMax =   4.48129797159247E-10  1.85676292209650E-02
 cg2d: Sum(rhs),rhsMax =   4.48174747313956E-10  1.85676272678607E-02
 cg2d: Sum(rhs),rhsMax =   4.48225748184150E-10  1.85676225540410E-02
 cg2d: Sum(rhs),rhsMax =   4.48257722607259E-10  1.85676147405931E-02
 cg2d: Sum(rhs),rhsMax =   4.48289974586125E-10  1.85676034613743E-02
 cg2d: Sum(rhs),rhsMax =   4.48327888702416E-10  1.85675883514868E-02
 cg2d: Sum(rhs),rhsMax =   4.48370576777712E-10  1.85675690553723E-02
 cg2d: Sum(rhs),rhsMax =   4.48403342234727E-10  1.85675452209750E-02
 cg2d: Sum(rhs),rhsMax =   4.48447168288624E-10  1.85675165003225E-02
 cg2d: Sum(rhs),rhsMax =   4.48486456305908E-10  1.85674333873041E-02
 cg2d: Sum(rhs),rhsMax =   4.48523551632718E-10  1.85671568579541E-02
 cg2d: Sum(rhs),rhsMax =   4.48566808697315E-10  1.85668769594426E-02
 cg2d: Sum(rhs),rhsMax =   4.48615186665613E-10  1.85665957538566E-02
 cg2d: Sum(rhs),rhsMax =   4.48664605467997E-10  1.85663138153751E-02
 cg2d: Sum(rhs),rhsMax =   4.48719283951959E-10  1.85660330042265E-02
 cg2d: Sum(rhs),rhsMax =   4.48776016348518E-10  1.85657548060173E-02
 cg2d: Sum(rhs),rhsMax =   4.48824630239208E-10  1.85654805721024E-02
 cg2d: Sum(rhs),rhsMax =   4.48868484048681E-10  1.85652116102593E-02
 cg2d: Sum(rhs),rhsMax =   4.48907022665423E-10  1.85649491737173E-02
 cg2d: Sum(rhs),rhsMax =   4.48958425991464E-10  1.85646944375888E-02
 cg2d: Sum(rhs),rhsMax =   4.48995771118454E-10  1.85644484990794E-02
 cg2d: Sum(rhs),rhsMax =   4.49043288663908E-10  1.85642123711371E-02
 cg2d: Sum(rhs),rhsMax =   4.49091139276270E-10  1.85639869755816E-02
 cg2d: Sum(rhs),rhsMax =   4.49145498571113E-10  1.85637731411756E-02
 cg2d: Sum(rhs),rhsMax =   4.49173309657880E-10  1.85635715956004E-02
 cg2d: Sum(rhs),rhsMax =   4.49217968379045E-10  1.85633829660407E-02
 cg2d: Sum(rhs),rhsMax =   4.49247403166986E-10  1.85632077752509E-02
 cg2d: Sum(rhs),rhsMax =   4.49297432592033E-10  1.85630464392998E-02
 cg2d: Sum(rhs),rhsMax =   4.49337136942951E-10  1.85628992673729E-02
 cg2d: Sum(rhs),rhsMax =   4.49379256028948E-10  1.85627664520398E-02
 cg2d: Sum(rhs),rhsMax =   4.49418224857112E-10  1.85626480869857E-02
 cg2d: Sum(rhs),rhsMax =   4.49474096830826E-10  1.85625441570301E-02
 cg2d: Sum(rhs),rhsMax =   4.49502893240528E-10  1.85624545373203E-02
 cg2d: Sum(rhs),rhsMax =   4.49533146817949E-10  1.85623789924540E-02
 cg2d: Sum(rhs),rhsMax =   4.49577208794238E-10  1.85623171838443E-02
 cg2d: Sum(rhs),rhsMax =   4.49616816000642E-10  1.85622686711893E-02
 cg2d: Sum(rhs),rhsMax =   4.49660725321266E-10  1.85622329146871E-02
 cg2d: Sum(rhs),rhsMax =   4.49701303972816E-10  1.85622092814970E-02
 cg2d: Sum(rhs),rhsMax =   4.49731141216603E-10  1.85621970452666E-02
 cg2d: Sum(rhs),rhsMax =   4.49767362242781E-10  1.85621953186679E-02
 cg2d: Sum(rhs),rhsMax =   4.49812298519703E-10  1.85622032212973E-02
 cg2d: Sum(rhs),rhsMax =   4.49865131257887E-10  1.85622197647197E-02
 cg2d: Sum(rhs),rhsMax =   4.49903281296571E-10  1.85622439148299E-02
 cg2d: Sum(rhs),rhsMax =   4.49937850866000E-10  1.85622745803701E-02
 cg2d: Sum(rhs),rhsMax =   4.49977985428340E-10  1.85623105864694E-02
 cg2d: Sum(rhs),rhsMax =   4.50008696972759E-10  1.85623507117808E-02
 cg2d: Sum(rhs),rhsMax =   4.50056353296091E-10  1.85623936980111E-02
 cg2d: Sum(rhs),rhsMax =   4.50086773406966E-10  1.85624382261696E-02
 cg2d: Sum(rhs),rhsMax =   4.50129974960412E-10  1.85624829802138E-02
 cg2d: Sum(rhs),rhsMax =   4.50168860521849E-10  1.85625266144760E-02
 cg2d: Sum(rhs),rhsMax =   4.50205497881662E-10  1.85625677591279E-02
 cg2d: Sum(rhs),rhsMax =   4.50240192351181E-10  1.85626049934145E-02
 cg2d: Sum(rhs),rhsMax =   4.50282200414875E-10  1.85626368279146E-02
 cg2d: Sum(rhs),rhsMax =   4.50315520983402E-10  1.85626619218130E-02
 cg2d: Sum(rhs),rhsMax =   4.50351630987278E-10  1.85626787942182E-02
 cg2d: Sum(rhs),rhsMax =   4.50400272633544E-10  1.85626860793191E-02
 cg2d: Sum(rhs),rhsMax =   4.50446707711549E-10  1.85626824258315E-02
 cg2d: Sum(rhs),rhsMax =   4.50489326397907E-10  1.85626665120670E-02
 cg2d: Sum(rhs),rhsMax =   4.50530529549908E-10  1.85626370573867E-02
 cg2d: Sum(rhs),rhsMax =   4.50577949950848E-10  1.85625928319650E-02
 cg2d: Sum(rhs),rhsMax =   4.50632836601628E-10  1.85625326638962E-02
 cg2d: Sum(rhs),rhsMax =   4.50680076591325E-10  1.85624554424216E-02
 cg2d: Sum(rhs),rhsMax =   4.50725068379398E-10  1.85623601215286E-02
 cg2d: Sum(rhs),rhsMax =   4.50765286208465E-10  1.85622457324132E-02
 cg2d: Sum(rhs),rhsMax =   4.50804532592386E-10  1.85621113797210E-02
 cg2d: Sum(rhs),rhsMax =   4.50842890797887E-10  1.85619562532876E-02
 cg2d: Sum(rhs),rhsMax =   4.50884954372732E-10  1.85617796264441E-02
 cg2d: Sum(rhs),rhsMax =   4.50924506067985E-10  1.85615808638617E-02
 cg2d: Sum(rhs),rhsMax =   4.50965279008564E-10  1.85613594232564E-02
 cg2d: Sum(rhs),rhsMax =   4.51013795754740E-10  1.85611148565914E-02
 cg2d: Sum(rhs),rhsMax =   4.51074205765067E-10  1.85608468124590E-02
 cg2d: Sum(rhs),rhsMax =   4.51122181277519E-10  1.85605550392463E-02
 cg2d: Sum(rhs),rhsMax =   4.51166173864870E-10  1.85602393852885E-02
 cg2d: Sum(rhs),rhsMax =   4.51205850460212E-10  1.85598997950517E-02
 cg2d: Sum(rhs),rhsMax =   4.51254256184086E-10  1.85595363153432E-02
 cg2d: Sum(rhs),rhsMax =   4.51292475611709E-10  1.85591490785310E-02
 cg2d: Sum(rhs),rhsMax =   4.51339590701316E-10  1.85587383071238E-02
 Computing Diagnostic #    26 "THETA   " (list#  1) Parms "SMR     MR      ", Count=     144
 Computing Diagnostic #    27 "SALT    " (list#  1) Parms "SMR     MR      ", Count=     144
 Computing Diagnostic #    30 "UVEL    " (list#  1) Parms "UUR     MR      ", Count=     144
             Vector  Mate for "UVEL    " :  Diagnostic #     31 "VVEL    " exists
 Computing Diagnostic #    32 "WVEL    " (list#  1) Parms "WM      LR      ", Count=     144
 Computing Diagnostic #    31 "VVEL    " (list#  1) Parms "VVR     MR      ", Count=     144
             Vector  Mate for "VVEL    " :  Diagnostic #     30 "UVEL    " exists
 Computing Diagnostic #   197 "BRGfwFlx" (list#  2) Parms "SM      MR      ", Count=     144
 Computing Diagnostic #   198 "BRGhtFlx" (list#  2) Parms "SM      MR      ", Count=     144
 Computing Diagnostic #   199 "BRGmltRt" (list#  2) Parms "SM      MR      ", Count=     144
 Computing Diagnostic #   201 "BRG_TauX" (list#  2) Parms "UU      MR      ", Count=    1728
 Computing Diagnostic #   202 "BRG_TauY" (list#  2) Parms "VV      MR      ", Count=    1728
 Computing Diagnostic #   203 "BRGhFacC" (list#  2) Parms "SM      MR      ", Count=    1728
 cg2d: Sum(rhs),rhsMax =   4.51396600653631E-10  1.85583043431700E-02
 cg2d: Sum(rhs),rhsMax =   4.51439774451501E-10  1.85578476293377E-02
 cg2d: Sum(rhs),rhsMax =   4.51498560760655E-10  1.85573686963775E-02
 cg2d: Sum(rhs),rhsMax =   4.51551226965385E-10  1.85568681672429E-02
 cg2d: Sum(rhs),rhsMax =   4.51607987117519E-10  1.85563467509520E-02
 cg2d: Sum(rhs),rhsMax =   4.51648968224916E-10  1.85558052406148E-02
 cg2d: Sum(rhs),rhsMax =   4.51710419069329E-10  1.85552445076576E-02
 cg2d: Sum(rhs),rhsMax =   4.51767304121553E-10  1.85546654957605E-02
 cg2d: Sum(rhs),rhsMax =   4.51817916413688E-10  1.85540692185889E-02
 cg2d: Sum(rhs),rhsMax =   4.51869888729028E-10  1.85534567530985E-02
 cg2d: Sum(rhs),rhsMax =   4.51921722266491E-10  1.85528292333222E-02
 cg2d: Sum(rhs),rhsMax =   4.51973028448016E-10  1.85521878462579E-02
 cg2d: Sum(rhs),rhsMax =   4.52019560670536E-10  1.85515338118428E-02
 cg2d: Sum(rhs),rhsMax =   4.52072851375718E-10  1.85508684333140E-02
 cg2d: Sum(rhs),rhsMax =   4.52129486627761E-10  1.85501929801995E-02
 cg2d: Sum(rhs),rhsMax =   4.52203594014655E-10  1.85495087840666E-02
 cg2d: Sum(rhs),rhsMax =   4.52247905791126E-10  1.85488171977996E-02
 cg2d: Sum(rhs),rhsMax =   4.52298226649717E-10  1.85481195835978E-02
 cg2d: Sum(rhs),rhsMax =   4.52365769842977E-10  1.85474173092717E-02
 cg2d: Sum(rhs),rhsMax =   4.52431328512581E-10  1.85467117435571E-02
 cg2d: Sum(rhs),rhsMax =   4.52486756397086E-10  1.85460042490052E-02
 cg2d: Sum(rhs),rhsMax =   4.52548915008677E-10  1.85452961754915E-02
 cg2d: Sum(rhs),rhsMax =   4.52604703715664E-10  1.85445888522792E-02
 cg2d: Sum(rhs),rhsMax =   4.52667486827707E-10  1.85438835854298E-02
 cg2d: Sum(rhs),rhsMax =   4.52725509858531E-10  1.85431816491961E-02
 cg2d: Sum(rhs),rhsMax =   4.52793580407729E-10  1.85424842786258E-02
 cg2d: Sum(rhs),rhsMax =   4.52854267973812E-10  1.85417926444790E-02
 cg2d: Sum(rhs),rhsMax =   4.52906975811906E-10  1.85411078478833E-02
 cg2d: Sum(rhs),rhsMax =   4.52966206210270E-10  1.85404323069978E-02
 cg2d: Sum(rhs),rhsMax =   4.53026283153690E-10  1.85397718413476E-02
 cg2d: Sum(rhs),rhsMax =   4.53084667006998E-10  1.85391273690567E-02
 cg2d: Sum(rhs),rhsMax =   4.53132920075205E-10  1.85384994689347E-02
 cg2d: Sum(rhs),rhsMax =   4.53184184623368E-10  1.85378886829572E-02
 cg2d: Sum(rhs),rhsMax =   4.53241902342860E-10  1.85372954384098E-02
 cg2d: Sum(rhs),rhsMax =   4.53300078029351E-10  1.85367200480916E-02
 cg2d: Sum(rhs),rhsMax =   4.53373782960398E-10  1.85361627041261E-02
 cg2d: Sum(rhs),rhsMax =   4.53430001878807E-10  1.85356234821694E-02
 cg2d: Sum(rhs),rhsMax =   4.53477172479566E-10  1.85351023441902E-02
 cg2d: Sum(rhs),rhsMax =   4.53529963584387E-10  1.85345991344991E-02
 cg2d: Sum(rhs),rhsMax =   4.53587958859636E-10  1.85341135917223E-02
 cg2d: Sum(rhs),rhsMax =   4.53631576746716E-10  1.85336453385817E-02
 cg2d: Sum(rhs),rhsMax =   4.53676693434879E-10  1.85331939002655E-02
 cg2d: Sum(rhs),rhsMax =   4.53725126914328E-10  1.85327586970703E-02
 cg2d: Sum(rhs),rhsMax =   4.53775586550798E-10  1.85323390588711E-02
 cg2d: Sum(rhs),rhsMax =   4.53833678970561E-10  1.85319342292221E-02
 cg2d: Sum(rhs),rhsMax =   4.53884582696240E-10  1.85315433278644E-02
 cg2d: Sum(rhs),rhsMax =   4.53920720455692E-10  1.85311654118849E-02
 cg2d: Sum(rhs),rhsMax =   4.53981394143987E-10  1.85307994950674E-02
 cg2d: Sum(rhs),rhsMax =   4.54022319740233E-10  1.85304445167991E-02
 cg2d: Sum(rhs),rhsMax =   4.54057638710204E-10  1.85300993611570E-02
 cg2d: Sum(rhs),rhsMax =   4.54096329982612E-10  1.85297628667852E-02
 cg2d: Sum(rhs),rhsMax =   4.54145651640481E-10  1.85294338265350E-02
 cg2d: Sum(rhs),rhsMax =   4.54191406706883E-10  1.85291110031810E-02
 cg2d: Sum(rhs),rhsMax =   4.54238854863398E-10  1.85287931352320E-02
 cg2d: Sum(rhs),rhsMax =   4.54298113017337E-10  1.85284789393214E-02
 cg2d: Sum(rhs),rhsMax =   4.54355261747530E-10  1.85281671212014E-02
 cg2d: Sum(rhs),rhsMax =   4.54396936744317E-10  1.85278563856559E-02
 cg2d: Sum(rhs),rhsMax =   4.54437903973925E-10  1.85275454450604E-02
 cg2d: Sum(rhs),rhsMax =   4.54483131684391E-10  1.85272330258212E-02
 cg2d: Sum(rhs),rhsMax =   4.54536130956029E-10  1.85269178732959E-02
 cg2d: Sum(rhs),rhsMax =   4.54580623143741E-10  1.85265987649950E-02
 cg2d: Sum(rhs),rhsMax =   4.54639575986349E-10  1.85262745124809E-02
 cg2d: Sum(rhs),rhsMax =   4.54694712437309E-10  1.85259439730006E-02
 cg2d: Sum(rhs),rhsMax =   4.54749599088089E-10  1.85256060528949E-02
 cg2d: Sum(rhs),rhsMax =   4.54798920745958E-10  1.85252597160300E-02
 cg2d: Sum(rhs),rhsMax =   4.54852433495745E-10  1.85249039865927E-02
 cg2d: Sum(rhs),rhsMax =   4.54909457325847E-10  1.85245379624361E-02
 cg2d: Sum(rhs),rhsMax =   4.54961013307553E-10  1.85241608095214E-02
 cg2d: Sum(rhs),rhsMax =   4.55016094247362E-10  1.85237717783032E-02
 cg2d: Sum(rhs),rhsMax =   4.55059212534081E-10  1.85233697616328E-02
 cg2d: Sum(rhs),rhsMax =   4.55115611863732E-10  1.85229544031975E-02
 cg2d: Sum(rhs),rhsMax =   4.55166557222775E-10  1.85225253360529E-02
 cg2d: Sum(rhs),rhsMax =   4.55214241301682E-10  1.85220821592457E-02
 cg2d: Sum(rhs),rhsMax =   4.55260537601809E-10  1.85216245707658E-02
 cg2d: Sum(rhs),rhsMax =   4.55314327907352E-10  1.85211523633038E-02
 cg2d: Sum(rhs),rhsMax =   4.55365467555424E-10  1.85206654247487E-02
 cg2d: Sum(rhs),rhsMax =   4.55416052091984E-10  1.85201637357322E-02
 cg2d: Sum(rhs),rhsMax =   4.55481360961407E-10  1.85196473837604E-02
 cg2d: Sum(rhs),rhsMax =   4.55535567600585E-10  1.85191165413722E-02
 cg2d: Sum(rhs),rhsMax =   4.55594673098858E-10  1.85185714898218E-02
 cg2d: Sum(rhs),rhsMax =   4.55662230169906E-10  1.85180126013634E-02
 cg2d: Sum(rhs),rhsMax =   4.55724791237344E-10  1.85174403412987E-02
 cg2d: Sum(rhs),rhsMax =   4.55767687479458E-10  1.85168552654186E-02
 cg2d: Sum(rhs),rhsMax =   4.55829388124052E-10  1.85162580162916E-02
 cg2d: Sum(rhs),rhsMax =   4.55898041540337E-10  1.85156672559480E-02
 cg2d: Sum(rhs),rhsMax =   4.55940965538026E-10  1.85151634965352E-02
 cg2d: Sum(rhs),rhsMax =   4.56002027804381E-10  1.85146535158735E-02
 cg2d: Sum(rhs),rhsMax =   4.56064269682699E-10  1.85141327289129E-02
 cg2d: Sum(rhs),rhsMax =   4.56111343138943E-10  1.85136027160318E-02
 cg2d: Sum(rhs),rhsMax =   4.56163343209859E-10  1.85130638475940E-02
 cg2d: Sum(rhs),rhsMax =   4.56199314435857E-10  1.85125163747018E-02
 cg2d: Sum(rhs),rhsMax =   4.56265872306183E-10  1.85119606187295E-02
 cg2d: Sum(rhs),rhsMax =   4.56330070952582E-10  1.85113969613594E-02
 cg2d: Sum(rhs),rhsMax =   4.56385637614964E-10  1.85108258417633E-02
 cg2d: Sum(rhs),rhsMax =   4.56440635288047E-10  1.85102477485033E-02
 cg2d: Sum(rhs),rhsMax =   4.56497686873725E-10  1.85096632217644E-02
 cg2d: Sum(rhs),rhsMax =   4.56547369354077E-10  1.85090728494692E-02
 cg2d: Sum(rhs),rhsMax =   4.56598397979846E-10  1.85084772643352E-02
 cg2d: Sum(rhs),rhsMax =   4.56652035629723E-10  1.85078771400672E-02
 cg2d: Sum(rhs),rhsMax =   4.56708074136891E-10  1.85072731920682E-02
 cg2d: Sum(rhs),rhsMax =   4.56760948508439E-10  1.85066661685679E-02
 cg2d: Sum(rhs),rhsMax =   4.56818402549963E-10  1.85060568521956E-02
 cg2d: Sum(rhs),rhsMax =   4.56862159214921E-10  1.85054460524958E-02
 cg2d: Sum(rhs),rhsMax =   4.56915921764889E-10  1.85048346049666E-02
 cg2d: Sum(rhs),rhsMax =   4.56983020868940E-10  1.85042233680037E-02
 cg2d: Sum(rhs),rhsMax =   4.57036686274392E-10  1.85036132136342E-02
 cg2d: Sum(rhs),rhsMax =   4.57093529693253E-10  1.85030050293970E-02
 cg2d: Sum(rhs),rhsMax =   4.57155591160330E-10  1.85023997156831E-02
 cg2d: Sum(rhs),rhsMax =   4.57211116189349E-10  1.85017981680803E-02
 cg2d: Sum(rhs),rhsMax =   4.57263810149655E-10  1.85012012912441E-02
 cg2d: Sum(rhs),rhsMax =   4.57307594570189E-10  1.85006099994009E-02
 cg2d: Sum(rhs),rhsMax =   4.57373403039973E-10  1.85000251897257E-02
 cg2d: Sum(rhs),rhsMax =   4.57429510936080E-10  1.84994477494094E-02
 cg2d: Sum(rhs),rhsMax =   4.57480914262121E-10  1.84988852359901E-02
 cg2d: Sum(rhs),rhsMax =   4.57538104625677E-10  1.84983399690589E-02
 cg2d: Sum(rhs),rhsMax =   4.57590715319256E-10  1.84978126692498E-02
 cg2d: Sum(rhs),rhsMax =   4.57647572615905E-10  1.84973040092092E-02
 cg2d: Sum(rhs),rhsMax =   4.57700571887543E-10  1.84968145976372E-02
 cg2d: Sum(rhs),rhsMax =   4.57753043803244E-10  1.84963449640518E-02
 cg2d: Sum(rhs),rhsMax =   4.57797980080166E-10  1.84958955462887E-02
 cg2d: Sum(rhs),rhsMax =   4.57854879010178E-10  1.84954666895158E-02
 cg2d: Sum(rhs),rhsMax =   4.57902146755451E-10  1.84950586486913E-02
 cg2d: Sum(rhs),rhsMax =   4.57954785204606E-10  1.84946715853886E-02
 cg2d: Sum(rhs),rhsMax =   4.58009505321932E-10  1.84943055718094E-02
 cg2d: Sum(rhs),rhsMax =   4.58072274556187E-10  1.84939605872991E-02
 cg2d: Sum(rhs),rhsMax =   4.58112270340649E-10  1.84936365229133E-02
 cg2d: Sum(rhs),rhsMax =   4.58159718497164E-10  1.84933331835458E-02
 cg2d: Sum(rhs),rhsMax =   4.58197313424336E-10  1.84930502865073E-02
 cg2d: Sum(rhs),rhsMax =   4.58242208067894E-10  1.84927874678207E-02
 cg2d: Sum(rhs),rhsMax =   4.58285617788157E-10  1.84925442838376E-02
 cg2d: Sum(rhs),rhsMax =   4.58332469199796E-10  1.84923202156003E-02
 cg2d: Sum(rhs),rhsMax =   4.58370522093965E-10  1.84921146695403E-02
 cg2d: Sum(rhs),rhsMax =   4.58412169335176E-10  1.84919269856830E-02
 cg2d: Sum(rhs),rhsMax =   4.58456522745010E-10  1.84917564407125E-02
 cg2d: Sum(rhs),rhsMax =   4.58504290090644E-10  1.84916022506021E-02
 cg2d: Sum(rhs),rhsMax =   4.58555346471989E-10  1.84914635792741E-02
 cg2d: Sum(rhs),rhsMax =   4.58603918729317E-10  1.84913395379548E-02
 cg2d: Sum(rhs),rhsMax =   4.58643609202447E-10  1.84912291990268E-02
 cg2d: Sum(rhs),rhsMax =   4.58684784598873E-10  1.84911315953834E-02
 cg2d: Sum(rhs),rhsMax =   4.58722851370830E-10  1.84910457230076E-02
 cg2d: Sum(rhs),rhsMax =   4.58762750010777E-10  1.84909705559135E-02
 cg2d: Sum(rhs),rhsMax =   4.58801011071763E-10  1.84909050462777E-02
 cg2d: Sum(rhs),rhsMax =   4.58836468819612E-10  1.84908481279031E-02
 cg2d: Sum(rhs),rhsMax =   4.58890592192063E-10  1.84907987290306E-02
 Computing Diagnostic #    26 "THETA   " (list#  1) Parms "SMR     MR      ", Count=     144
 Computing Diagnostic #    27 "SALT    " (list#  1) Parms "SMR     MR      ", Count=     144
 Computing Diagnostic #    30 "UVEL    " (list#  1) Parms "UUR     MR      ", Count=     144
             Vector  Mate for "UVEL    " :  Diagnostic #     31 "VVEL    " exists
 Computing Diagnostic #    32 "WVEL    " (list#  1) Parms "WM      LR      ", Count=     144
 Computing Diagnostic #    31 "VVEL    " (list#  1) Parms "VVR     MR      ", Count=     144
             Vector  Mate for "VVEL    " :  Diagnostic #     30 "UVEL    " exists
 Computing Diagnostic #   197 "BRGfwFlx" (list#  2) Parms "SM      MR      ", Count=     144
 Computing Diagnostic #   198 "BRGhtFlx" (list#  2) Parms "SM      MR      ", Count=     144
 Computing Diagnostic #   199 "BRGmltRt" (list#  2) Parms "SM      MR      ", Count=     144
 Computing Diagnostic #   201 "BRG_TauX" (list#  2) Parms "UU      MR      ", Count=    1728
 Computing Diagnostic #   202 "BRG_TauY" (list#  2) Parms "VV      MR      ", Count=    1728
 Computing Diagnostic #   203 "BRGhFacC" (list#  2) Parms "SM      MR      ", Count=    1728
 cg2d: Sum(rhs),rhsMax =   4.58930060620588E-10  1.84907557697459E-02
 cg2d: Sum(rhs),rhsMax =   4.58978410833311E-10  1.84907182088789E-02
 cg2d: Sum(rhs),rhsMax =   4.59009497078000E-10  1.84906849752271E-02
 cg2d: Sum(rhs),rhsMax =   4.59053878243409E-10  1.84906550137835E-02
 cg2d: Sum(rhs),rhsMax =   4.59086393900243E-10  1.84906272537063E-02
 cg2d: Sum(rhs),rhsMax =   4.59125390483983E-10  1.84906006493539E-02
 cg2d: Sum(rhs),rhsMax =   4.59162777244337E-10  1.84905742156596E-02
 cg2d: Sum(rhs),rhsMax =   4.59192017743248E-10  1.84905470014523E-02
 cg2d: Sum(rhs),rhsMax =   4.59236537686536E-10  1.84905180919377E-02
 cg2d: Sum(rhs),rhsMax =   4.59283736042870E-10  1.84904866150842E-02
 cg2d: Sum(rhs),rhsMax =   4.59326632284984E-10  1.84904517416006E-02
 cg2d: Sum(rhs),rhsMax =   4.59372054284479E-10  1.84904126894540E-02
 cg2d: Sum(rhs),rhsMax =   4.59430313237696E-10  1.84903687348515E-02
 cg2d: Sum(rhs),rhsMax =   4.59458471269159E-10  1.84903191985250E-02
 cg2d: Sum(rhs),rhsMax =   4.59498106231138E-10  1.84902634651211E-02
 cg2d: Sum(rhs),rhsMax =   4.59530663521335E-10  1.84902009753817E-02
 cg2d: Sum(rhs),rhsMax =   4.59572893629634E-10  1.84901312281275E-02
 cg2d: Sum(rhs),rhsMax =   4.59604451719109E-10  1.84900537878733E-02
 cg2d: Sum(rhs),rhsMax =   4.59652885198558E-10  1.84899682782420E-02
 cg2d: Sum(rhs),rhsMax =   4.59698445975931E-10  1.84898743865718E-02
 cg2d: Sum(rhs),rhsMax =   4.59733182078814E-10  1.84897718644507E-02
 cg2d: Sum(rhs),rhsMax =   4.59773288885579E-10  1.84896605245117E-02
 cg2d: Sum(rhs),rhsMax =   4.59810023389906E-10  1.84895402434301E-02
 cg2d: Sum(rhs),rhsMax =   4.59841553723805E-10  1.84894109573678E-02
 cg2d: Sum(rhs),rhsMax =   4.59887156134542E-10  1.84892726634288E-02
 cg2d: Sum(rhs),rhsMax =   4.59933105489974E-10  1.84891254173730E-02
 cg2d: Sum(rhs),rhsMax =   4.59981233658091E-10  1.84889693740214E-02
 cg2d: Sum(rhs),rhsMax =   4.60017593462148E-10  1.84888046362840E-02
 cg2d: Sum(rhs),rhsMax =   4.60063695473245E-10  1.84886314344049E-02
 cg2d: Sum(rhs),rhsMax =   4.60100818555631E-10  1.84884500463810E-02
 cg2d: Sum(rhs),rhsMax =   4.60148308345509E-10  1.84882607854338E-02
 cg2d: Sum(rhs),rhsMax =   4.60205054619856E-10  1.84880640035760E-02
 cg2d: Sum(rhs),rhsMax =   4.60248283928877E-10  1.84878600950973E-02
 cg2d: Sum(rhs),rhsMax =   4.60294080628643E-10  1.84876494876404E-02
 cg2d: Sum(rhs),rhsMax =   4.60337212793149E-10  1.84874326391807E-02
 cg2d: Sum(rhs),rhsMax =   4.60378887789936E-10  1.84872100354101E-02
 cg2d: Sum(rhs),rhsMax =   4.60417440284466E-10  1.84869821844814E-02
 cg2d: Sum(rhs),rhsMax =   4.60463930873622E-10  1.84867496165881E-02
 cg2d: Sum(rhs),rhsMax =   4.60510490851718E-10  1.84865128633890E-02
 cg2d: Sum(rhs),rhsMax =   4.60567167737125E-10  1.84862724832964E-02
 cg2d: Sum(rhs),rhsMax =   4.60618765352194E-10  1.84860290460851E-02
 cg2d: Sum(rhs),rhsMax =   4.60659468903835E-10  1.84857831091526E-02
 cg2d: Sum(rhs),rhsMax =   4.60720586681340E-10  1.84855352251506E-02
 cg2d: Sum(rhs),rhsMax =   4.60766133580925E-10  1.84852859425066E-02
 cg2d: Sum(rhs),rhsMax =   4.60815385849855E-10  1.84850358065881E-02
 cg2d: Sum(rhs),rhsMax =   4.60858379236484E-10  1.84847853510077E-02
 cg2d: Sum(rhs),rhsMax =   4.60894253317967E-10  1.84845350999886E-02
 cg2d: Sum(rhs),rhsMax =   4.60941826374572E-10  1.84842855416305E-02
 cg2d: Sum(rhs),rhsMax =   4.60986110395467E-10  1.84840371336497E-02
 cg2d: Sum(rhs),rhsMax =   4.61041135824125E-10  1.84837903511174E-02
 cg2d: Sum(rhs),rhsMax =   4.61091914649714E-10  1.84835456038202E-02
 cg2d: Sum(rhs),rhsMax =   4.61144969432503E-10  1.84833032734195E-02
 cg2d: Sum(rhs),rhsMax =   4.61182786404279E-10  1.84830637138947E-02
 cg2d: Sum(rhs),rhsMax =   4.61233551352080E-10  1.84828272367462E-02
 cg2d: Sum(rhs),rhsMax =   4.61273574892118E-10  1.84825941028672E-02
 cg2d: Sum(rhs),rhsMax =   4.61318053202042E-10  1.84823645549833E-02
 cg2d: Sum(rhs),rhsMax =   4.61371996163251E-10  1.84821388335654E-02
 cg2d: Sum(rhs),rhsMax =   4.61414989549880E-10  1.84819171101499E-02
 cg2d: Sum(rhs),rhsMax =   4.61463200984724E-10  1.84816994938178E-02
 cg2d: Sum(rhs),rhsMax =   4.61506777238441E-10  1.84814860491277E-02
 cg2d: Sum(rhs),rhsMax =   4.61546051377937E-10  1.84812768114409E-02
 cg2d: Sum(rhs),rhsMax =   4.61593915868086E-10  1.84810717748161E-02
 cg2d: Sum(rhs),rhsMax =   4.61624918846049E-10  1.84808708953001E-02
 cg2d: Sum(rhs),rhsMax =   4.61663929307576E-10  1.84806786635375E-02
 cg2d: Sum(rhs),rhsMax =   4.61727434064585E-10  1.84805497830836E-02
 cg2d: Sum(rhs),rhsMax =   4.61755175762413E-10  1.84804232008113E-02
 cg2d: Sum(rhs),rhsMax =   4.61795532369358E-10  1.84802956069265E-02
 cg2d: Sum(rhs),rhsMax =   4.61838928211833E-10  1.84801676731043E-02
 cg2d: Sum(rhs),rhsMax =   4.61887486591372E-10  1.84800392457693E-02
 cg2d: Sum(rhs),rhsMax =   4.61929577921794E-10  1.84799100642312E-02
 cg2d: Sum(rhs),rhsMax =   4.61968588383321E-10  1.84797798763892E-02
 cg2d: Sum(rhs),rhsMax =   4.62014690394419E-10  1.84796484305963E-02
 cg2d: Sum(rhs),rhsMax =   4.62061860995178E-10  1.84795154705997E-02
 cg2d: Sum(rhs),rhsMax =   4.62104562948262E-10  1.84793807508780E-02
 cg2d: Sum(rhs),rhsMax =   4.62143892598910E-10  1.84792440193576E-02
 cg2d: Sum(rhs),rhsMax =   4.62192437100661E-10  1.84791050194254E-02
 cg2d: Sum(rhs),rhsMax =   4.62234306386478E-10  1.84789634942699E-02
 cg2d: Sum(rhs),rhsMax =   4.62285987268274E-10  1.84788191892619E-02
 cg2d: Sum(rhs),rhsMax =   4.62323609951021E-10  1.84786718528094E-02
 cg2d: Sum(rhs),rhsMax =   4.62362426123519E-10  1.84785212378179E-02
 cg2d: Sum(rhs),rhsMax =   4.62408028534256E-10  1.84783671011090E-02
 cg2d: Sum(rhs),rhsMax =   4.62447177773662E-10  1.84782092219644E-02
 cg2d: Sum(rhs),rhsMax =   4.62505686527059E-10  1.84780473626243E-02
 cg2d: Sum(rhs),rhsMax =   4.62546168034095E-10  1.84778812792306E-02
 cg2d: Sum(rhs),rhsMax =   4.62589841432326E-10  1.84777107510885E-02
 cg2d: Sum(rhs),rhsMax =   4.62638496956380E-10  1.84775355752108E-02
 cg2d: Sum(rhs),rhsMax =   4.62681754020977E-10  1.84773555579774E-02
 cg2d: Sum(rhs),rhsMax =   4.62724164540518E-10  1.84771705061282E-02
 cg2d: Sum(rhs),rhsMax =   4.62762272945838E-10  1.84769802434819E-02
 cg2d: Sum(rhs),rhsMax =   4.62805682666101E-10  1.84767845984910E-02
 cg2d: Sum(rhs),rhsMax =   4.62851520999230E-10  1.84765834098084E-02
 cg2d: Sum(rhs),rhsMax =   4.62894916841705E-10  1.84763765290723E-02
 cg2d: Sum(rhs),rhsMax =   4.62937729817092E-10  1.84761638177110E-02
 cg2d: Sum(rhs),rhsMax =   4.62985649818393E-10  1.84759451511117E-02
 cg2d: Sum(rhs),rhsMax =   4.63024993346828E-10  1.84757204138073E-02
 cg2d: Sum(rhs),rhsMax =   4.63079727341942E-10  1.84754895079885E-02
 cg2d: Sum(rhs),rhsMax =   4.63112270754351E-10  1.84752523423843E-02
 cg2d: Sum(rhs),rhsMax =   4.63164909203506E-10  1.84750088461727E-02
 cg2d: Sum(rhs),rhsMax =   4.63194885225171E-10  1.84747589595793E-02
 cg2d: Sum(rhs),rhsMax =   4.63248425730534E-10  1.84745026369945E-02
 cg2d: Sum(rhs),rhsMax =   4.63283703067141E-10  1.84742398458450E-02
 cg2d: Sum(rhs),rhsMax =   4.63322963328849E-10  1.84739705706326E-02
 cg2d: Sum(rhs),rhsMax =   4.63369939640579E-10  1.84736948053724E-02
 cg2d: Sum(rhs),rhsMax =   4.63407215378631E-10  1.84734125614290E-02
 cg2d: Sum(rhs),rhsMax =   4.63470345435368E-10  1.84731238681872E-02
 cg2d: Sum(rhs),rhsMax =   4.63515614779197E-10  1.84728287689819E-02
 cg2d: Sum(rhs),rhsMax =   4.63578647691421E-10  1.84725272773003E-02
 cg2d: Sum(rhs),rhsMax =   4.63625970947845E-10  1.84722194928050E-02
 cg2d: Sum(rhs),rhsMax =   4.63676472217678E-10  1.84719054956600E-02
 cg2d: Sum(rhs),rhsMax =   4.63729804556223E-10  1.84715853701831E-02
 cg2d: Sum(rhs),rhsMax =   4.63777294346102E-10  1.84712592229656E-02
 cg2d: Sum(rhs),rhsMax =   4.63818927709525E-10  1.84709271755922E-02
 cg2d: Sum(rhs),rhsMax =   4.63871940858951E-10  1.84705893566647E-02
 cg2d: Sum(rhs),rhsMax =   4.63917529391900E-10  1.84702459104471E-02
 cg2d: Sum(rhs),rhsMax =   4.63968016783944E-10  1.84698969882334E-02
 cg2d: Sum(rhs),rhsMax =   4.64019836443619E-10  1.84695427553822E-02
 cg2d: Sum(rhs),rhsMax =   4.64069740968576E-10  1.84691833987969E-02
 cg2d: Sum(rhs),rhsMax =   4.64126723165315E-10  1.84688190979775E-02
 cg2d: Sum(rhs),rhsMax =   4.64169550018489E-10  1.84684500538247E-02
 cg2d: Sum(rhs),rhsMax =   4.64215027529136E-10  1.84680764801430E-02
 cg2d: Sum(rhs),rhsMax =   4.64261240562536E-10  1.84676985951897E-02
 cg2d: Sum(rhs),rhsMax =   4.64332572391868E-10  1.84673149234977E-02
 cg2d: Sum(rhs),rhsMax =   4.64378216435968E-10  1.84669275659867E-02
 cg2d: Sum(rhs),rhsMax =   4.64440957914647E-10  1.84665352145335E-02
 cg2d: Sum(rhs),rhsMax =   4.64496302532424E-10  1.84661399691664E-02
 cg2d: Sum(rhs),rhsMax =   4.64543514766547E-10  1.84657405398935E-02
 cg2d: Sum(rhs),rhsMax =   4.64604091310328E-10  1.84653390417000E-02
 cg2d: Sum(rhs),rhsMax =   4.64656993437451E-10  1.84649341940453E-02
 cg2d: Sum(rhs),rhsMax =   4.64711033543175E-10  1.84645281389388E-02
 cg2d: Sum(rhs),rhsMax =   4.64764823848718E-10  1.84641195988438E-02
 cg2d: Sum(rhs),rhsMax =   4.64809621347761E-10  1.84637107045746E-02
 cg2d: Sum(rhs),rhsMax =   4.64857666249152E-10  1.84633001880488E-02
 cg2d: Sum(rhs),rhsMax =   4.64905378083635E-10  1.84628901895407E-02
 cg2d: Sum(rhs),rhsMax =   4.64964344804031E-10  1.84624794334030E-02
 cg2d: Sum(rhs),rhsMax =   4.65003410776710E-10  1.84620692607327E-02
 cg2d: Sum(rhs),rhsMax =   4.65045224551375E-10  1.84616590204857E-02
 cg2d: Sum(rhs),rhsMax =   4.65098862201252E-10  1.84612489653248E-02
 cg2d: Sum(rhs),rhsMax =   4.65151375750317E-10  1.84608394106629E-02
 cg2d: Sum(rhs),rhsMax =   4.65193550347465E-10  1.84604306616709E-02
 cg2d: Sum(rhs),rhsMax =   4.65241456470977E-10  1.84600230192364E-02
 cg2d: Sum(rhs),rhsMax =   4.65298577445594E-10  1.84596167870957E-02
 cg2d: Sum(rhs),rhsMax =   4.65350771805539E-10  1.84592122621271E-02
 cg2d: Sum(rhs),rhsMax =   4.65395250115463E-10  1.84588097439034E-02
 cg2d: Sum(rhs),rhsMax =   4.65445071373694E-10  1.84584095278589E-02
 Computing Diagnostic #    26 "THETA   " (list#  1) Parms "SMR     MR      ", Count=     144
 Computing Diagnostic #    27 "SALT    " (list#  1) Parms "SMR     MR      ", Count=     144
 Computing Diagnostic #    30 "UVEL    " (list#  1) Parms "UUR     MR      ", Count=     144
             Vector  Mate for "UVEL    " :  Diagnostic #     31 "VVEL    " exists
 Computing Diagnostic #    32 "WVEL    " (list#  1) Parms "WM      LR      ", Count=     144
 Computing Diagnostic #    31 "VVEL    " (list#  1) Parms "VVR     MR      ", Count=     144
             Vector  Mate for "VVEL    " :  Diagnostic #     30 "UVEL    " exists
 Computing Diagnostic #   197 "BRGfwFlx" (list#  2) Parms "SM      MR      ", Count=     144
 Computing Diagnostic #   198 "BRGhtFlx" (list#  2) Parms "SM      MR      ", Count=     144
 Computing Diagnostic #   199 "BRGmltRt" (list#  2) Parms "SM      MR      ", Count=     144
 Computing Diagnostic #   201 "BRG_TauX" (list#  2) Parms "UU      MR      ", Count=    1728
 Computing Diagnostic #   202 "BRG_TauY" (list#  2) Parms "VV      MR      ", Count=    1728
 Computing Diagnostic #   203 "BRGhFacC" (list#  2) Parms "SM      MR      ", Count=    1728
 cg2d: Sum(rhs),rhsMax =   4.65505814450928E-10  1.84580119061533E-02
 cg2d: Sum(rhs),rhsMax =   4.65546878825052E-10  1.84576171664814E-02
 cg2d: Sum(rhs),rhsMax =   4.65594132692537E-10  1.84572255952821E-02
 cg2d: Sum(rhs),rhsMax =   4.65627938983637E-10  1.84568374717101E-02
 cg2d: Sum(rhs),rhsMax =   4.65679717009948E-10  1.84564530718615E-02
 cg2d: Sum(rhs),rhsMax =   4.65728830501000E-10  1.84560726648886E-02
 cg2d: Sum(rhs),rhsMax =   4.65770519375575E-10  1.84556965161136E-02
 cg2d: Sum(rhs),rhsMax =   4.65813818073535E-10  1.84553248815977E-02
 cg2d: Sum(rhs),rhsMax =   4.65861835219350E-10  1.84549580135308E-02
 cg2d: Sum(rhs),rhsMax =   4.65910490743404E-10  1.84545961540119E-02
 cg2d: Sum(rhs),rhsMax =   4.65961769169354E-10  1.84542395380631E-02
 cg2d: Sum(rhs),rhsMax =   4.66013796995846E-10  1.84538883921666E-02
 cg2d: Sum(rhs),rhsMax =   4.66056165882023E-10  1.84535429350272E-02
 cg2d: Sum(rhs),rhsMax =   4.66112287655918E-10  1.84532033747835E-02
 cg2d: Sum(rhs),rhsMax =   4.66162691781236E-10  1.84528699106917E-02
 cg2d: Sum(rhs),rhsMax =   4.66213637140278E-10  1.84525427328158E-02
 cg2d: Sum(rhs),rhsMax =   4.66252605968442E-10  1.84522220173894E-02
 cg2d: Sum(rhs),rhsMax =   4.66308644475610E-10  1.84519079318074E-02
 cg2d: Sum(rhs),rhsMax =   4.66346614103053E-10  1.84516006338791E-02
 cg2d: Sum(rhs),rhsMax =   4.66388497266657E-10  1.84513002657290E-02
 cg2d: Sum(rhs),rhsMax =   4.66433822121637E-10  1.84510069608276E-02
 cg2d: Sum(rhs),rhsMax =   4.66485308714404E-10  1.84507208345452E-02
 cg2d: Sum(rhs),rhsMax =   4.66536323462385E-10  1.84504419941168E-02
 cg2d: Sum(rhs),rhsMax =   4.66570143631273E-10  1.84501705305743E-02
 cg2d: Sum(rhs),rhsMax =   4.66619923256140E-10  1.84499065189325E-02
 cg2d: Sum(rhs),rhsMax =   4.66665858733784E-10  1.84496500244569E-02
 cg2d: Sum(rhs),rhsMax =   4.66715749380953E-10  1.84494010923398E-02
 cg2d: Sum(rhs),rhsMax =   4.66761115869296E-10  1.84491597574032E-02
 cg2d: Sum(rhs),rhsMax =   4.66797211995384E-10  1.84489260380928E-02
 cg2d: Sum(rhs),rhsMax =   4.66839039647837E-10  1.84486999350137E-02
 cg2d: Sum(rhs),rhsMax =   4.66886140859657E-10  1.84484814371532E-02
 cg2d: Sum(rhs),rhsMax =   4.66937585819061E-10  1.84482705164052E-02
 cg2d: Sum(rhs),rhsMax =   4.66983632319007E-10  1.84480671299142E-02
 cg2d: Sum(rhs),rhsMax =   4.67038421825272E-10  1.84478712171501E-02
 cg2d: Sum(rhs),rhsMax =   4.67079222521427E-10  1.84476827054233E-02
 cg2d: Sum(rhs),rhsMax =   4.67117858282684E-10  1.84475015047867E-02
 cg2d: Sum(rhs),rhsMax =   4.67152302952023E-10  1.84473275017681E-02
 cg2d: Sum(rhs),rhsMax =   4.67184554930888E-10  1.84471605819518E-02
 cg2d: Sum(rhs),rhsMax =   4.67231378586952E-10  1.84470006158132E-02
 cg2d: Sum(rhs),rhsMax =   4.67287236682878E-10  1.84468474509534E-02
 cg2d: Sum(rhs),rhsMax =   4.67342484156141E-10  1.84467009182112E-02
 cg2d: Sum(rhs),rhsMax =   4.67397731629404E-10  1.84465608365288E-02
 cg2d: Sum(rhs),rhsMax =   4.67434063677885E-10  1.84464270117347E-02
 cg2d: Sum(rhs),rhsMax =   4.67469410403432E-10  1.84462998741406E-02
 cg2d: Sum(rhs),rhsMax =   4.67517996538547E-10  1.84461795554863E-02
 cg2d: Sum(rhs),rhsMax =   4.67563335271315E-10  1.84460657185029E-02
 cg2d: Sum(rhs),rhsMax =   4.67596586450902E-10  1.84459580009134E-02
 cg2d: Sum(rhs),rhsMax =   4.67634653222859E-10  1.84458560398878E-02
 cg2d: Sum(rhs),rhsMax =   4.67668612169625E-10  1.84457594681534E-02
 cg2d: Sum(rhs),rhsMax =   4.67701904982576E-10  1.84456679264458E-02
 cg2d: Sum(rhs),rhsMax =   4.67740193799138E-10  1.84455810124130E-02
 cg2d: Sum(rhs),rhsMax =   4.67774277645994E-10  1.84454983604280E-02
 cg2d: Sum(rhs),rhsMax =   4.67811900328741E-10  1.84454195746554E-02
 cg2d: Sum(rhs),rhsMax =   4.67865149400559E-10  1.84453442540480E-02
 cg2d: Sum(rhs),rhsMax =   4.67908128909400E-10  1.84452720005738E-02
 cg2d: Sum(rhs),rhsMax =   4.67957478322845E-10  1.84452024053824E-02
 cg2d: Sum(rhs),rhsMax =   4.67996114084102E-10  1.84451350628234E-02
 cg2d: Sum(rhs),rhsMax =   4.68054359159531E-10  1.84450695630642E-02
 cg2d: Sum(rhs),rhsMax =   4.68084238036681E-10  1.84450054935404E-02
 cg2d: Sum(rhs),rhsMax =   4.68135558095994E-10  1.84449424452751E-02
 cg2d: Sum(rhs),rhsMax =   4.68176900025874E-10  1.84448800390286E-02
 cg2d: Sum(rhs),rhsMax =   4.68220337501712E-10  1.84448178664562E-02
 cg2d: Sum(rhs),rhsMax =   4.68265023978454E-10  1.84447555232714E-02
 cg2d: Sum(rhs),rhsMax =   4.68301009082239E-10  1.84446926040024E-02
 cg2d: Sum(rhs),rhsMax =   4.68339755865799E-10  1.84446287106781E-02
 cg2d: Sum(rhs),rhsMax =   4.68379876550351E-10  1.84445634473501E-02
 cg2d: Sum(rhs),rhsMax =   4.68431932132418E-10  1.84444964260878E-02
 cg2d: Sum(rhs),rhsMax =   4.68479671722477E-10  1.84444272629966E-02
 cg2d: Sum(rhs),rhsMax =   4.68521096919083E-10  1.84443555821702E-02
 cg2d: Sum(rhs),rhsMax =   4.68572292078306E-10  1.84442810164851E-02
 cg2d: Sum(rhs),rhsMax =   4.68623514993105E-10  1.84442032079136E-02
 cg2d: Sum(rhs),rhsMax =   4.68661193187003E-10  1.84441218072076E-02
 cg2d: Sum(rhs),rhsMax =   4.68706531919771E-10  1.84440364774115E-02
 cg2d: Sum(rhs),rhsMax =   4.68742586412496E-10  1.84439468891812E-02
 cg2d: Sum(rhs),rhsMax =   4.68789451701923E-10  1.84438527299118E-02
 cg2d: Sum(rhs),rhsMax =   4.68832056510493E-10  1.84437536975677E-02
 cg2d: Sum(rhs),rhsMax =   4.68872010661592E-10  1.84436495016232E-02
 cg2d: Sum(rhs),rhsMax =   4.68913879947408E-10  1.84435398662750E-02
 cg2d: Sum(rhs),rhsMax =   4.68944952314310E-10  1.84434245342652E-02
 cg2d: Sum(rhs),rhsMax =   4.68986488533218E-10  1.84433032585625E-02
 cg2d: Sum(rhs),rhsMax =   4.69018879289962E-10  1.84431758138346E-02
 cg2d: Sum(rhs),rhsMax =   4.69062774732798E-10  1.84430419860297E-02
 cg2d: Sum(rhs),rhsMax =   4.69108835110532E-10  1.84429015819113E-02
 cg2d: Sum(rhs),rhsMax =   4.69155714277747E-10  1.84427544240364E-02
 cg2d: Sum(rhs),rhsMax =   4.69201677510966E-10  1.84426003006274E-02
 cg2d: Sum(rhs),rhsMax =   4.69261185465086E-10  1.84424392049581E-02
 cg2d: Sum(rhs),rhsMax =   4.69308314432482E-10  1.84422709333291E-02
 cg2d: Sum(rhs),rhsMax =   4.69367669730936E-10  1.84420953563348E-02
 cg2d: Sum(rhs),rhsMax =   4.69415173398602E-10  1.84419124130484E-02
 cg2d: Sum(rhs),rhsMax =   4.69455696539001E-10  1.84417220516542E-02
 cg2d: Sum(rhs),rhsMax =   4.69500480160256E-10  1.84415242248145E-02
 cg2d: Sum(rhs),rhsMax =   4.69550995307877E-10  1.84413189060721E-02
 cg2d: Sum(rhs),rhsMax =   4.69599761854234E-10  1.84411060852668E-02
 cg2d: Sum(rhs),rhsMax =   4.69648681056256E-10  1.84408857870702E-02
 cg2d: Sum(rhs),rhsMax =   4.69693978155661E-10  1.84406580549251E-02
 cg2d: Sum(rhs),rhsMax =   4.69741801012447E-10  1.84404229333585E-02
 cg2d: Sum(rhs),rhsMax =   4.69787569956637E-10  1.84401804908309E-02
 cg2d: Sum(rhs),rhsMax =   4.69843955408500E-10  1.84399308256628E-02
 cg2d: Sum(rhs),rhsMax =   4.69882840969937E-10  1.84396740500575E-02
 cg2d: Sum(rhs),rhsMax =   4.69930108715211E-10  1.84394102989151E-02
 cg2d: Sum(rhs),rhsMax =   4.69983246764727E-10  1.84391397215776E-02
 cg2d: Sum(rhs),rhsMax =   4.70031596977449E-10  1.84388624857168E-02
 cg2d: Sum(rhs),rhsMax =   4.70088190596130E-10  1.84385787754734E-02
 cg2d: Sum(rhs),rhsMax =   4.70142452746458E-10  1.84382887923597E-02
 cg2d: Sum(rhs),rhsMax =   4.70198713298231E-10  1.84379927510494E-02
 cg2d: Sum(rhs),rhsMax =   4.70257013884812E-10  1.84376908795265E-02
 cg2d: Sum(rhs),rhsMax =   4.70308028632793E-10  1.84373834246312E-02
 cg2d: Sum(rhs),rhsMax =   4.70361513627005E-10  1.84370706403799E-02
 cg2d: Sum(rhs),rhsMax =   4.70421201992366E-10  1.84367527999396E-02
 cg2d: Sum(rhs),rhsMax =   4.70475824965177E-10  1.84364301774595E-02
 cg2d: Sum(rhs),rhsMax =   4.70545533093336E-10  1.84361030683778E-02
 cg2d: Sum(rhs),rhsMax =   4.70595715174049E-10  1.84357717715464E-02
 cg2d: Sum(rhs),rhsMax =   4.70632269267135E-10  1.84354365986530E-02
 cg2d: Sum(rhs),rhsMax =   4.70685393438863E-10  1.84350978615892E-02
 cg2d: Sum(rhs),rhsMax =   4.70741154390275E-10  1.84347558818926E-02
 cg2d: Sum(rhs),rhsMax =   4.70779110139929E-10  1.84344109848102E-02
 cg2d: Sum(rhs),rhsMax =   4.70826294618476E-10  1.84340635023939E-02
 cg2d: Sum(rhs),rhsMax =   4.70884956027540E-10  1.84337137637971E-02
 cg2d: Sum(rhs),rhsMax =   4.70927394302656E-10  1.84333621032218E-02
 cg2d: Sum(rhs),rhsMax =   4.70984140577002E-10  1.84330088525816E-02
 cg2d: Sum(rhs),rhsMax =   4.71014505176726E-10  1.84326543438035E-02
 cg2d: Sum(rhs),rhsMax =   4.71061689655272E-10  1.84322989594689E-02
 cg2d: Sum(rhs),rhsMax =   4.71112898692283E-10  1.84319431060977E-02
 cg2d: Sum(rhs),rhsMax =   4.71163941195840E-10  1.84315870950071E-02
 cg2d: Sum(rhs),rhsMax =   4.71215247377366E-10  1.84312312421418E-02
 cg2d: Sum(rhs),rhsMax =   4.71270314439387E-10  1.84308758760054E-02
 cg2d: Sum(rhs),rhsMax =   4.71306021987417E-10  1.84305177288706E-02
 cg2d: Sum(rhs),rhsMax =   4.71350125597070E-10  1.84301606731009E-02
 cg2d: Sum(rhs),rhsMax =   4.71404124069430E-10  1.84298050153422E-02
 cg2d: Sum(rhs),rhsMax =   4.71457137218856E-10  1.84294510466320E-02
 cg2d: Sum(rhs),rhsMax =   4.71489763897992E-10  1.84290990588451E-02
 cg2d: Sum(rhs),rhsMax =   4.71541861113423E-10  1.84287493176893E-02
 cg2d: Sum(rhs),rhsMax =   4.71596553475173E-10  1.84284020747011E-02
 cg2d: Sum(rhs),rhsMax =   4.71643751831508E-10  1.84280575689741E-02
 cg2d: Sum(rhs),rhsMax =   4.71692768178045E-10  1.84277160140352E-02
 cg2d: Sum(rhs),rhsMax =   4.71736177898308E-10  1.84273776152948E-02
 cg2d: Sum(rhs),rhsMax =   4.71794298073647E-10  1.84270425524528E-02
 cg2d: Sum(rhs),rhsMax =   4.71838179638695E-10  1.84267109897426E-02
 cg2d: Sum(rhs),rhsMax =   4.71890096442884E-10  1.84263830693747E-02
 cg2d: Sum(rhs),rhsMax =   4.71936684176555E-10  1.84260589142151E-02
 cg2d: Sum(rhs),rhsMax =   4.71988045869232E-10  1.84257386270928E-02
 cg2d: Sum(rhs),rhsMax =   4.72028069409269E-10  1.84254222910039E-02
 cg2d: Sum(rhs),rhsMax =   4.72069910939510E-10  1.84251099665546E-02
 cg2d: Sum(rhs),rhsMax =   4.72122729799906E-10  1.84248016940209E-02
 Computing Diagnostic #    26 "THETA   " (list#  1) Parms "SMR     MR      ", Count=     144
 Computing Diagnostic #    27 "SALT    " (list#  1) Parms "SMR     MR      ", Count=     144
 Computing Diagnostic #    30 "UVEL    " (list#  1) Parms "UUR     MR      ", Count=     144
             Vector  Mate for "UVEL    " :  Diagnostic #     31 "VVEL    " exists
 Computing Diagnostic #    32 "WVEL    " (list#  1) Parms "WM      LR      ", Count=     144
 Computing Diagnostic #    31 "VVEL    " (list#  1) Parms "VVR     MR      ", Count=     144
             Vector  Mate for "VVEL    " :  Diagnostic #     30 "UVEL    " exists
 Computing Diagnostic #   197 "BRGfwFlx" (list#  2) Parms "SM      MR      ", Count=     144
 Computing Diagnostic #   198 "BRGhtFlx" (list#  2) Parms "SM      MR      ", Count=     144
 Computing Diagnostic #   199 "BRGmltRt" (list#  2) Parms "SM      MR      ", Count=     144
 Computing Diagnostic #   201 "BRG_TauX" (list#  2) Parms "UU      MR      ", Count=    1728
 Computing Diagnostic #   202 "BRG_TauY" (list#  2) Parms "VV      MR      ", Count=    1728
 Computing Diagnostic #   203 "BRGhFacC" (list#  2) Parms "SM      MR      ", Count=    1728
 cg2d: Sum(rhs),rhsMax =   4.72171649001929E-10  1.84244974948585E-02
 cg2d: Sum(rhs),rhsMax =   4.72207120627566E-10  1.84241973666485E-02
 cg2d: Sum(rhs),rhsMax =   4.72258246397850E-10  1.84239012905567E-02
 cg2d: Sum(rhs),rhsMax =   4.72314284905018E-10  1.84236092267316E-02
 cg2d: Sum(rhs),rhsMax =   4.72366395998236E-10  1.84233211147619E-02
 cg2d: Sum(rhs),rhsMax =   4.72417077679310E-10  1.84230368738488E-02
 cg2d: Sum(rhs),rhsMax =   4.72461722522688E-10  1.84227564093940E-02
 cg2d: Sum(rhs),rhsMax =   4.72511488269767E-10  1.84224796078599E-02
 cg2d: Sum(rhs),rhsMax =   4.72554398389669E-10  1.84222063391463E-02
 cg2d: Sum(rhs),rhsMax =   4.72594671729887E-10  1.84219364538181E-02
 cg2d: Sum(rhs),rhsMax =   4.72645311777597E-10  1.84216697934676E-02
 cg2d: Sum(rhs),rhsMax =   4.72702099685307E-10  1.84214061814889E-02
 cg2d: Sum(rhs),rhsMax =   4.72750838476088E-10  1.84211454323244E-02
 cg2d: Sum(rhs),rhsMax =   4.72794178807412E-10  1.84208873433522E-02
 cg2d: Sum(rhs),rhsMax =   4.72838532217246E-10  1.84206317053162E-02
 cg2d: Sum(rhs),rhsMax =   4.72889491454076E-10  1.84203782984791E-02
 cg2d: Sum(rhs),rhsMax =   4.72939423734609E-10  1.84201268971590E-02
 cg2d: Sum(rhs),rhsMax =   4.72989925004441E-10  1.84198772616051E-02
 cg2d: Sum(rhs),rhsMax =   4.73037692350076E-10  1.84196291547195E-02
 cg2d: Sum(rhs),rhsMax =   4.73088970776026E-10  1.84193823320783E-02
 cg2d: Sum(rhs),rhsMax =   4.73139069590012E-10  1.84191365404137E-02
 cg2d: Sum(rhs),rhsMax =   4.73179648241562E-10  1.84188915317819E-02
 cg2d: Sum(rhs),rhsMax =   4.73226527408777E-10  1.84186470547843E-02
 cg2d: Sum(rhs),rhsMax =   4.73282302237976E-10  1.84184028575431E-02
 cg2d: Sum(rhs),rhsMax =   4.73333400252685E-10  1.84181586913006E-02
 cg2d: Sum(rhs),rhsMax =   4.73373035214664E-10  1.84179143083824E-02
 cg2d: Sum(rhs),rhsMax =   4.73426547964451E-10  1.84176694678411E-02
 cg2d: Sum(rhs),rhsMax =   4.73469430328777E-10  1.84174239315896E-02
 cg2d: Sum(rhs),rhsMax =   4.73503708464662E-10  1.84171774675700E-02
 cg2d: Sum(rhs),rhsMax =   4.73555250568580E-10  1.84169298540627E-02
 cg2d: Sum(rhs),rhsMax =   4.73595676564464E-10  1.84166808720058E-02
 cg2d: Sum(rhs),rhsMax =   4.73635811126805E-10  1.84164303190106E-02
 cg2d: Sum(rhs),rhsMax =   4.73677971846165E-10  1.84161779946917E-02
 cg2d: Sum(rhs),rhsMax =   4.73732303385432E-10  1.84159237163870E-02
 cg2d: Sum(rhs),rhsMax =   4.73765762731837E-10  1.84156673089431E-02
 cg2d: Sum(rhs),rhsMax =   4.73821135105190E-10  1.84154086105527E-02
 cg2d: Sum(rhs),rhsMax =   4.73853803417690E-10  1.84151474714661E-02
 cg2d: Sum(rhs),rhsMax =   4.73888039920212E-10  1.84148837570827E-02
 cg2d: Sum(rhs),rhsMax =   4.73938013834108E-10  1.84146410196400E-02
 cg2d: Sum(rhs),rhsMax =   4.73988404081638E-10  1.84144202424968E-02
 cg2d: Sum(rhs),rhsMax =   4.74046676912643E-10  1.84141986316616E-02
 cg2d: Sum(rhs),rhsMax =   4.74100286806944E-10  1.84139750847898E-02
 cg2d: Sum(rhs),rhsMax =   4.74149469686935E-10  1.84137496798255E-02
 cg2d: Sum(rhs),rhsMax =   4.74194516986159E-10  1.84135221779479E-02
 cg2d: Sum(rhs),rhsMax =   4.74245531734141E-10  1.84132923103355E-02
 cg2d: Sum(rhs),rhsMax =   4.74289885143975E-10  1.84130598176236E-02
 cg2d: Sum(rhs),rhsMax =   4.74336681044463E-10  1.84128244569244E-02
 cg2d: Sum(rhs),rhsMax =   4.74378938908337E-10  1.84125859895063E-02
 cg2d: Sum(rhs),rhsMax =   4.74433034525212E-10  1.84123441921056E-02
 cg2d: Sum(rhs),rhsMax =   4.74479094902946E-10  1.84120988542993E-02
 cg2d: Sum(rhs),rhsMax =   4.74519729065648E-10  1.84118497636525E-02
 cg2d: Sum(rhs),rhsMax =   4.74567468655707E-10  1.84115967537985E-02
 cg2d: Sum(rhs),rhsMax =   4.74609337941523E-10  1.84113396031764E-02
 cg2d: Sum(rhs),rhsMax =   4.74668915284582E-10  1.84110781312280E-02
 cg2d: Sum(rhs),rhsMax =   4.74720387999561E-10  1.84108121825887E-02
 cg2d: Sum(rhs),rhsMax =   4.74765032842939E-10  1.84105416110615E-02
 cg2d: Sum(rhs),rhsMax =   4.74810107897738E-10  1.84102662864219E-02
 cg2d: Sum(rhs),rhsMax =   4.74860872845539E-10  1.84099869842182E-02
 cg2d: Sum(rhs),rhsMax =   4.74917841164491E-10  1.84097030511414E-02
 cg2d: Sum(rhs),rhsMax =   4.74974296005293E-10  1.84094141342601E-02
 cg2d: Sum(rhs),rhsMax =   4.75030167979007E-10  1.84091201784716E-02
 cg2d: Sum(rhs),rhsMax =   4.75073230754575E-10  1.84088211463315E-02
 cg2d: Sum(rhs),rhsMax =   4.75112768572039E-10  1.84085170189226E-02
 cg2d: Sum(rhs),rhsMax =   4.75151487600023E-10  1.84082077927958E-02
 cg2d: Sum(rhs),rhsMax =   4.75207873051886E-10  1.84078934829267E-02
 cg2d: Sum(rhs),rhsMax =   4.75242470376891E-10  1.84075741232866E-02
 cg2d: Sum(rhs),rhsMax =   4.75289127499501E-10  1.84072497659705E-02
 cg2d: Sum(rhs),rhsMax =   4.75334216432088E-10  1.84069204791771E-02
 cg2d: Sum(rhs),rhsMax =   4.75381872755420E-10  1.84065863480498E-02
 cg2d: Sum(rhs),rhsMax =   4.75439493330398E-10  1.84062474704091E-02
 cg2d: Sum(rhs),rhsMax =   4.75495864904474E-10  1.84059039683996E-02
 cg2d: Sum(rhs),rhsMax =   4.75535902322299E-10  1.84055559711634E-02
 cg2d: Sum(rhs),rhsMax =   4.75579034486806E-10  1.84052036267825E-02
 cg2d: Sum(rhs),rhsMax =   4.75621500517498E-10  1.84048470887960E-02
 cg2d: Sum(rhs),rhsMax =   4.75670253186067E-10  1.84044865306946E-02
 cg2d: Sum(rhs),rhsMax =   4.75722475301588E-10  1.84041221477455E-02
 cg2d: Sum(rhs),rhsMax =   4.75774558639230E-10  1.84037541414928E-02
 cg2d: Sum(rhs),rhsMax =   4.75817621414798E-10  1.84033827167426E-02
 cg2d: Sum(rhs),rhsMax =   4.75885261752573E-10  1.84030080892119E-02
 cg2d: Sum(rhs),rhsMax =   4.75928907395229E-10  1.84026304810795E-02
 cg2d: Sum(rhs),rhsMax =   4.75978437219915E-10  1.84022501252592E-02
 cg2d: Sum(rhs),rhsMax =   4.76034447971507E-10  1.84018672613640E-02
 cg2d: Sum(rhs),rhsMax =   4.76086850498270E-10  1.84014821333778E-02
 cg2d: Sum(rhs),rhsMax =   4.76132397397855E-10  1.84010949924651E-02
 cg2d: Sum(rhs),rhsMax =   4.76189532250260E-10  1.84007060905432E-02
 cg2d: Sum(rhs),rhsMax =   4.76245737290881E-10  1.84003156821141E-02
 cg2d: Sum(rhs),rhsMax =   4.76284095496382E-10  1.83999240234395E-02
 cg2d: Sum(rhs),rhsMax =   4.76345921041066E-10  1.83995313694487E-02
 cg2d: Sum(rhs),rhsMax =   4.76399641957670E-10  1.83991379759606E-02
 cg2d: Sum(rhs),rhsMax =   4.76452585718157E-10  1.83987440940388E-02
 cg2d: Sum(rhs),rhsMax =   4.76500325308216E-10  1.83983499712327E-02
 cg2d: Sum(rhs),rhsMax =   4.76545414240803E-10  1.83979558515846E-02
 cg2d: Sum(rhs),rhsMax =   4.76592876275106E-10  1.83975619719494E-02
 cg2d: Sum(rhs),rhsMax =   4.76644113067692E-10  1.83971685639035E-02
 cg2d: Sum(rhs),rhsMax =   4.76688008510529E-10  1.83967758502347E-02
 cg2d: Sum(rhs),rhsMax =   4.76731903953365E-10  1.83963840451259E-02
 cg2d: Sum(rhs),rhsMax =   4.76783695857463E-10  1.83959933544513E-02
 cg2d: Sum(rhs),rhsMax =   4.76848047159528E-10  1.83956039742403E-02
 cg2d: Sum(rhs),rhsMax =   4.76893816103718E-10  1.83952160847934E-02
 cg2d: Sum(rhs),rhsMax =   4.76949396643889E-10  1.83948298606837E-02
 cg2d: Sum(rhs),rhsMax =   4.76993319842300E-10  1.83944454617764E-02
 cg2d: Sum(rhs),rhsMax =   4.77055533965043E-10  1.83940630306029E-02
 cg2d: Sum(rhs),rhsMax =   4.77106451568510E-10  1.83936827007144E-02
 cg2d: Sum(rhs),rhsMax =   4.77147363286967E-10  1.83933045900453E-02
 cg2d: Sum(rhs),rhsMax =   4.77191994252557E-10  1.83929287989220E-02
 cg2d: Sum(rhs),rhsMax =   4.77248324193269E-10  1.83925554170177E-02
 cg2d: Sum(rhs),rhsMax =   4.77316561275920E-10  1.83921845129055E-02
 cg2d: Sum(rhs),rhsMax =   4.77369907492253E-10  1.83918161426506E-02
 cg2d: Sum(rhs),rhsMax =   4.77421352451657E-10  1.83914503443194E-02
 cg2d: Sum(rhs),rhsMax =   4.77460460057699E-10  1.83910871423319E-02
 cg2d: Sum(rhs),rhsMax =   4.77511280516651E-10  1.83907265454165E-02
 cg2d: Sum(rhs),rhsMax =   4.77558756428742E-10  1.83903685410589E-02
 cg2d: Sum(rhs),rhsMax =   4.77609313209726E-10  1.83900130930652E-02
 cg2d: Sum(rhs),rhsMax =   4.77656650343938E-10  1.83896601663215E-02
 cg2d: Sum(rhs),rhsMax =   4.77707859380949E-10  1.83893097084782E-02
 cg2d: Sum(rhs),rhsMax =   4.77761080697192E-10  1.83889616475208E-02
 cg2d: Sum(rhs),rhsMax =   4.77810596644090E-10  1.83886158933489E-02
 cg2d: Sum(rhs),rhsMax =   4.77856379466068E-10  1.83882723393032E-02
 cg2d: Sum(rhs),rhsMax =   4.77914707808225E-10  1.83879308673770E-02
 cg2d: Sum(rhs),rhsMax =   4.77965569900540E-10  1.83875913458115E-02
 cg2d: Sum(rhs),rhsMax =   4.78014350324685E-10  1.83872536318417E-02
 cg2d: Sum(rhs),rhsMax =   4.78059564157363E-10  1.83869175700884E-02
 cg2d: Sum(rhs),rhsMax =   4.78113743040964E-10  1.83865829916117E-02
 cg2d: Sum(rhs),rhsMax =   4.78165992912061E-10  1.83862497205989E-02
 cg2d: Sum(rhs),rhsMax =   4.78222322852773E-10  1.83859168861675E-02
 cg2d: Sum(rhs),rhsMax =   4.78265649306309E-10  1.83855826313021E-02
 cg2d: Sum(rhs),rhsMax =   4.78317122021288E-10  1.83852484215597E-02
 cg2d: Sum(rhs),rhsMax =   4.78368358813874E-10  1.83849125126483E-02
 cg2d: Sum(rhs),rhsMax =   4.78424480587769E-10  1.83845763089536E-02
 cg2d: Sum(rhs),rhsMax =   4.78468750730876E-10  1.83842380774667E-02
 cg2d: Sum(rhs),rhsMax =   4.78518863422650E-10  1.83838992984355E-02
 cg2d: Sum(rhs),rhsMax =   4.78575359896816E-10  1.83835582337199E-02
 cg2d: Sum(rhs),rhsMax =   4.78611206222723E-10  1.83832163268713E-02
 cg2d: Sum(rhs),rhsMax =   4.78652284474634E-10  1.83828718427266E-02
 cg2d: Sum(rhs),rhsMax =   4.78704825779275E-10  1.83825262467940E-02
 cg2d: Sum(rhs),rhsMax =   4.78747028131998E-10  1.83821778255364E-02
 cg2d: Sum(rhs),rhsMax =   4.78789938251900E-10  1.83818280547858E-02
 cg2d: Sum(rhs),rhsMax =   4.78841230555638E-10  1.83814752264881E-02
 cg2d: Sum(rhs),rhsMax =   4.78894104927186E-10  1.83811207191763E-02
 cg2d: Sum(rhs),rhsMax =   4.78931130865057E-10  1.83807628360667E-02
 cg2d: Sum(rhs),rhsMax =   4.78981104778953E-10  1.83804030910220E-02
 cg2d: Sum(rhs),rhsMax =   4.79021419752534E-10  1.83800398163946E-02
 cg2d: Sum(rhs),rhsMax =   4.79064121705619E-10  1.83796745438702E-02
 cg2d: Sum(rhs),rhsMax =   4.79107670203760E-10  1.83793056203862E-02
 Computing Diagnostic #    26 "THETA   " (list#  1) Parms "SMR     MR      ", Count=     144
 Computing Diagnostic #    27 "SALT    " (list#  1) Parms "SMR     MR      ", Count=     144
 Computing Diagnostic #    30 "UVEL    " (list#  1) Parms "UUR     MR      ", Count=     144
             Vector  Mate for "UVEL    " :  Diagnostic #     31 "VVEL    " exists
 Computing Diagnostic #    32 "WVEL    " (list#  1) Parms "WM      LR      ", Count=     144
 Computing Diagnostic #    31 "VVEL    " (list#  1) Parms "VVR     MR      ", Count=     144
             Vector  Mate for "VVEL    " :  Diagnostic #     30 "UVEL    " exists
 Computing Diagnostic #   197 "BRGfwFlx" (list#  2) Parms "SM      MR      ", Count=     144
 Computing Diagnostic #   198 "BRGhtFlx" (list#  2) Parms "SM      MR      ", Count=     144
 Computing Diagnostic #   199 "BRGmltRt" (list#  2) Parms "SM      MR      ", Count=     144
 Computing Diagnostic #   201 "BRG_TauX" (list#  2) Parms "UU      MR      ", Count=    1728
 Computing Diagnostic #   202 "BRG_TauY" (list#  2) Parms "VV      MR      ", Count=    1728
 Computing Diagnostic #   203 "BRGhFacC" (list#  2) Parms "SM      MR      ", Count=    1728
 cg2d: Sum(rhs),rhsMax =   4.79161488264879E-10  1.83789347091991E-02
 cg2d: Sum(rhs),rhsMax =   4.79217207582927E-10  1.83785602570051E-02
 cg2d: Sum(rhs),rhsMax =   4.79258688290685E-10  1.83781872428657E-02
 cg2d: Sum(rhs),rhsMax =   4.79308287504310E-10  1.83778106821694E-02
 cg2d: Sum(rhs),rhsMax =   4.79354347882044E-10  1.83774321556072E-02
 cg2d: Sum(rhs),rhsMax =   4.79421349841580E-10  1.83770500899552E-02
 cg2d: Sum(rhs),rhsMax =   4.79467465730465E-10  1.83766660967809E-02
 cg2d: Sum(rhs),rhsMax =   4.79514733475739E-10  1.83762785097198E-02
 cg2d: Sum(rhs),rhsMax =   4.79576503509271E-10  1.83758888984067E-02
 cg2d: Sum(rhs),rhsMax =   4.79623493698789E-10  1.83754957003320E-02
 cg2d: Sum(rhs),rhsMax =   4.79685832721621E-10  1.83751005559978E-02
 cg2d: Sum(rhs),rhsMax =   4.79724940327664E-10  1.83747019163263E-02
 cg2d: Sum(rhs),rhsMax =   4.79771930517181E-10  1.83743014329512E-02
 cg2d: Sum(rhs),rhsMax =   4.79828829447193E-10  1.83738975661329E-02
 cg2d: Sum(rhs),rhsMax =   4.79882508730434E-10  1.83734919768000E-02
 cg2d: Sum(rhs),rhsMax =   4.79924919249974E-10  1.83730831303060E-02
 cg2d: Sum(rhs),rhsMax =   4.79976725031861E-10  1.83726726974772E-02
 cg2d: Sum(rhs),rhsMax =   4.80027836924357E-10  1.83722591521537E-02
 cg2d: Sum(rhs),rhsMax =   4.80079365150488E-10  1.83718441772731E-02
 cg2d: Sum(rhs),rhsMax =   4.80137721248219E-10  1.83714262496983E-02
 cg2d: Sum(rhs),rhsMax =   4.80182338336022E-10  1.83710070607296E-02
 cg2d: Sum(rhs),rhsMax =   4.80237682953799E-10  1.83705850949454E-02
 cg2d: Sum(rhs),rhsMax =   4.80284215176319E-10  1.83701620505845E-02
 cg2d: Sum(rhs),rhsMax =   4.80330747398838E-10  1.83697364215371E-02
 cg2d: Sum(rhs),rhsMax =   4.80375600409033E-10  1.83693099347508E-02
 cg2d: Sum(rhs),rhsMax =   4.80445780381977E-10  1.83688810382114E-02
 cg2d: Sum(rhs),rhsMax =   4.80481862630278E-10  1.83684514520895E-02
 cg2d: Sum(rhs),rhsMax =   4.80523149049006E-10  1.83680197215408E-02
 cg2d: Sum(rhs),rhsMax =   4.80592593499196E-10  1.83675875578856E-02
 cg2d: Sum(rhs),rhsMax =   4.80640499622709E-10  1.83671534637028E-02
 cg2d: Sum(rhs),rhsMax =   4.80688600035251E-10  1.83667191672904E-02
 cg2d: Sum(rhs),rhsMax =   4.80732911811721E-10  1.83662831921614E-02
 cg2d: Sum(rhs),rhsMax =   4.80792849977263E-10  1.83658473121784E-02
 cg2d: Sum(rhs),rhsMax =   4.80851344852873E-10  1.83654101246614E-02
 cg2d: Sum(rhs),rhsMax =   4.80900735899681E-10  1.83649732711281E-02
 cg2d: Sum(rhs),rhsMax =   4.80948933456737E-10  1.83645352828470E-02
 cg2d: Sum(rhs),rhsMax =   4.81006165453657E-10  1.83640979136289E-02
 cg2d: Sum(rhs),rhsMax =   4.81049630685071E-10  1.83636597047058E-02
 cg2d: Sum(rhs),rhsMax =   4.81110498662396E-10  1.83632218644650E-02
 cg2d: Sum(rhs),rhsMax =   4.81156919862613E-10  1.83627834018191E-02
 cg2d: Sum(rhs),rhsMax =   4.81212458769420E-10  1.83623461888556E-02
 cg2d: Sum(rhs),rhsMax =   4.81270232000064E-10  1.83619087943681E-02
 cg2d: Sum(rhs),rhsMax =   4.81315751144074E-10  1.83614730042793E-02
 cg2d: Sum(rhs),rhsMax =   4.81368570004470E-10  1.83610373965737E-02
 cg2d: Sum(rhs),rhsMax =   4.81406831065456E-10  1.83607458504355E-02
 cg2d: Sum(rhs),rhsMax =   4.81448991784816E-10  1.83605861242741E-02
 cg2d: Sum(rhs),rhsMax =   4.81498924065349E-10  1.83604292633480E-02
 cg2d: Sum(rhs),rhsMax =   4.81546497121954E-10  1.83602688982056E-02
 cg2d: Sum(rhs),rhsMax =   4.81587256184746E-10  1.83601061749882E-02
 cg2d: Sum(rhs),rhsMax =   4.81633108395663E-10  1.83599404268816E-02
 cg2d: Sum(rhs),rhsMax =   4.81678821828702E-10  1.83597707929999E-02
 cg2d: Sum(rhs),rhsMax =   4.81726603052124E-10  1.83595964696538E-02
 cg2d: Sum(rhs),rhsMax =   4.81780573768908E-10  1.83594166944591E-02
 cg2d: Sum(rhs),rhsMax =   4.81832837517793E-10  1.83592307408178E-02
 cg2d: Sum(rhs),rhsMax =   4.81877801550290E-10  1.83590379218262E-02
 cg2d: Sum(rhs),rhsMax =   4.81916132000215E-10  1.83588375896939E-02
 cg2d: Sum(rhs),rhsMax =   4.81963802201335E-10  1.83586291398967E-02
 cg2d: Sum(rhs),rhsMax =   4.82012263436360E-10  1.83584120143238E-02
 cg2d: Sum(rhs),rhsMax =   4.82054909878293E-10  1.83581857008757E-02
 cg2d: Sum(rhs),rhsMax =   4.82095433018692E-10  1.83579497343622E-02
 cg2d: Sum(rhs),rhsMax =   4.82141937485636E-10  1.83577036999042E-02
 cg2d: Sum(rhs),rhsMax =   4.82187401118495E-10  1.83574472340724E-02
 cg2d: Sum(rhs),rhsMax =   4.82231990450721E-10  1.83571800226989E-02
 cg2d: Sum(rhs),rhsMax =   4.82288861625157E-10  1.83569018059292E-02
 cg2d: Sum(rhs),rhsMax =   4.82336087737067E-10  1.83566123721895E-02
 cg2d: Sum(rhs),rhsMax =   4.82392473188931E-10  1.83563115664178E-02
 cg2d: Sum(rhs),rhsMax =   4.82446069205444E-10  1.83559992873781E-02
 cg2d: Sum(rhs),rhsMax =   4.82498901943629E-10  1.83556754804958E-02
 cg2d: Sum(rhs),rhsMax =   4.82543602298158E-10  1.83553401485027E-02
 cg2d: Sum(rhs),rhsMax =   4.82589676553680E-10  1.83549933431986E-02
 cg2d: Sum(rhs),rhsMax =   4.82635223453265E-10  1.83546351689331E-02
 cg2d: Sum(rhs),rhsMax =   4.82687598224452E-10  1.83542657779348E-02
 cg2d: Sum(rhs),rhsMax =   4.82735962314962E-10  1.83538853758858E-02
 cg2d: Sum(rhs),rhsMax =   4.82778164667685E-10  1.83534942104355E-02
 cg2d: Sum(rhs),rhsMax =   4.82828277359459E-10  1.83530925771296E-02
 cg2d: Sum(rhs),rhsMax =   4.82878098617689E-10  1.83526808202396E-02
 cg2d: Sum(rhs),rhsMax =   4.82922576927614E-10  1.83522593263029E-02
 cg2d: Sum(rhs),rhsMax =   4.82966083792391E-10  1.83518285203965E-02
 cg2d: Sum(rhs),rhsMax =   4.83017043029221E-10  1.83513888685565E-02
 cg2d: Sum(rhs),rhsMax =   4.83067585932417E-10  1.83509408748390E-02
 cg2d: Sum(rhs),rhsMax =   4.83125164874032E-10  1.83504850796814E-02
 cg2d: Sum(rhs),rhsMax =   4.83181203381200E-10  1.83500220551014E-02
 cg2d: Sum(rhs),rhsMax =   4.83233425496721E-10  1.83495524045664E-02
 cg2d: Sum(rhs),rhsMax =   4.83290435449035E-10  1.83490767588774E-02
 cg2d: Sum(rhs),rhsMax =   4.83339507306724E-10  1.83485957760851E-02
 cg2d: Sum(rhs),rhsMax =   4.83382223137596E-10  1.83481101353544E-02
 cg2d: Sum(rhs),rhsMax =   4.83433210130002E-10  1.83476208390765E-02
 cg2d: Sum(rhs),rhsMax =   4.83477466395321E-10  1.83471286211795E-02
 cg2d: Sum(rhs),rhsMax =   4.83525122718653E-10  1.83466342252229E-02
 cg2d: Sum(rhs),rhsMax =   4.83572307197200E-10  1.83461383982533E-02
 cg2d: Sum(rhs),rhsMax =   4.83623058267213E-10  1.83456418959741E-02
 cg2d: Sum(rhs),rhsMax =   4.83674267304224E-10  1.83451454736063E-02
 cg2d: Sum(rhs),rhsMax =   4.83723283650761E-10  1.83446498860728E-02
 cg2d: Sum(rhs),rhsMax =   4.83785594918018E-10  1.83441558867031E-02
 cg2d: Sum(rhs),rhsMax =   4.83837025999634E-10  1.83436642184300E-02
 cg2d: Sum(rhs),rhsMax =   4.83903417336506E-10  1.83431756152574E-02
 cg2d: Sum(rhs),rhsMax =   4.83946410723135E-10  1.83426908033802E-02
 cg2d: Sum(rhs),rhsMax =   4.83997147915360E-10  1.83422104894928E-02
 cg2d: Sum(rhs),rhsMax =   4.84047232851559E-10  1.83417353656753E-02
 cg2d: Sum(rhs),rhsMax =   4.84094139774349E-10  1.83412661040246E-02
 cg2d: Sum(rhs),rhsMax =   4.84138104606124E-10  1.83408033541776E-02
 cg2d: Sum(rhs),rhsMax =   4.84201012618257E-10  1.83403477418176E-02
 cg2d: Sum(rhs),rhsMax =   4.84240675335812E-10  1.83398998666160E-02
 cg2d: Sum(rhs),rhsMax =   4.84299836345237E-10  1.83394603006283E-02
 cg2d: Sum(rhs),rhsMax =   4.84344855888885E-10  1.83390295869411E-02
 cg2d: Sum(rhs),rhsMax =   4.84395204503052E-10  1.83386082343505E-02
 cg2d: Sum(rhs),rhsMax =   4.84457557403672E-10  1.83381967208530E-02
 cg2d: Sum(rhs),rhsMax =   4.84506976206056E-10  1.83377954881150E-02
 cg2d: Sum(rhs),rhsMax =   4.84560364055753E-10  1.83374049452093E-02
 cg2d: Sum(rhs),rhsMax =   4.84600110040034E-10  1.83370254616009E-02
 cg2d: Sum(rhs),rhsMax =   4.84656606514200E-10  1.83366573711065E-02
 cg2d: Sum(rhs),rhsMax =   4.84697226799113E-10  1.83363009684663E-02
 cg2d: Sum(rhs),rhsMax =   4.84753612250977E-10  1.83359565076964E-02
 cg2d: Sum(rhs),rhsMax =   4.84795148469885E-10  1.83356242063552E-02
 cg2d: Sum(rhs),rhsMax =   4.84849785320485E-10  1.83353042407090E-02
 cg2d: Sum(rhs),rhsMax =   4.84897094699122E-10  1.83349967473186E-02
 cg2d: Sum(rhs),rhsMax =   4.84940421152658E-10  1.83347018209213E-02
 cg2d: Sum(rhs),rhsMax =   4.84986800719511E-10  1.83344195204969E-02
 cg2d: Sum(rhs),rhsMax =   4.85038648134761E-10  1.83341498616914E-02
 cg2d: Sum(rhs),rhsMax =   4.85089912682923E-10  1.83338928213406E-02
 cg2d: Sum(rhs),rhsMax =   4.85140136397000E-10  1.83336483405948E-02
 cg2d: Sum(rhs),rhsMax =   4.85188403342995E-10  1.83334163202190E-02
 cg2d: Sum(rhs),rhsMax =   4.85236198444206E-10  1.83331966263456E-02
 cg2d: Sum(rhs),rhsMax =   4.85286769102977E-10  1.83329891733192E-02
 cg2d: Sum(rhs),rhsMax =   4.85340476141793E-10  1.83327939583182E-02
 cg2d: Sum(rhs),rhsMax =   4.85385065474020E-10  1.83326107570798E-02
 cg2d: Sum(rhs),rhsMax =   4.85430348695637E-10  1.83324395674020E-02
 cg2d: Sum(rhs),rhsMax =   4.85482529177794E-10  1.83322802087287E-02
 cg2d: Sum(rhs),rhsMax =   4.85520290638419E-10  1.83321324889325E-02
 cg2d: Sum(rhs),rhsMax =   4.85558912521888E-10  1.83319961881898E-02
 cg2d: Sum(rhs),rhsMax =   4.85598949939714E-10  1.83318710438254E-02
 cg2d: Sum(rhs),rhsMax =   4.85644177650180E-10  1.83317567635672E-02
 cg2d: Sum(rhs),rhsMax =   4.85689072293738E-10  1.83316530109476E-02
 cg2d: Sum(rhs),rhsMax =   4.85737700062217E-10  1.83315594179735E-02
 cg2d: Sum(rhs),rhsMax =   4.85779874659364E-10  1.83314755794919E-02
 cg2d: Sum(rhs),rhsMax =   4.85813694828252E-10  1.83314010620217E-02
 cg2d: Sum(rhs),rhsMax =   4.85856882503910E-10  1.83313353805427E-02
 cg2d: Sum(rhs),rhsMax =   4.85891771262459E-10  1.83312780528251E-02
 cg2d: Sum(rhs),rhsMax =   4.85942050487687E-10  1.83312285433251E-02
 cg2d: Sum(rhs),rhsMax =   4.85978202124926E-10  1.83311862988795E-02
 cg2d: Sum(rhs),rhsMax =   4.86033768787308E-10  1.83311507365511E-02
 cg2d: Sum(rhs),rhsMax =   4.86079190786803E-10  1.83311212546812E-02
 cg2d: Sum(rhs),rhsMax =   4.86126666698894E-10  1.83310972257960E-02
 cg2d: Sum(rhs),rhsMax =   4.86172338498569E-10  1.83310780079110E-02
(PID.TID 0000.0001)      cg2d_init_res =   1.21510068679868E-04
(PID.TID 0000.0001)      cg2d_iters(min,last) =      -1      39
(PID.TID 0000.0001)      cg2d_last_res =   7.49870351651480E-14
(PID.TID 0000.0001) // =======================================================
(PID.TID 0000.0001) // Begin MONITOR dynamic field statistics
(PID.TID 0000.0001) // =======================================================
(PID.TID 0000.0001) %MON time_tsnumber                =                 12960
(PID.TID 0000.0001) %MON time_secondsf                =   3.2400000000000E+05
(PID.TID 0000.0001) %MON dynstat_eta_max              =   5.4693372469944E-03
(PID.TID 0000.0001) %MON dynstat_eta_min              =  -2.6729051475437E-03
(PID.TID 0000.0001) %MON dynstat_eta_mean             =  -5.9684004399937E-14
(PID.TID 0000.0001) %MON dynstat_eta_sd               =   2.7707032186551E-03
(PID.TID 0000.0001) %MON dynstat_eta_del2             =   2.3391243740799E-05
(PID.TID 0000.0001) %MON dynstat_uvel_max             =   4.7831436478661E-02
(PID.TID 0000.0001) %MON dynstat_uvel_min             =  -3.5399281105415E-02
(PID.TID 0000.0001) %MON dynstat_uvel_mean            =   6.5517311785135E-09
(PID.TID 0000.0001) %MON dynstat_uvel_sd              =   6.1540273280818E-03
(PID.TID 0000.0001) %MON dynstat_uvel_del2            =   1.0365571273709E-04
(PID.TID 0000.0001) %MON dynstat_vvel_max             =   2.2320572677221E-02
(PID.TID 0000.0001) %MON dynstat_vvel_min             =  -3.2536065686503E-02
(PID.TID 0000.0001) %MON dynstat_vvel_mean            =  -8.0919744949114E-03
(PID.TID 0000.0001) %MON dynstat_vvel_sd              =   1.1415689739744E-02
(PID.TID 0000.0001) %MON dynstat_vvel_del2            =   9.2802013907189E-05
(PID.TID 0000.0001) %MON dynstat_wvel_max             =   1.3608083001274E-03
(PID.TID 0000.0001) %MON dynstat_wvel_min             =  -1.0731910767361E-03
(PID.TID 0000.0001) %MON dynstat_wvel_mean            =   5.0530031663151E-21
(PID.TID 0000.0001) %MON dynstat_wvel_sd              =   1.2520797584800E-04
(PID.TID 0000.0001) %MON dynstat_wvel_del2            =   6.2058950723009E-06
(PID.TID 0000.0001) %MON dynstat_theta_max            =   2.6931451612903E+00
(PID.TID 0000.0001) %MON dynstat_theta_min            =  -4.2476081528304E-01
(PID.TID 0000.0001) %MON dynstat_theta_mean           =   2.2299442259377E+00
(PID.TID 0000.0001) %MON dynstat_theta_sd             =   4.9970674825256E-01
(PID.TID 0000.0001) %MON dynstat_theta_del2           =   1.5232408455886E-03
(PID.TID 0000.0001) %MON dynstat_salt_max             =   3.4699999999999E+01
(PID.TID 0000.0001) %MON dynstat_salt_min             =   3.3015302893586E+01
(PID.TID 0000.0001) %MON dynstat_salt_mean            =   3.4364380387371E+01
(PID.TID 0000.0001) %MON dynstat_salt_sd              =   3.2217536988148E-01
(PID.TID 0000.0001) %MON dynstat_salt_del2            =   2.0066337695923E-04
(PID.TID 0000.0001) %MON advcfl_uvel_max              =   2.3915718239331E-03
(PID.TID 0000.0001) %MON advcfl_vvel_max              =   1.6268032843252E-03
(PID.TID 0000.0001) %MON advcfl_wvel_max              =   6.3309096514094E-04
(PID.TID 0000.0001) %MON advcfl_W_hf_max              =   1.6550805946969E-03
(PID.TID 0000.0001) %MON pe_b_mean                    =   6.4050819516814E-08
(PID.TID 0000.0001) %MON ke_max                       =   1.0862094597999E-03
(PID.TID 0000.0001) %MON ke_mean                      =   1.0687737256785E-04
(PID.TID 0000.0001) %MON ke_vol                       =   3.2921708585402E+10
(PID.TID 0000.0001) // =======================================================
(PID.TID 0000.0001) // End MONITOR dynamic field statistics
(PID.TID 0000.0001) // =======================================================
(PID.TID 0000.0001) // =======================================================
(PID.TID 0000.0001) // Begin OBCS MONITOR field statistics
(PID.TID 0000.0001) // =======================================================
(PID.TID 0000.0001) %MON obc_E_uVel_max               =   0.0000000000000E+00
(PID.TID 0000.0001) %MON obc_E_uVel_min               =   0.0000000000000E+00
(PID.TID 0000.0001) %MON obc_E_uVel_mean              =   0.0000000000000E+00
(PID.TID 0000.0001) %MON obc_E_uVel_sd                =   0.0000000000000E+00
(PID.TID 0000.0001) %MON obc_E_uVel_Int               =   0.0000000000000E+00
(PID.TID 0000.0001) %MON obc_N_vVel_max               =  -3.6115799844846E-05
(PID.TID 0000.0001) %MON obc_N_vVel_min               =  -3.0000000000000E-02
(PID.TID 0000.0001) %MON obc_N_vVel_mean              =  -1.3225455303334E-02
(PID.TID 0000.0001) %MON obc_N_vVel_sd                =   1.1350864292742E-02
(PID.TID 0000.0001) %MON obc_N_vVel_Int               =  -5.9514548865004E+04
(PID.TID 0000.0001) %MON obc_S_vVel_max               =  -3.6115799844846E-05
(PID.TID 0000.0001) %MON obc_S_vVel_min               =  -3.0000000000000E-02
(PID.TID 0000.0001) %MON obc_S_vVel_mean              =  -1.3225455303334E-02
(PID.TID 0000.0001) %MON obc_S_vVel_sd                =   1.1350864292742E-02
(PID.TID 0000.0001) %MON obc_S_vVel_Int               =  -5.9514548865004E+04
(PID.TID 0000.0001) // =======================================================
(PID.TID 0000.0001) // End OBCS MONITOR field statistics
(PID.TID 0000.0001) // =======================================================
 Computing Diagnostic #    26 "THETA   " (list#  1) Parms "SMR     MR      ", Count=     144
 Computing Diagnostic #    27 "SALT    " (list#  1) Parms "SMR     MR      ", Count=     144
 Computing Diagnostic #    30 "UVEL    " (list#  1) Parms "UUR     MR      ", Count=     144
             Vector  Mate for "UVEL    " :  Diagnostic #     31 "VVEL    " exists
 Computing Diagnostic #    32 "WVEL    " (list#  1) Parms "WM      LR      ", Count=     144
 Computing Diagnostic #    31 "VVEL    " (list#  1) Parms "VVR     MR      ", Count=     144
             Vector  Mate for "VVEL    " :  Diagnostic #     30 "UVEL    " exists
 Computing Diagnostic #   197 "BRGfwFlx" (list#  2) Parms "SM      MR      ", Count=     144
 Computing Diagnostic #   198 "BRGhtFlx" (list#  2) Parms "SM      MR      ", Count=     144
 Computing Diagnostic #   199 "BRGmltRt" (list#  2) Parms "SM      MR      ", Count=     144
 Computing Diagnostic #   201 "BRG_TauX" (list#  2) Parms "UU      MR      ", Count=    1728
 Computing Diagnostic #   202 "BRG_TauY" (list#  2) Parms "VV      MR      ", Count=    1728
 Computing Diagnostic #   203 "BRGhFacC" (list#  2) Parms "SM      MR      ", Count=    1728
 cg2d: Sum(rhs),rhsMax =   4.86219148276845E-10  1.83310629389026E-02
 cg2d: Sum(rhs),rhsMax =   4.86263501686679E-10  1.83310513446550E-02
 cg2d: Sum(rhs),rhsMax =   4.86309326142020E-10  1.83310425476934E-02
 cg2d: Sum(rhs),rhsMax =   4.86361076412756E-10  1.83310358121088E-02
 cg2d: Sum(rhs),rhsMax =   4.86388679332705E-10  1.83310304449970E-02
 cg2d: Sum(rhs),rhsMax =   4.86439555302809E-10  1.83310257315184E-02
 cg2d: Sum(rhs),rhsMax =   4.86488418993680E-10  1.83310209444706E-02
 cg2d: Sum(rhs),rhsMax =   4.86531648302702E-10  1.83310153556488E-02
 cg2d: Sum(rhs),rhsMax =   4.86567328095155E-10  1.83310082609900E-02
 cg2d: Sum(rhs),rhsMax =   4.86617870998352E-10  1.83309988885810E-02
 cg2d: Sum(rhs),rhsMax =   4.86662543597305E-10  1.83309864708789E-02
 cg2d: Sum(rhs),rhsMax =   4.86699056057027E-10  1.83309704324342E-02
 cg2d: Sum(rhs),rhsMax =   4.86727227966277E-10  1.83309500895535E-02
 cg2d: Sum(rhs),rhsMax =   4.86765613927354E-10  1.83309247192012E-02
 cg2d: Sum(rhs),rhsMax =   4.86806497890235E-10  1.83308936577042E-02
 cg2d: Sum(rhs),rhsMax =   4.86854112580204E-10  1.83308562821559E-02
 cg2d: Sum(rhs),rhsMax =   4.86896439833018E-10  1.83308119941467E-02
 cg2d: Sum(rhs),rhsMax =   4.86942527966328E-10  1.83307602175493E-02
 cg2d: Sum(rhs),rhsMax =   4.86984993997019E-10  1.83307004064199E-02
 cg2d: Sum(rhs),rhsMax =   4.87028459228434E-10  1.83306360493263E-02
 cg2d: Sum(rhs),rhsMax =   4.87078308242239E-10  1.83305627480045E-02
 cg2d: Sum(rhs),rhsMax =   4.87119636294331E-10  1.83304798819625E-02
 cg2d: Sum(rhs),rhsMax =   4.87152845840555E-10  1.83303870737986E-02
 cg2d: Sum(rhs),rhsMax =   4.87216489375442E-10  1.83302839118123E-02
 cg2d: Sum(rhs),rhsMax =   4.87250864655842E-10  1.83301700585687E-02
 cg2d: Sum(rhs),rhsMax =   4.87302004303913E-10  1.83300452058259E-02
 cg2d: Sum(rhs),rhsMax =   4.87344525845756E-10  1.83299090998222E-02
 cg2d: Sum(rhs),rhsMax =   4.87398690851570E-10  1.83297615399423E-02
 cg2d: Sum(rhs),rhsMax =   4.87444140606641E-10  1.83296023769342E-02
 cg2d: Sum(rhs),rhsMax =   4.87482471056566E-10  1.83294315088163E-02
 cg2d: Sum(rhs),rhsMax =   4.87534942972268E-10  1.83292488901943E-02
 cg2d: Sum(rhs),rhsMax =   4.87586609976276E-10  1.83290545308956E-02
 cg2d: Sum(rhs),rhsMax =   4.87637624724258E-10  1.83288484931677E-02
 cg2d: Sum(rhs),rhsMax =   4.87677509486417E-10  1.83286308944128E-02
 cg2d: Sum(rhs),rhsMax =   4.87709997387675E-10  1.83284019064321E-02
 cg2d: Sum(rhs),rhsMax =   4.87753004652092E-10  1.83281617509069E-02
 cg2d: Sum(rhs),rhsMax =   4.87809667659711E-10  1.83279107070779E-02
 cg2d: Sum(rhs),rhsMax =   4.87856727238167E-10  1.83276491020884E-02
 cg2d: Sum(rhs),rhsMax =   4.87910919999557E-10  1.83273775008586E-02
 cg2d: Sum(rhs),rhsMax =   4.87954954220271E-10  1.83270967471490E-02
 cg2d: Sum(rhs),rhsMax =   4.87995324705004E-10  1.83268073243887E-02
 cg2d: Sum(rhs),rhsMax =   4.88037971146937E-10  1.83265097603264E-02
 cg2d: Sum(rhs),rhsMax =   4.88087709138441E-10  1.83262046607328E-02
 cg2d: Sum(rhs),rhsMax =   4.88136114862314E-10  1.83258925459626E-02
 cg2d: Sum(rhs),rhsMax =   4.88173626522759E-10  1.83255740739940E-02
 cg2d: Sum(rhs),rhsMax =   4.88225807004916E-10  1.83252499556997E-02
 cg2d: Sum(rhs),rhsMax =   4.88277723809105E-10  1.83249208891503E-02
 cg2d: Sum(rhs),rhsMax =   4.88328003034333E-10  1.83245875874923E-02
 cg2d: Sum(rhs),rhsMax =   4.88382084773420E-10  1.83242507946459E-02
 cg2d: Sum(rhs),rhsMax =   4.88424328759507E-10  1.83239112806158E-02
 cg2d: Sum(rhs),rhsMax =   4.88473067550288E-10  1.83235698345572E-02
 cg2d: Sum(rhs),rhsMax =   4.88525497832626E-10  1.83232272511744E-02
 cg2d: Sum(rhs),rhsMax =   4.88577706070359E-10  1.83228843377879E-02
 cg2d: Sum(rhs),rhsMax =   4.88634452344705E-10  1.83225418988737E-02
 cg2d: Sum(rhs),rhsMax =   4.88676835108670E-10  1.83222007432251E-02
 cg2d: Sum(rhs),rhsMax =   4.88733761794258E-10  1.83218616765293E-02
 cg2d: Sum(rhs),rhsMax =   4.88781376484226E-10  1.83215254973275E-02
 cg2d: Sum(rhs),rhsMax =   4.88808230003634E-10  1.83211929961442E-02
 cg2d: Sum(rhs),rhsMax =   4.88856732872023E-10  1.83208649452924E-02
 cg2d: Sum(rhs),rhsMax =   4.88918197594224E-10  1.83205421030884E-02
 cg2d: Sum(rhs),rhsMax =   4.88959442379588E-10  1.83202284061343E-02
 cg2d: Sum(rhs),rhsMax =   4.89002546788520E-10  1.83199247790646E-02
 cg2d: Sum(rhs),rhsMax =   4.89056461994153E-10  1.83196318127829E-02
 cg2d: Sum(rhs),rhsMax =   4.89108406553918E-10  1.83193500909313E-02
 cg2d: Sum(rhs),rhsMax =   4.89157506167182E-10  1.83190801441488E-02
 cg2d: Sum(rhs),rhsMax =   4.89211032794756E-10  1.83188224503341E-02
 cg2d: Sum(rhs),rhsMax =   4.89259355251903E-10  1.83185774169962E-02
 cg2d: Sum(rhs),rhsMax =   4.89307636075687E-10  1.83183453984784E-02
 cg2d: Sum(rhs),rhsMax =   4.89349893939561E-10  1.83181266770434E-02
 cg2d: Sum(rhs),rhsMax =   4.89394760827544E-10  1.83179214742399E-02
 cg2d: Sum(rhs),rhsMax =   4.89448495621936E-10  1.83177299442278E-02
 cg2d: Sum(rhs),rhsMax =   4.89491225330596E-10  1.83175521737422E-02
 cg2d: Sum(rhs),rhsMax =   4.89529819458490E-10  1.83173881815337E-02
 cg2d: Sum(rhs),rhsMax =   4.89571841399972E-10  1.83172379160655E-02
 cg2d: Sum(rhs),rhsMax =   4.89615445409264E-10  1.83171012637663E-02
 cg2d: Sum(rhs),rhsMax =   4.89669693681805E-10  1.83169780417415E-02
 cg2d: Sum(rhs),rhsMax =   4.89709300888208E-10  1.83168679981277E-02
 cg2d: Sum(rhs),rhsMax =   4.89758303356957E-10  1.83167708210697E-02
 cg2d: Sum(rhs),rhsMax =   4.89800158764986E-10  1.83166861331083E-02
 cg2d: Sum(rhs),rhsMax =   4.89832535643941E-10  1.83166134935499E-02
 cg2d: Sum(rhs),rhsMax =   4.89880871978876E-10  1.83165524079229E-02
 cg2d: Sum(rhs),rhsMax =   4.89906337719503E-10  1.83165023180158E-02
 cg2d: Sum(rhs),rhsMax =   4.89937548864283E-10  1.83164626171189E-02
 cg2d: Sum(rhs),rhsMax =   4.89975657269603E-10  1.83164326431383E-02
 cg2d: Sum(rhs),rhsMax =   4.90005341857724E-10  1.83164116994741E-02
 cg2d: Sum(rhs),rhsMax =   4.90038329359344E-10  1.83163990260975E-02
 cg2d: Sum(rhs),rhsMax =   4.90088233884300E-10  1.83163938472141E-02
 cg2d: Sum(rhs),rhsMax =   4.90138304942711E-10  1.83163953320040E-02
 cg2d: Sum(rhs),rhsMax =   4.90173623912682E-10  1.83164026229408E-02
 cg2d: Sum(rhs),rhsMax =   4.90216811588340E-10  1.83164148290341E-02
 cg2d: Sum(rhs),rhsMax =   4.90267187958082E-10  1.83164310362198E-02
 cg2d: Sum(rhs),rhsMax =   4.90305435141281E-10  1.83164503107515E-02
 cg2d: Sum(rhs),rhsMax =   4.90339158165654E-10  1.83164716973053E-02
 cg2d: Sum(rhs),rhsMax =   4.90375476336347E-10  1.83164942322185E-02
 cg2d: Sum(rhs),rhsMax =   4.90431528721302E-10  1.83165169439849E-02
 cg2d: Sum(rhs),rhsMax =   4.90464488467346E-10  1.83165388543980E-02
 cg2d: Sum(rhs),rhsMax =   4.90499987848558E-10  1.83165589883324E-02
 cg2d: Sum(rhs),rhsMax =   4.90536652963947E-10  1.83165763753108E-02
 cg2d: Sum(rhs),rhsMax =   4.90565074673377E-10  1.83165900564218E-02
 cg2d: Sum(rhs),rhsMax =   4.90597465430120E-10  1.83165990842310E-02
 cg2d: Sum(rhs),rhsMax =   4.90631549276976E-10  1.83166025327128E-02
 cg2d: Sum(rhs),rhsMax =   4.90686824505815E-10  1.83165994944613E-02
 cg2d: Sum(rhs),rhsMax =   4.90726584367884E-10  1.83165890915992E-02
 cg2d: Sum(rhs),rhsMax =   4.90775059480697E-10  1.83165704775890E-02
 cg2d: Sum(rhs),rhsMax =   4.90813320541683E-10  1.83165428367849E-02
 cg2d: Sum(rhs),rhsMax =   4.90857535173639E-10  1.83165053926481E-02
 cg2d: Sum(rhs),rhsMax =   4.90897225646769E-10  1.83164574123994E-02
 cg2d: Sum(rhs),rhsMax =   4.90938789621254E-10  1.83163982009498E-02
 cg2d: Sum(rhs),rhsMax =   4.90976037603730E-10  1.83163271161962E-02
 cg2d: Sum(rhs),rhsMax =   4.91017421166973E-10  1.83162435620462E-02
 cg2d: Sum(rhs),rhsMax =   4.91053114837214E-10  1.83161469938466E-02
 cg2d: Sum(rhs),rhsMax =   4.91092583265740E-10  1.83160369240483E-02
 cg2d: Sum(rhs),rhsMax =   4.91120255574629E-10  1.83159129184836E-02
 cg2d: Sum(rhs),rhsMax =   4.91156892934441E-10  1.83157746008703E-02
 cg2d: Sum(rhs),rhsMax =   4.91198970387074E-10  1.83156216544399E-02
 cg2d: Sum(rhs),rhsMax =   4.91247154066343E-10  1.83154538213382E-02
 cg2d: Sum(rhs),rhsMax =   4.91285290227239E-10  1.83152708998270E-02
 cg2d: Sum(rhs),rhsMax =   4.91323565166013E-10  1.83150727562516E-02
 cg2d: Sum(rhs),rhsMax =   4.91377341593768E-10  1.83148593106673E-02
 cg2d: Sum(rhs),rhsMax =   4.91409163361212E-10  1.83146305431696E-02
 cg2d: Sum(rhs),rhsMax =   4.91458929108290E-10  1.83143864947053E-02
 cg2d: Sum(rhs),rhsMax =   4.91508556077491E-10  1.83141272614234E-02
 cg2d: Sum(rhs),rhsMax =   4.91554866255406E-10  1.83138529992053E-02
 cg2d: Sum(rhs),rhsMax =   4.91602328289709E-10  1.83135639192166E-02
 cg2d: Sum(rhs),rhsMax =   4.91647597633538E-10  1.83132602823126E-02
 cg2d: Sum(rhs),rhsMax =   4.91697946247704E-10  1.83129424030272E-02
 cg2d: Sum(rhs),rhsMax =   4.91743465391714E-10  1.83126106474314E-02
 cg2d: Sum(rhs),rhsMax =   4.91795257295813E-10  1.83122654300046E-02
 cg2d: Sum(rhs),rhsMax =   4.91847590433636E-10  1.83119072063583E-02
 cg2d: Sum(rhs),rhsMax =   4.91892776510738E-10  1.83115364593397E-02
 cg2d: Sum(rhs),rhsMax =   4.91946511305130E-10  1.83111536913799E-02
 cg2d: Sum(rhs),rhsMax =   4.91988880191307E-10  1.83107594603843E-02
 cg2d: Sum(rhs),rhsMax =   4.92041768440643E-10  1.83103544146817E-02
 cg2d: Sum(rhs),rhsMax =   4.92098861659684E-10  1.83099391974581E-02
 cg2d: Sum(rhs),rhsMax =   4.92162102738725E-10  1.83095144429701E-02
 cg2d: Sum(rhs),rhsMax =   4.92221263748149E-10  1.83090808074034E-02
 cg2d: Sum(rhs),rhsMax =   4.92267449025974E-10  1.83086389670757E-02
 cg2d: Sum(rhs),rhsMax =   4.92323348755264E-10  1.83081896154581E-02
 cg2d: Sum(rhs),rhsMax =   4.92367965843066E-10  1.83077334565196E-02
 cg2d: Sum(rhs),rhsMax =   4.92424184761475E-10  1.83072711966424E-02
 cg2d: Sum(rhs),rhsMax =   4.92470175750270E-10  1.83068021976295E-02
 cg2d: Sum(rhs),rhsMax =   4.92517374106605E-10  1.83063285259690E-02
 cg2d: Sum(rhs),rhsMax =   4.92565127574451E-10  1.83058509063709E-02
 cg2d: Sum(rhs),rhsMax =   4.92620388925502E-10  1.83053700404292E-02
 Computing Diagnostic #    26 "THETA   " (list#  1) Parms "SMR     MR      ", Count=     144
 Computing Diagnostic #    27 "SALT    " (list#  1) Parms "SMR     MR      ", Count=     144
 Computing Diagnostic #    30 "UVEL    " (list#  1) Parms "UUR     MR      ", Count=     144
             Vector  Mate for "UVEL    " :  Diagnostic #     31 "VVEL    " exists
 Computing Diagnostic #    32 "WVEL    " (list#  1) Parms "WM      LR      ", Count=     144
 Computing Diagnostic #    31 "VVEL    " (list#  1) Parms "VVR     MR      ", Count=     144
             Vector  Mate for "VVEL    " :  Diagnostic #     30 "UVEL    " exists
 Computing Diagnostic #   197 "BRGfwFlx" (list#  2) Parms "SM      MR      ", Count=     144
 Computing Diagnostic #   198 "BRGhtFlx" (list#  2) Parms "SM      MR      ", Count=     144
 Computing Diagnostic #   199 "BRGmltRt" (list#  2) Parms "SM      MR      ", Count=     144
 Computing Diagnostic #   201 "BRG_TauX" (list#  2) Parms "UU      MR      ", Count=    1728
 Computing Diagnostic #   202 "BRG_TauY" (list#  2) Parms "VV      MR      ", Count=    1728
 Computing Diagnostic #   203 "BRGhFacC" (list#  2) Parms "SM      MR      ", Count=    1728
 cg2d: Sum(rhs),rhsMax =   4.92672638796599E-10  1.83048866210324E-02
 cg2d: Sum(rhs),rhsMax =   4.92731036527694E-10  1.83044013208732E-02
 cg2d: Sum(rhs),rhsMax =   4.92783008843034E-10  1.83039147915702E-02
 cg2d: Sum(rhs),rhsMax =   4.92827084697112E-10  1.83034276547985E-02
 cg2d: Sum(rhs),rhsMax =   4.92880750102564E-10  1.83029405109215E-02
 cg2d: Sum(rhs),rhsMax =   4.92933777129778E-10  1.83024539219553E-02
 cg2d: Sum(rhs),rhsMax =   4.92978435850944E-10  1.83019684186988E-02
 cg2d: Sum(rhs),rhsMax =   4.93030768988767E-10  1.83014844982150E-02
 cg2d: Sum(rhs),rhsMax =   4.93079785335304E-10  1.83010026155880E-02
 cg2d: Sum(rhs),rhsMax =   4.93132673584640E-10  1.83005231864611E-02
 cg2d: Sum(rhs),rhsMax =   4.93185325911583E-10  1.83000465862144E-02
 cg2d: Sum(rhs),rhsMax =   4.93254298516987E-10  1.82995731477032E-02
 cg2d: Sum(rhs),rhsMax =   4.93298457637792E-10  1.82991031575346E-02
 cg2d: Sum(rhs),rhsMax =   4.93344157193043E-10  1.82986368597758E-02
 cg2d: Sum(rhs),rhsMax =   4.93396726253259E-10  1.82981744497849E-02
 cg2d: Sum(rhs),rhsMax =   4.93463575557129E-10  1.82977160792392E-02
 cg2d: Sum(rhs),rhsMax =   4.93523596989398E-10  1.82972618539149E-02
 cg2d: Sum(rhs),rhsMax =   4.93570670445642E-10  1.82968118332318E-02
 cg2d: Sum(rhs),rhsMax =   4.93618118602157E-10  1.82963660271936E-02
 cg2d: Sum(rhs),rhsMax =   4.93658419697951E-10  1.82959244114294E-02
 cg2d: Sum(rhs),rhsMax =   4.93711294069499E-10  1.82954869064692E-02
 cg2d: Sum(rhs),rhsMax =   4.93763335773778E-10  1.82950533959702E-02
 cg2d: Sum(rhs),rhsMax =   4.93810811685869E-10  1.82946237226345E-02
 cg2d: Sum(rhs),rhsMax =   4.93869292683691E-10  1.82941976909779E-02
 cg2d: Sum(rhs),rhsMax =   4.93928231648511E-10  1.82937750684945E-02
 cg2d: Sum(rhs),rhsMax =   4.93986532235091E-10  1.82933555865768E-02
 cg2d: Sum(rhs),rhsMax =   4.94027305175671E-10  1.82929389455558E-02
 cg2d: Sum(rhs),rhsMax =   4.94078389312591E-10  1.82925248160928E-02
 cg2d: Sum(rhs),rhsMax =   4.94129903660934E-10  1.82921128438541E-02
 cg2d: Sum(rhs),rhsMax =   4.94186525035190E-10  1.82917026465552E-02
 cg2d: Sum(rhs),rhsMax =   4.94243104776082E-10  1.82912938243169E-02
 cg2d: Sum(rhs),rhsMax =   4.94296159558871E-10  1.82908859590608E-02
 cg2d: Sum(rhs),rhsMax =   4.94347993096333E-10  1.82904786173403E-02
 cg2d: Sum(rhs),rhsMax =   4.94395718808605E-10  1.82900713510071E-02
 cg2d: Sum(rhs),rhsMax =   4.94449384214057E-10  1.82896637086797E-02
 cg2d: Sum(rhs),rhsMax =   4.94493460068135E-10  1.82892552310839E-02
 cg2d: Sum(rhs),rhsMax =   4.94535745687585E-10  1.82888454634472E-02
 cg2d: Sum(rhs),rhsMax =   4.94596294475791E-10  1.82884339496251E-02
 cg2d: Sum(rhs),rhsMax =   4.94637691916822E-10  1.82880202394079E-02
 cg2d: Sum(rhs),rhsMax =   4.94691509977940E-10  1.82876038917719E-02
 cg2d: Sum(rhs),rhsMax =   4.94739457734816E-10  1.82871844767110E-02
 cg2d: Sum(rhs),rhsMax =   4.94793261918147E-10  1.82867615829066E-02
 cg2d: Sum(rhs),rhsMax =   4.94842236631321E-10  1.82863348133842E-02
 cg2d: Sum(rhs),rhsMax =   4.94895860403410E-10  1.82859037951927E-02
 cg2d: Sum(rhs),rhsMax =   4.94934329631214E-10  1.82854681763442E-02
 cg2d: Sum(rhs),rhsMax =   4.94988383614725E-10  1.82850276351707E-02
 cg2d: Sum(rhs),rhsMax =   4.95032848046861E-10  1.82845818739517E-02
 cg2d: Sum(rhs),rhsMax =   4.95092689067889E-10  1.82841306308302E-02
 cg2d: Sum(rhs),rhsMax =   4.95153917867697E-10  1.82836736744027E-02
 cg2d: Sum(rhs),rhsMax =   4.95210594753104E-10  1.82832108087142E-02
 cg2d: Sum(rhs),rhsMax =   4.95250854215534E-10  1.82827418741243E-02
 cg2d: Sum(rhs),rhsMax =   4.95302965308753E-10  1.82822667497076E-02
 cg2d: Sum(rhs),rhsMax =   4.95361654473392E-10  1.82817853514414E-02
 cg2d: Sum(rhs),rhsMax =   4.95408172818124E-10  1.82812976383885E-02
 cg2d: Sum(rhs),rhsMax =   4.95460519833735E-10  1.82808036085290E-02
 cg2d: Sum(rhs),rhsMax =   4.95518848175891E-10  1.82803032984222E-02
 cg2d: Sum(rhs),rhsMax =   4.95569724145994E-10  1.82797967891924E-02
 cg2d: Sum(rhs),rhsMax =   4.95625332441740E-10  1.82792842004104E-02
 cg2d: Sum(rhs),rhsMax =   4.95685492651887E-10  1.82787656930559E-02
 cg2d: Sum(rhs),rhsMax =   4.95734939209846E-10  1.82782384962128E-02
 cg2d: Sum(rhs),rhsMax =   4.95793128774125E-10  1.82777058717654E-02
 cg2d: Sum(rhs),rhsMax =   4.95845572934250E-10  1.82771681324479E-02
 cg2d: Sum(rhs),rhsMax =   4.95907218067693E-10  1.82766256017718E-02
 cg2d: Sum(rhs),rhsMax =   4.95964561086915E-10  1.82760786592749E-02
 cg2d: Sum(rhs),rhsMax =   4.96026816843020E-10  1.82755277088899E-02
 cg2d: Sum(rhs),rhsMax =   4.96076707490190E-10  1.82749731874169E-02
 cg2d: Sum(rhs),rhsMax =   4.96127389171264E-10  1.82744155532772E-02
 cg2d: Sum(rhs),rhsMax =   4.96194890731161E-10  1.82738552977800E-02
 cg2d: Sum(rhs),rhsMax =   4.96244489944786E-10  1.82732929275986E-02
 cg2d: Sum(rhs),rhsMax =   4.96309632280756E-10  1.82727289728267E-02
 cg2d: Sum(rhs),rhsMax =   4.96367058566705E-10  1.82721639801363E-02
 cg2d: Sum(rhs),rhsMax =   4.96429425345113E-10  1.82715985081538E-02
 cg2d: Sum(rhs),rhsMax =   4.96477858824562E-10  1.82710331278724E-02
 cg2d: Sum(rhs),rhsMax =   4.96531857296922E-10  1.82704684198807E-02
 cg2d: Sum(rhs),rhsMax =   4.96600205401876E-10  1.82699049665182E-02
 cg2d: Sum(rhs),rhsMax =   4.96651456072250E-10  1.82693433508986E-02
 cg2d: Sum(rhs),rhsMax =   4.96711352604429E-10  1.82687841537807E-02
 cg2d: Sum(rhs),rhsMax =   4.96776009217825E-10  1.82682279526264E-02
 cg2d: Sum(rhs),rhsMax =   4.96831908947115E-10  1.82676753166936E-02
 cg2d: Sum(rhs),rhsMax =   4.96892985091257E-10  1.82671267990373E-02
 cg2d: Sum(rhs),rhsMax =   4.96943167171970E-10  1.82665829450647E-02
 cg2d: Sum(rhs),rhsMax =   4.97007587862974E-10  1.82660442781106E-02
 cg2d: Sum(rhs),rhsMax =   4.97068844418358E-10  1.82655113006139E-02
 cg2d: Sum(rhs),rhsMax =   4.97132682242274E-10  1.82649844943845E-02
 cg2d: Sum(rhs),rhsMax =   4.97180352443394E-10  1.82644643150735E-02
 cg2d: Sum(rhs),rhsMax =   4.97235363994264E-10  1.82639511872463E-02
 cg2d: Sum(rhs),rhsMax =   4.97288168976873E-10  1.82634455067380E-02
 cg2d: Sum(rhs),rhsMax =   4.97347621419841E-10  1.82629476361993E-02
 cg2d: Sum(rhs),rhsMax =   4.97396651644166E-10  1.82624579041950E-02
 cg2d: Sum(rhs),rhsMax =   4.97450747261041E-10  1.82619766021675E-02
 cg2d: Sum(rhs),rhsMax =   4.97500401985818E-10  1.82615039827318E-02
 cg2d: Sum(rhs),rhsMax =   4.97552943290458E-10  1.82610402599916E-02
 cg2d: Sum(rhs),rhsMax =   4.97602889448778E-10  1.82605856067323E-02
 cg2d: Sum(rhs),rhsMax =   4.97652682951433E-10  1.82601401561516E-02
 cg2d: Sum(rhs),rhsMax =   4.97705848756524E-10  1.82597039981365E-02
 cg2d: Sum(rhs),rhsMax =   4.97758459450104E-10  1.82592771798084E-02
 cg2d: Sum(rhs),rhsMax =   4.97809446442510E-10  1.82588597064804E-02
 cg2d: Sum(rhs),rhsMax =   4.97859198311801E-10  1.82584515423620E-02
 cg2d: Sum(rhs),rhsMax =   4.97904439900054E-10  1.82580526069395E-02
 cg2d: Sum(rhs),rhsMax =   4.97955079947765E-10  1.82576627803343E-02
 cg2d: Sum(rhs),rhsMax =   4.97995325532408E-10  1.82572819014085E-02
 cg2d: Sum(rhs),rhsMax =   4.98041316521203E-10  1.82569097690248E-02
 cg2d: Sum(rhs),rhsMax =   4.98096619505617E-10  1.82565461465408E-02
 cg2d: Sum(rhs),rhsMax =   4.98158153616757E-10  1.82561907576265E-02
 cg2d: Sum(rhs),rhsMax =   4.98212554544963E-10  1.82558432891644E-02
 cg2d: Sum(rhs),rhsMax =   4.98271535143147E-10  1.82555033994362E-02
 cg2d: Sum(rhs),rhsMax =   4.98317470620790E-10  1.82551707125987E-02
 cg2d: Sum(rhs),rhsMax =   4.98352567546156E-10  1.82548448258088E-02
 cg2d: Sum(rhs),rhsMax =   4.98401028781181E-10  1.82545253074633E-02
 cg2d: Sum(rhs),rhsMax =   4.98454930109027E-10  1.82542117049585E-02
 cg2d: Sum(rhs),rhsMax =   4.98504459933713E-10  1.82539035402566E-02
 cg2d: Sum(rhs),rhsMax =   4.98555335903816E-10  1.82536003217346E-02
 cg2d: Sum(rhs),rhsMax =   4.98598426434960E-10  1.82533015402712E-02
 cg2d: Sum(rhs),rhsMax =   4.98642571677976E-10  1.82530066728425E-02
 cg2d: Sum(rhs),rhsMax =   4.98681748672958E-10  1.82527151886453E-02
 cg2d: Sum(rhs),rhsMax =   4.98721272612634E-10  1.82524265488656E-02
 cg2d: Sum(rhs),rhsMax =   4.98773300439126E-10  1.82521402123295E-02
 cg2d: Sum(rhs),rhsMax =   4.98832031237129E-10  1.82518556382369E-02
 cg2d: Sum(rhs),rhsMax =   4.98872110288318E-10  1.82515722872800E-02
 cg2d: Sum(rhs),rhsMax =   4.98912938740048E-10  1.82512897538417E-02
 cg2d: Sum(rhs),rhsMax =   4.98956181926857E-10  1.82510075210693E-02
 cg2d: Sum(rhs),rhsMax =   4.99008070975471E-10  1.82507249405102E-02
 cg2d: Sum(rhs),rhsMax =   4.99046831636818E-10  1.82504415089746E-02
 cg2d: Sum(rhs),rhsMax =   4.99104702011977E-10  1.82501567463577E-02
 cg2d: Sum(rhs),rhsMax =   4.99152164046279E-10  1.82498701869756E-02
 cg2d: Sum(rhs),rhsMax =   4.99196142755842E-10  1.82495813920979E-02
 cg2d: Sum(rhs),rhsMax =   4.99238567153171E-10  1.82492899458341E-02
 cg2d: Sum(rhs),rhsMax =   4.99285487953749E-10  1.82489954608303E-02
 cg2d: Sum(rhs),rhsMax =   4.99332380998752E-10  1.82486975786545E-02
 cg2d: Sum(rhs),rhsMax =   4.99382424301587E-10  1.82483959712377E-02
 cg2d: Sum(rhs),rhsMax =   4.99424224198464E-10  1.82480903435348E-02
 cg2d: Sum(rhs),rhsMax =   4.99482621929559E-10  1.82477804370434E-02
 cg2d: Sum(rhs),rhsMax =   4.99524449582012E-10  1.82474660248343E-02
 cg2d: Sum(rhs),rhsMax =   4.99579377866155E-10  1.82471469233270E-02
 cg2d: Sum(rhs),rhsMax =   4.99617416882536E-10  1.82468229789623E-02
 cg2d: Sum(rhs),rhsMax =   4.99653846075532E-10  1.82464940810005E-02
 cg2d: Sum(rhs),rhsMax =   4.99704819190150E-10  1.82461601560506E-02
 cg2d: Sum(rhs),rhsMax =   4.99759969518898E-10  1.82458211686810E-02
 cg2d: Sum(rhs),rhsMax =   4.99805377640605E-10  1.82454771248325E-02
 cg2d: Sum(rhs),rhsMax =   4.99847441215451E-10  1.82451280647841E-02
 cg2d: Sum(rhs),rhsMax =   4.99900495998240E-10  1.82447740694331E-02
 cg2d: Sum(rhs),rhsMax =   4.99943961229654E-10  1.82444152565118E-02
 cg2d: Sum(rhs),rhsMax =   4.99999028291676E-10  1.82440517778626E-02
 cg2d: Sum(rhs),rhsMax =   5.00053623508911E-10  1.82436838236373E-02
 Computing Diagnostic #    26 "THETA   " (list#  1) Parms "SMR     MR      ", Count=     144
 Computing Diagnostic #    27 "SALT    " (list#  1) Parms "SMR     MR      ", Count=     144
 Computing Diagnostic #    30 "UVEL    " (list#  1) Parms "UUR     MR      ", Count=     144
             Vector  Mate for "UVEL    " :  Diagnostic #     31 "VVEL    " exists
 Computing Diagnostic #    32 "WVEL    " (list#  1) Parms "WM      LR      ", Count=     144
 Computing Diagnostic #    31 "VVEL    " (list#  1) Parms "VVR     MR      ", Count=     144
             Vector  Mate for "VVEL    " :  Diagnostic #     30 "UVEL    " exists
 Computing Diagnostic #   197 "BRGfwFlx" (list#  2) Parms "SM      MR      ", Count=     144
 Computing Diagnostic #   198 "BRGhtFlx" (list#  2) Parms "SM      MR      ", Count=     144
 Computing Diagnostic #   199 "BRGmltRt" (list#  2) Parms "SM      MR      ", Count=     144
 Computing Diagnostic #   201 "BRG_TauX" (list#  2) Parms "UU      MR      ", Count=    1728
 Computing Diagnostic #   202 "BRG_TauY" (list#  2) Parms "VV      MR      ", Count=    1728
 Computing Diagnostic #   203 "BRGhFacC" (list#  2) Parms "SM      MR      ", Count=    1728
 cg2d: Sum(rhs),rhsMax =   5.00122970814587E-10  1.82432949559972E-02
 cg2d: Sum(rhs),rhsMax =   5.00181965290558E-10  1.82428978287870E-02
 cg2d: Sum(rhs),rhsMax =   5.00230426525583E-10  1.82424972982676E-02
 cg2d: Sum(rhs),rhsMax =   5.00279373483181E-10  1.82420937011234E-02
 cg2d: Sum(rhs),rhsMax =   5.00313124263130E-10  1.82416874762427E-02
 cg2d: Sum(rhs),rhsMax =   5.00372299150342E-10  1.82412790915472E-02
 cg2d: Sum(rhs),rhsMax =   5.00430849537103E-10  1.82408690229162E-02
 cg2d: Sum(rhs),rhsMax =   5.00482197351992E-10  1.82404577601003E-02
 cg2d: Sum(rhs),rhsMax =   5.00534780289996E-10  1.82400458105864E-02
 cg2d: Sum(rhs),rhsMax =   5.00584587670438E-10  1.82396336878936E-02
 cg2d: Sum(rhs),rhsMax =   5.00629940280994E-10  1.82392219168649E-02
 cg2d: Sum(rhs),rhsMax =   5.00685104487530E-10  1.82388110220357E-02
 cg2d: Sum(rhs),rhsMax =   5.00734578801065E-10  1.82384015309059E-02
 cg2d: Sum(rhs),rhsMax =   5.00791658142319E-10  1.82379939688987E-02
 cg2d: Sum(rhs),rhsMax =   5.00856744967138E-10  1.82375888559026E-02
 cg2d: Sum(rhs),rhsMax =   5.00902638811418E-10  1.82371867026900E-02
 cg2d: Sum(rhs),rhsMax =   5.00957192395290E-10  1.82367880072490E-02
 cg2d: Sum(rhs),rhsMax =   5.01014771336905E-10  1.82363932559374E-02
 cg2d: Sum(rhs),rhsMax =   5.01061664381908E-10  1.82360029139508E-02
 cg2d: Sum(rhs),rhsMax =   5.01101674044158E-10  1.82356174282950E-02
 cg2d: Sum(rhs),rhsMax =   5.01154007181981E-10  1.82352372241312E-02
 cg2d: Sum(rhs),rhsMax =   5.01199109992356E-10  1.82348626989672E-02
 cg2d: Sum(rhs),rhsMax =   5.01247307549413E-10  1.82344942224825E-02
 cg2d: Sum(rhs),rhsMax =   5.01294394883445E-10  1.82341321380587E-02
 cg2d: Sum(rhs),rhsMax =   5.01348212944563E-10  1.82337772812659E-02
 cg2d: Sum(rhs),rhsMax =   5.01380853501487E-10  1.82334299560186E-02
 cg2d: Sum(rhs),rhsMax =   5.01418254139629E-10  1.82330894880490E-02
 cg2d: Sum(rhs),rhsMax =   5.01468838676189E-10  1.82327569852515E-02
 cg2d: Sum(rhs),rhsMax =   5.01523933493786E-10  1.82324317082955E-02
 cg2d: Sum(rhs),rhsMax =   5.01575420086553E-10  1.82321146789486E-02
 cg2d: Sum(rhs),rhsMax =   5.01630140203879E-10  1.82318050788820E-02
 cg2d: Sum(rhs),rhsMax =   5.01671801322878E-10  1.82315038473649E-02
 cg2d: Sum(rhs),rhsMax =   5.01709049305354E-10  1.82312100850683E-02
 cg2d: Sum(rhs),rhsMax =   5.01752750459161E-10  1.82309246474536E-02
 cg2d: Sum(rhs),rhsMax =   5.01802821517572E-10  1.82306465521131E-02
 cg2d: Sum(rhs),rhsMax =   5.01846425526864E-10  1.82303765734090E-02
 cg2d: Sum(rhs),rhsMax =   5.01887836845683E-10  1.82301136510400E-02
 cg2d: Sum(rhs),rhsMax =   5.01943972497365E-10  1.82298584784824E-02
 cg2d: Sum(rhs),rhsMax =   5.01993974166837E-10  1.82296099188056E-02
 cg2d: Sum(rhs),rhsMax =   5.02028932314325E-10  1.82293685911886E-02
 cg2d: Sum(rhs),rhsMax =   5.02075866992691E-10  1.82291332899191E-02
 cg2d: Sum(rhs),rhsMax =   5.02125133139408E-10  1.82289045656616E-02
 cg2d: Sum(rhs),rhsMax =   5.02182920247840E-10  1.82286811485086E-02
 cg2d: Sum(rhs),rhsMax =   5.02214991815464E-10  1.82284635329825E-02
 cg2d: Sum(rhs),rhsMax =   5.02264840829270E-10  1.82282503672960E-02
 cg2d: Sum(rhs),rhsMax =   5.02321892414948E-10  1.82280420813792E-02
 cg2d: Sum(rhs),rhsMax =   5.02368299737377E-10  1.82278373122600E-02
 cg2d: Sum(rhs),rhsMax =   5.02418107117819E-10  1.82276364625921E-02
 cg2d: Sum(rhs),rhsMax =   5.02463876062009E-10  1.82274381357151E-02
 cg2d: Sum(rhs),rhsMax =   5.02492131237986E-10  1.82272427095471E-02
 cg2d: Sum(rhs),rhsMax =   5.02535651980551E-10  1.82270487657382E-02
 cg2d: Sum(rhs),rhsMax =   5.02590288831151E-10  1.82268566680763E-02
 cg2d: Sum(rhs),rhsMax =   5.02646799183104E-10  1.82266649936896E-02
 cg2d: Sum(rhs),rhsMax =   5.02690444825760E-10  1.82264741058844E-02
 cg2d: Sum(rhs),rhsMax =   5.02733230045571E-10  1.82262825850228E-02
 cg2d: Sum(rhs),rhsMax =   5.02782024347503E-10  1.82260908021525E-02
 cg2d: Sum(rhs),rhsMax =   5.02835953430925E-10  1.82258973578068E-02
 cg2d: Sum(rhs),rhsMax =   5.02883720776559E-10  1.82257026454089E-02
 cg2d: Sum(rhs),rhsMax =   5.02925326384407E-10  1.82255052909317E-02
 cg2d: Sum(rhs),rhsMax =   5.02978256267106E-10  1.82253057226235E-02
 cg2d: Sum(rhs),rhsMax =   5.03010716412788E-10  1.82251026064448E-02
 cg2d: Sum(rhs),rhsMax =   5.03042399402354E-10  1.82248964148304E-02
 cg2d: Sum(rhs),rhsMax =   5.03093969261847E-10  1.82246858665112E-02
 cg2d: Sum(rhs),rhsMax =   5.03134173213127E-10  1.82244714896950E-02
 cg2d: Sum(rhs),rhsMax =   5.03177291499846E-10  1.82242520612269E-02
 cg2d: Sum(rhs),rhsMax =   5.03210959013067E-10  1.82240281723240E-02
 cg2d: Sum(rhs),rhsMax =   5.03245473071345E-10  1.82237986706192E-02
 cg2d: Sum(rhs),rhsMax =   5.03311017863162E-10  1.82235642166894E-02
 cg2d: Sum(rhs),rhsMax =   5.03353483893854E-10  1.82233237327010E-02
 cg2d: Sum(rhs),rhsMax =   5.03405178653438E-10  1.82230779545123E-02
 cg2d: Sum(rhs),rhsMax =   5.03442440513702E-10  1.82228258856344E-02
 cg2d: Sum(rhs),rhsMax =   5.03488181702316E-10  1.82225683400624E-02
 cg2d: Sum(rhs),rhsMax =   5.03548119867858E-10  1.82223044020135E-02
 cg2d: Sum(rhs),rhsMax =   5.03590863454306E-10  1.82220349679945E-02
 cg2d: Sum(rhs),rhsMax =   5.03625904868521E-10  1.82217592051804E-02
 cg2d: Sum(rhs),rhsMax =   5.03682581753928E-10  1.82214780914083E-02
 cg2d: Sum(rhs),rhsMax =   5.03735955725837E-10  1.82211908751274E-02
 cg2d: Sum(rhs),rhsMax =   5.03781252825242E-10  1.82208986118149E-02
 cg2d: Sum(rhs),rhsMax =   5.03827896070064E-10  1.82206006300183E-02
 cg2d: Sum(rhs),rhsMax =   5.03866198764413E-10  1.82202980607416E-02
 cg2d: Sum(rhs),rhsMax =   5.03925692840745E-10  1.82199903052653E-02
 cg2d: Sum(rhs),rhsMax =   5.03960803643899E-10  1.82196785657027E-02
 cg2d: Sum(rhs),rhsMax =   5.04009375901227E-10  1.82193623371675E-02
 cg2d: Sum(rhs),rhsMax =   5.04060349015845E-10  1.82190427675651E-02
 cg2d: Sum(rhs),rhsMax =   5.04109434751321E-10  1.82187198598311E-02
 cg2d: Sum(rhs),rhsMax =   5.04154745728513E-10  1.82183942447587E-02
 cg2d: Sum(rhs),rhsMax =   5.04215474927960E-10  1.82180663769047E-02
 cg2d: Sum(rhs),rhsMax =   5.04257344213777E-10  1.82177367295315E-02
 cg2d: Sum(rhs),rhsMax =   5.04310496141080E-10  1.82174057899807E-02
 cg2d: Sum(rhs),rhsMax =   5.04378969146124E-10  1.82170740636789E-02
 cg2d: Sum(rhs),rhsMax =   5.04430122671984E-10  1.82167420629195E-02
 cg2d: Sum(rhs),rhsMax =   5.04486050156849E-10  1.82164103097431E-02
 cg2d: Sum(rhs),rhsMax =   5.04527170042124E-10  1.82160793330366E-02
 cg2d: Sum(rhs),rhsMax =   5.04572453263741E-10  1.82157496597743E-02
 cg2d: Sum(rhs),rhsMax =   5.04623010044725E-10  1.82154218188823E-02
 cg2d: Sum(rhs),rhsMax =   5.04669889211939E-10  1.82150963347672E-02
 cg2d: Sum(rhs),rhsMax =   5.04727357131252E-10  1.82147737221402E-02
 cg2d: Sum(rhs),rhsMax =   5.04770114595487E-10  1.82144544874818E-02
 cg2d: Sum(rhs),rhsMax =   5.04820615865320E-10  1.82141391241727E-02
 cg2d: Sum(rhs),rhsMax =   5.04868188921925E-10  1.82138281081813E-02
 cg2d: Sum(rhs),rhsMax =   5.04924754785030E-10  1.82135218966069E-02
 cg2d: Sum(rhs),rhsMax =   5.04984942750752E-10  1.82132209270255E-02
 cg2d: Sum(rhs),rhsMax =   5.05024355668127E-10  1.82129256074196E-02
 cg2d: Sum(rhs),rhsMax =   5.05083988522337E-10  1.82126363256131E-02
 cg2d: Sum(rhs),rhsMax =   5.05136737993794E-10  1.82123534332338E-02
 cg2d: Sum(rhs),rhsMax =   5.05185282495546E-10  1.82120772543729E-02
 cg2d: Sum(rhs),rhsMax =   5.05247566007228E-10  1.82118080809855E-02
 cg2d: Sum(rhs),rhsMax =   5.05292488406361E-10  1.82115461708523E-02
 cg2d: Sum(rhs),rhsMax =   5.05338437761793E-10  1.82112917375445E-02
 cg2d: Sum(rhs),rhsMax =   5.05378155990499E-10  1.82110449629614E-02
 cg2d: Sum(rhs),rhsMax =   5.05420261198708E-10  1.82108059847005E-02
 cg2d: Sum(rhs),rhsMax =   5.05471442480143E-10  1.82105749077670E-02
 cg2d: Sum(rhs),rhsMax =   5.05515310167404E-10  1.82103517784790E-02
 cg2d: Sum(rhs),rhsMax =   5.05562772201706E-10  1.82101366147095E-02
 cg2d: Sum(rhs),rhsMax =   5.05596939315289E-10  1.82099293914977E-02
 cg2d: Sum(rhs),rhsMax =   5.05647551607424E-10  1.82097300387922E-02
 cg2d: Sum(rhs),rhsMax =   5.05693376062766E-10  1.82095384439226E-02
 cg2d: Sum(rhs),rhsMax =   5.05740171963254E-10  1.82093544467858E-02
 cg2d: Sum(rhs),rhsMax =   5.05796571292905E-10  1.82091778456318E-02
 cg2d: Sum(rhs),rhsMax =   5.05850347720660E-10  1.82090084099604E-02
 cg2d: Sum(rhs),rhsMax =   5.05896546876272E-10  1.82088458632090E-02
 cg2d: Sum(rhs),rhsMax =   5.05943301143397E-10  1.82086898879476E-02
 cg2d: Sum(rhs),rhsMax =   5.05997549415937E-10  1.82085401216534E-02
 cg2d: Sum(rhs),rhsMax =   5.06045996773175E-10  1.82083961732577E-02
 cg2d: Sum(rhs),rhsMax =   5.06088226881474E-10  1.82082576150245E-02
 cg2d: Sum(rhs),rhsMax =   5.06126543453611E-10  1.82081239841739E-02
 cg2d: Sum(rhs),rhsMax =   5.06181596637845E-10  1.82079947942186E-02
 cg2d: Sum(rhs),rhsMax =   5.06224881458017E-10  1.82078695255670E-02
 cg2d: Sum(rhs),rhsMax =   5.06276007228301E-10  1.82077476328350E-02
 cg2d: Sum(rhs),rhsMax =   5.06316905068971E-10  1.82076285493601E-02
 cg2d: Sum(rhs),rhsMax =   5.06353362017542E-10  1.82075116915633E-02
 cg2d: Sum(rhs),rhsMax =   5.06401462430084E-10  1.82073964518727E-02
 cg2d: Sum(rhs),rhsMax =   5.06449465698111E-10  1.82072822085745E-02
 cg2d: Sum(rhs),rhsMax =   5.06500577590607E-10  1.82071683266993E-02
 cg2d: Sum(rhs),rhsMax =   5.06544819978139E-10  1.82070541652283E-02
 cg2d: Sum(rhs),rhsMax =   5.06579403425356E-10  1.82069390761527E-02
 cg2d: Sum(rhs),rhsMax =   5.06619593498847E-10  1.82068224065158E-02
 cg2d: Sum(rhs),rhsMax =   5.06663627719561E-10  1.82067035050671E-02
 cg2d: Sum(rhs),rhsMax =   5.06707509284610E-10  1.82065817214223E-02
 cg2d: Sum(rhs),rhsMax =   5.06754763152095E-10  1.82064564132773E-02
 cg2d: Sum(rhs),rhsMax =   5.06797701027573E-10  1.82063269387597E-02
 cg2d: Sum(rhs),rhsMax =   5.06842998126977E-10  1.82061926880263E-02
 cg2d: Sum(rhs),rhsMax =   5.06877373407377E-10  1.82060530513957E-02
 cg2d: Sum(rhs),rhsMax =   5.06930206145562E-10  1.82059074271021E-02
 Computing Diagnostic #    26 "THETA   " (list#  1) Parms "SMR     MR      ", Count=     144
 Computing Diagnostic #    27 "SALT    " (list#  1) Parms "SMR     MR      ", Count=     144
 Computing Diagnostic #    30 "UVEL    " (list#  1) Parms "UUR     MR      ", Count=     144
             Vector  Mate for "UVEL    " :  Diagnostic #     31 "VVEL    " exists
 Computing Diagnostic #    32 "WVEL    " (list#  1) Parms "WM      LR      ", Count=     144
 Computing Diagnostic #    31 "VVEL    " (list#  1) Parms "VVR     MR      ", Count=     144
             Vector  Mate for "VVEL    " :  Diagnostic #     30 "UVEL    " exists
 Computing Diagnostic #   197 "BRGfwFlx" (list#  2) Parms "SM      MR      ", Count=     144
 Computing Diagnostic #   198 "BRGhtFlx" (list#  2) Parms "SM      MR      ", Count=     144
 Computing Diagnostic #   199 "BRGmltRt" (list#  2) Parms "SM      MR      ", Count=     144
 Computing Diagnostic #   201 "BRG_TauX" (list#  2) Parms "UU      MR      ", Count=    1728
 Computing Diagnostic #   202 "BRG_TauY" (list#  2) Parms "VV      MR      ", Count=    1728
 Computing Diagnostic #   203 "BRGhFacC" (list#  2) Parms "SM      MR      ", Count=    1728
 cg2d: Sum(rhs),rhsMax =   5.06976807757020E-10  1.82057552474218E-02
 cg2d: Sum(rhs),rhsMax =   5.07022451801120E-10  1.82055959668209E-02
 cg2d: Sum(rhs),rhsMax =   5.07065681110141E-10  1.82054290619961E-02
 cg2d: Sum(rhs),rhsMax =   5.07110201053429E-10  1.82052550402097E-02
 cg2d: Sum(rhs),rhsMax =   5.07164921170755E-10  1.82050779552029E-02
 cg2d: Sum(rhs),rhsMax =   5.07202502220139E-10  1.82048865162571E-02
 cg2d: Sum(rhs),rhsMax =   5.07258221538187E-10  1.82046910852033E-02
 cg2d: Sum(rhs),rhsMax =   5.07310152220164E-10  1.82044805324935E-02
 cg2d: Sum(rhs),rhsMax =   5.07337838406841E-10  1.82042652248628E-02
 cg2d: Sum(rhs),rhsMax =   5.07380734648955E-10  1.82040341279024E-02
 cg2d: Sum(rhs),rhsMax =   5.07418801420911E-10  1.82037976803724E-02
 cg2d: Sum(rhs),rhsMax =   5.07471939470427E-10  1.82035449358901E-02
 cg2d: Sum(rhs),rhsMax =   5.07521288883872E-10  1.82032864042901E-02
 cg2d: Sum(rhs),rhsMax =   5.07563366336505E-10  1.82030112452025E-02
 cg2d: Sum(rhs),rhsMax =   5.07608871602727E-10  1.82027301319387E-02
 cg2d: Sum(rhs),rhsMax =   5.07649158820733E-10  1.82024323031047E-02
 cg2d: Sum(rhs),rhsMax =   5.07703004637428E-10  1.82021284244824E-02
 cg2d: Sum(rhs),rhsMax =   5.07749148281889E-10  1.82018078296971E-02
 cg2d: Sum(rhs),rhsMax =   5.07799260973663E-10  1.82014812596016E-02
 cg2d: Sum(rhs),rhsMax =   5.07859143628053E-10  1.82011381303584E-02
 cg2d: Sum(rhs),rhsMax =   5.07908146096803E-10  1.82007892604959E-02
 cg2d: Sum(rhs),rhsMax =   5.07959174722572E-10  1.82004241527880E-02
 cg2d: Sum(rhs),rhsMax =   5.08004707744369E-10  1.82000536934270E-02
 cg2d: Sum(rhs),rhsMax =   5.08058151105217E-10  1.81996674705643E-02
 cg2d: Sum(rhs),rhsMax =   5.08116257402769E-10  1.81992764360925E-02
 cg2d: Sum(rhs),rhsMax =   5.08175668212374E-10  1.81988702541498E-02
 cg2d: Sum(rhs),rhsMax =   5.08246236763377E-10  1.81984599358558E-02
 cg2d: Sum(rhs),rhsMax =   5.08296266188424E-10  1.81980352156432E-02
 cg2d: Sum(rhs),rhsMax =   5.08348280137128E-10  1.81976071567622E-02
 cg2d: Sum(rhs),rhsMax =   5.08398850795899E-10  1.81971655546201E-02
 cg2d: Sum(rhs),rhsMax =   5.08452169256657E-10  1.81967215168108E-02
 cg2d: Sum(rhs),rhsMax =   5.08509817587210E-10  1.81962648926905E-02
 cg2d: Sum(rhs),rhsMax =   5.08567660206793E-10  1.81958068223127E-02
 cg2d: Sum(rhs),rhsMax =   5.08613609562225E-10  1.81953371996361E-02
 cg2d: Sum(rhs),rhsMax =   5.08655936815039E-10  1.81948671877054E-02
 cg2d: Sum(rhs),rhsMax =   5.08716402336518E-10  1.81943867154897E-02
 cg2d: Sum(rhs),rhsMax =   5.08777048269238E-10  1.81939069602491E-02
 cg2d: Sum(rhs),rhsMax =   5.08834641088640E-10  1.81934178747230E-02
 cg2d: Sum(rhs),rhsMax =   5.08890929395989E-10  1.81929306381925E-02
 cg2d: Sum(rhs),rhsMax =   5.08942360477604E-10  1.81924352163157E-02
 cg2d: Sum(rhs),rhsMax =   5.09000341875065E-10  1.81919427841508E-02
 cg2d: Sum(rhs),rhsMax =   5.09056269359931E-10  1.81914433092352E-02
 cg2d: Sum(rhs),rhsMax =   5.09096723111391E-10  1.81909479506367E-02
 cg2d: Sum(rhs),rhsMax =   5.09148306848672E-10  1.81904466676122E-02
 cg2d: Sum(rhs),rhsMax =   5.09202222054306E-10  1.81899505946397E-02
 cg2d: Sum(rhs),rhsMax =   5.09255221325944E-10  1.81894496738351E-02
 cg2d: Sum(rhs),rhsMax =   5.09317296670808E-10  1.81889550048893E-02
 cg2d: Sum(rhs),rhsMax =   5.09372044543710E-10  1.81884565072319E-02
 cg2d: Sum(rhs),rhsMax =   5.09422157235484E-10  1.81879652364124E-02
 cg2d: Sum(rhs),rhsMax =   5.09466607789832E-10  1.81874710790155E-02
 cg2d: Sum(rhs),rhsMax =   5.09519926250590E-10  1.81869850418022E-02
 cg2d: Sum(rhs),rhsMax =   5.09584374697170E-10  1.81864969710094E-02
 cg2d: Sum(rhs),rhsMax =   5.09635625367544E-10  1.81860178172685E-02
 cg2d: Sum(rhs),rhsMax =   5.09683573124420E-10  1.81855373758388E-02
 cg2d: Sum(rhs),rhsMax =   5.09746744814521E-10  1.81850665385902E-02
 cg2d: Sum(rhs),rhsMax =   5.09793471326070E-10  1.81845950621186E-02
 cg2d: Sum(rhs),rhsMax =   5.09846789786828E-10  1.81841337644366E-02
 cg2d: Sum(rhs),rhsMax =   5.09903827494718E-10  1.81836723276987E-02
 cg2d: Sum(rhs),rhsMax =   5.09964001582652E-10  1.81832215174035E-02
 cg2d: Sum(rhs),rhsMax =   5.10008799081696E-10  1.81827709920184E-02
 cg2d: Sum(rhs),rhsMax =   5.10052527991078E-10  1.81823314416564E-02
 cg2d: Sum(rhs),rhsMax =   5.10100794937074E-10  1.81818924666086E-02
 cg2d: Sum(rhs),rhsMax =   5.10151518251512E-10  1.81814646890022E-02
 cg2d: Sum(rhs),rhsMax =   5.10209832715880E-10  1.81810376539465E-02
 cg2d: Sum(rhs),rhsMax =   5.10259806629776E-10  1.81806219165155E-02
 cg2d: Sum(rhs),rhsMax =   5.10308517664981E-10  1.81802069702311E-02
 cg2d: Sum(rhs),rhsMax =   5.10356465421857E-10  1.81798033035858E-02
 cg2d: Sum(rhs),rhsMax =   5.10405190334851E-10  1.81794003622065E-02
 cg2d: Sum(rhs),rhsMax =   5.10455566704593E-10  1.81790085716986E-02
 cg2d: Sum(rhs),rhsMax =   5.10514297502596E-10  1.81786173359135E-02
 cg2d: Sum(rhs),rhsMax =   5.10552725097035E-10  1.81782370248317E-02
 cg2d: Sum(rhs),rhsMax =   5.10609513004745E-10  1.81778570009066E-02
 cg2d: Sum(rhs),rhsMax =   5.10655684404782E-10  1.81774875854275E-02
 cg2d: Sum(rhs),rhsMax =   5.10710806977954E-10  1.81770666210694E-02
 cg2d: Sum(rhs),rhsMax =   5.10763320527019E-10  1.81766180135858E-02
 cg2d: Sum(rhs),rhsMax =   5.10827172228723E-10  1.81761691548648E-02
 cg2d: Sum(rhs),rhsMax =   5.10881323356749E-10  1.81757318332205E-02
 cg2d: Sum(rhs),rhsMax =   5.10929229480261E-10  1.81752951373062E-02
 cg2d: Sum(rhs),rhsMax =   5.10992873015148E-10  1.81748696399197E-02
 cg2d: Sum(rhs),rhsMax =   5.11053269147688E-10  1.81744450290788E-02
 cg2d: Sum(rhs),rhsMax =   5.11109085610251E-10  1.81740318884655E-02
 cg2d: Sum(rhs),rhsMax =   5.11169107042519E-10  1.81736198627503E-02
 cg2d: Sum(rhs),rhsMax =   5.11218817278447E-10  1.81732194877226E-02
 cg2d: Sum(rhs),rhsMax =   5.11263142932705E-10  1.81728203770229E-02
 cg2d: Sum(rhs),rhsMax =   5.11312353568272E-10  1.81724330185578E-02
 cg2d: Sum(rhs),rhsMax =   5.11375303213768E-10  1.81720469982536E-02
 cg2d: Sum(rhs),rhsMax =   5.11412773240849E-10  1.81716727620162E-02
 cg2d: Sum(rhs),rhsMax =   5.11469824826527E-10  1.81712998639582E-02
 cg2d: Sum(rhs),rhsMax =   5.11514150480785E-10  1.81709387102707E-02
 cg2d: Sum(rhs),rhsMax =   5.11573672312693E-10  1.81705788304719E-02
 cg2d: Sum(rhs),rhsMax =   5.11619718812639E-10  1.81702305906277E-02
 cg2d: Sum(rhs),rhsMax =   5.11667472280486E-10  1.81698834977624E-02
 cg2d: Sum(rhs),rhsMax =   5.11730519070497E-10  1.81695478813634E-02
 cg2d: Sum(rhs),rhsMax =   5.11784170598162E-10  1.81692132276226E-02
 cg2d: Sum(rhs),rhsMax =   5.11828024407635E-10  1.81688898313598E-02
 cg2d: Sum(rhs),rhsMax =   5.11872280672954E-10  1.81685671616759E-02
 cg2d: Sum(rhs),rhsMax =   5.11921852131003E-10  1.81682554849856E-02
 cg2d: Sum(rhs),rhsMax =   5.11961514848558E-10  1.81679442602993E-02
 cg2d: Sum(rhs),rhsMax =   5.12011724684847E-10  1.81676437226541E-02
 cg2d: Sum(rhs),rhsMax =   5.12057465873461E-10  1.81673433138398E-02
 cg2d: Sum(rhs),rhsMax =   5.12093409343883E-10  1.81670532424240E-02
 cg2d: Sum(rhs),rhsMax =   5.12142314668118E-10  1.81667629406500E-02
 cg2d: Sum(rhs),rhsMax =   5.12196049462510E-10  1.81664825969722E-02
 cg2d: Sum(rhs),rhsMax =   5.12254252904576E-10  1.81662016347244E-02
 cg2d: Sum(rhs),rhsMax =   5.12295872390212E-10  1.81659302217840E-02
 cg2d: Sum(rhs),rhsMax =   5.12349190850969E-10  1.81656577797375E-02
 cg2d: Sum(rhs),rhsMax =   5.12394945917372E-10  1.81653944578244E-02
 cg2d: Sum(rhs),rhsMax =   5.12441672428920E-10  1.81651297080022E-02
 cg2d: Sum(rhs),rhsMax =   5.12496017845976E-10  1.81648737017350E-02
 cg2d: Sum(rhs),rhsMax =   5.12547226882987E-10  1.81646158659190E-02
 cg2d: Sum(rhs),rhsMax =   5.12589110046591E-10  1.81643663186680E-02
 cg2d: Sum(rhs),rhsMax =   5.12639500294121E-10  1.81641144869763E-02
 cg2d: Sum(rhs),rhsMax =   5.12698467014516E-10  1.81638704848085E-02
 cg2d: Sum(rhs),rhsMax =   5.12734812940785E-10  1.81636237435784E-02
 cg2d: Sum(rhs),rhsMax =   5.12775988337211E-10  1.81633843752874E-02
 cg2d: Sum(rhs),rhsMax =   5.12814707365195E-10  1.81631418168139E-02
 cg2d: Sum(rhs),rhsMax =   5.12862280421800E-10  1.81629061673757E-02
 cg2d: Sum(rhs),rhsMax =   5.12919068329509E-10  1.81626668712968E-02
 cg2d: Sum(rhs),rhsMax =   5.12958633902549E-10  1.81624340305207E-02
 cg2d: Sum(rhs),rhsMax =   5.13015518954774E-10  1.81621971077601E-02
 cg2d: Sum(rhs),rhsMax =   5.13066492069392E-10  1.81619662026824E-02
 cg2d: Sum(rhs),rhsMax =   5.13123279977101E-10  1.81617307889406E-02
 cg2d: Sum(rhs),rhsMax =   5.13163692095198E-10  1.81615009701594E-02
 cg2d: Sum(rhs),rhsMax =   5.13209766350720E-10  1.81612662353473E-02
 cg2d: Sum(rhs),rhsMax =   5.13254619360914E-10  1.81610366867698E-02
 cg2d: Sum(rhs),rhsMax =   5.13311046446141E-10  1.81608018344334E-02
 cg2d: Sum(rhs),rhsMax =   5.13355191689158E-10  1.81605717868469E-02
 cg2d: Sum(rhs),rhsMax =   5.13389816769738E-10  1.81603360695119E-02
 cg2d: Sum(rhs),rhsMax =   5.13436612670226E-10  1.81601047976381E-02
 cg2d: Sum(rhs),rhsMax =   5.13481965280782E-10  1.81598675195546E-02
 cg2d: Sum(rhs),rhsMax =   5.13528039536304E-10  1.81596343575771E-02
 cg2d: Sum(rhs),rhsMax =   5.13581510652728E-10  1.81593949301224E-02
 cg2d: Sum(rhs),rhsMax =   5.13626502440800E-10  1.81591591717655E-02
 cg2d: Sum(rhs),rhsMax =   5.13658504619485E-10  1.81589170718956E-02
 cg2d: Sum(rhs),rhsMax =   5.13713210859024E-10  1.81586781740168E-02
 cg2d: Sum(rhs),rhsMax =   5.13766890142264E-10  1.81584328806319E-02
 cg2d: Sum(rhs),rhsMax =   5.13811534985642E-10  1.81581903904845E-02
 cg2d: Sum(rhs),rhsMax =   5.13861994622111E-10  1.81579414382408E-02
 cg2d: Sum(rhs),rhsMax =   5.13910178301380E-10  1.81576949581009E-02
 cg2d: Sum(rhs),rhsMax =   5.13960457526608E-10  1.81574419971780E-02
 cg2d: Sum(rhs),rhsMax =   5.13997885920325E-10  1.81571912490356E-02
 cg2d: Sum(rhs),rhsMax =   5.14049969257968E-10  1.81569339781804E-02
 cg2d: Sum(rhs),rhsMax =   5.14096612502790E-10  1.81566787118283E-02
 cg2d: Sum(rhs),rhsMax =   5.14137413198945E-10  1.81564169027467E-02
 Computing Diagnostic #    26 "THETA   " (list#  1) Parms "SMR     MR      ", Count=     144
 Computing Diagnostic #    27 "SALT    " (list#  1) Parms "SMR     MR      ", Count=     144
 Computing Diagnostic #    30 "UVEL    " (list#  1) Parms "UUR     MR      ", Count=     144
             Vector  Mate for "UVEL    " :  Diagnostic #     31 "VVEL    " exists
 Computing Diagnostic #    32 "WVEL    " (list#  1) Parms "WM      LR      ", Count=     144
 Computing Diagnostic #    31 "VVEL    " (list#  1) Parms "VVR     MR      ", Count=     144
             Vector  Mate for "VVEL    " :  Diagnostic #     30 "UVEL    " exists
 Computing Diagnostic #   197 "BRGfwFlx" (list#  2) Parms "SM      MR      ", Count=     144
 Computing Diagnostic #   198 "BRGhtFlx" (list#  2) Parms "SM      MR      ", Count=     144
 Computing Diagnostic #   199 "BRGmltRt" (list#  2) Parms "SM      MR      ", Count=     144
 Computing Diagnostic #   201 "BRG_TauX" (list#  2) Parms "UU      MR      ", Count=    1728
 Computing Diagnostic #   202 "BRG_TauY" (list#  2) Parms "VV      MR      ", Count=    1728
 Computing Diagnostic #   203 "BRGhFacC" (list#  2) Parms "SM      MR      ", Count=    1728
 cg2d: Sum(rhs),rhsMax =   5.14187678546385E-10  1.81561569782713E-02
 cg2d: Sum(rhs),rhsMax =   5.14236653259559E-10  1.81558904857636E-02
 cg2d: Sum(rhs),rhsMax =   5.14289680286772E-10  1.81556258200673E-02
 cg2d: Sum(rhs),rhsMax =   5.14330064649293E-10  1.81553545954758E-02
 cg2d: Sum(rhs),rhsMax =   5.14383410865626E-10  1.81550851971708E-02
 cg2d: Sum(rhs),rhsMax =   5.14425405051533E-10  1.81548092708263E-02
 cg2d: Sum(rhs),rhsMax =   5.14470951951118E-10  1.81545352200595E-02
 cg2d: Sum(rhs),rhsMax =   5.14523146311063E-10  1.81542547148935E-02
 cg2d: Sum(rhs),rhsMax =   5.14563627818099E-10  1.81539761679066E-02
 cg2d: Sum(rhs),rhsMax =   5.14605136281432E-10  1.81536912747594E-02
 cg2d: Sum(rhs),rhsMax =   5.14654888150723E-10  1.81534084635076E-02
 cg2d: Sum(rhs),rhsMax =   5.14695425168910E-10  1.81531194514706E-02
 cg2d: Sum(rhs),rhsMax =   5.14745621127410E-10  1.81528326772102E-02
 cg2d: Sum(rhs),rhsMax =   5.14795026052006E-10  1.81525398823064E-02
 cg2d: Sum(rhs),rhsMax =   5.14850093114028E-10  1.81522495161701E-02
 cg2d: Sum(rhs),rhsMax =   5.14896209002913E-10  1.81519533409074E-02
 cg2d: Sum(rhs),rhsMax =   5.14942061213830E-10  1.81516598132902E-02
 cg2d: Sum(rhs),rhsMax =   5.14995268652285E-10  1.81513607166347E-02
 cg2d: Sum(rhs),rhsMax =   5.15059328520806E-10  1.81510645167833E-02
 cg2d: Sum(rhs),rhsMax =   5.15115228250096E-10  1.81507630132459E-02
 cg2d: Sum(rhs),rhsMax =   5.15153780744626E-10  1.81504646774108E-02
 cg2d: Sum(rhs),rhsMax =   5.15193623873422E-10  1.81501613247346E-02
 cg2d: Sum(rhs),rhsMax =   5.15236173170841E-10  1.81498614287365E-02
 cg2d: Sum(rhs),rhsMax =   5.15285050739500E-10  1.81495568197650E-02
 cg2d: Sum(rhs),rhsMax =   5.15343670515200E-10  1.81492559738228E-02
 cg2d: Sum(rhs),rhsMax =   5.15389286803725E-10  1.81489507305077E-02
 cg2d: Sum(rhs),rhsMax =   5.15437706405386E-10  1.81486495578392E-02
 cg2d: Sum(rhs),rhsMax =   5.15476106244250E-10  1.81483443066938E-02
 cg2d: Sum(rhs),rhsMax =   5.15512479926095E-10  1.81480434462514E-02
 cg2d: Sum(rhs),rhsMax =   5.15563772229832E-10  1.81477388310509E-02
 cg2d: Sum(rhs),rhsMax =   5.15617715191041E-10  1.81474389200856E-02
 cg2d: Sum(rhs),rhsMax =   5.15656212174420E-10  1.81471355758934E-02
 cg2d: Sum(rhs),rhsMax =   5.15689449476220E-10  1.81468372488577E-02
 cg2d: Sum(rhs),rhsMax =   5.15744905116300E-10  1.81465357978778E-02
 cg2d: Sum(rhs),rhsMax =   5.15789105870468E-10  1.81462396627002E-02
 cg2d: Sum(rhs),rhsMax =   5.15844478243821E-10  1.81459407009747E-02
 cg2d: Sum(rhs),rhsMax =   5.15905526632388E-10  1.81456473366846E-02
 cg2d: Sum(rhs),rhsMax =   5.15964659886237E-10  1.81453514146698E-02
 cg2d: Sum(rhs),rhsMax =   5.16020393082073E-10  1.81450613483285E-02
 cg2d: Sum(rhs),rhsMax =   5.16076015255607E-10  1.81447689878650E-02
 cg2d: Sum(rhs),rhsMax =   5.16118731086479E-10  1.81444827232309E-02
 cg2d: Sum(rhs),rhsMax =   5.16174464282315E-10  1.81441943855939E-02
 cg2d: Sum(rhs),rhsMax =   5.16225256985692E-10  1.81439123405526E-02
 cg2d: Sum(rhs),rhsMax =   5.16283918394755E-10  1.81436284118173E-02
 cg2d: Sum(rhs),rhsMax =   5.16319806354026E-10  1.81433509399658E-02
 cg2d: Sum(rhs),rhsMax =   5.16364784264312E-10  1.81430717344754E-02
 cg2d: Sum(rhs),rhsMax =   5.16414008777666E-10  1.81427991100694E-02
 cg2d: Sum(rhs),rhsMax =   5.16458084631743E-10  1.81425248659619E-02
 cg2d: Sum(rhs),rhsMax =   5.16503576020177E-10  1.81422572910619E-02
 cg2d: Sum(rhs),rhsMax =   5.16553286256105E-10  1.81419881603878E-02
 cg2d: Sum(rhs),rhsMax =   5.16605133671355E-10  1.81417257353742E-02
 cg2d: Sum(rhs),rhsMax =   5.16651332826967E-10  1.81414617817761E-02
 cg2d: Sum(rhs),rhsMax =   5.16703166364429E-10  1.81412045285734E-02
 cg2d: Sum(rhs),rhsMax =   5.16751363921486E-10  1.81409457221550E-02
 cg2d: Sum(rhs),rhsMax =   5.16788292714843E-10  1.81406935681413E-02
 cg2d: Sum(rhs),rhsMax =   5.16833451036369E-10  1.81404397925092E-02
 cg2d: Sum(rhs),rhsMax =   5.16880399592523E-10  1.81401925706453E-02
 cg2d: Sum(rhs),rhsMax =   5.16928666538519E-10  1.81399436109272E-02
 cg2d: Sum(rhs),rhsMax =   5.16978751474717E-10  1.81397010609456E-02
 cg2d: Sum(rhs),rhsMax =   5.17023146517914E-10  1.81394566122158E-02
 cg2d: Sum(rhs),rhsMax =   5.17085790852079E-10  1.81392183842762E-02
 cg2d: Sum(rhs),rhsMax =   5.17121720444713E-10  1.81389780560640E-02
 cg2d: Sum(rhs),rhsMax =   5.17178216918879E-10  1.81387437209537E-02
 cg2d: Sum(rhs),rhsMax =   5.17227399798870E-10  1.81385070429480E-02
 cg2d: Sum(rhs),rhsMax =   5.17272391586943E-10  1.81382760934345E-02
 cg2d: Sum(rhs),rhsMax =   5.17321227522238E-10  1.81380425252370E-02
 cg2d: Sum(rhs),rhsMax =   5.17376391728774E-10  1.81378143869297E-02
 cg2d: Sum(rhs),rhsMax =   5.17420425949489E-10  1.81375833248208E-02
 cg2d: Sum(rhs),rhsMax =   5.17478906947311E-10  1.81373573688063E-02
 cg2d: Sum(rhs),rhsMax =   5.17531545396466E-10  1.81371281565059E-02
 cg2d: Sum(rhs),rhsMax =   5.17578008230046E-10  1.81369037023051E-02
 cg2d: Sum(rhs),rhsMax =   5.17623791052024E-10  1.81366756419918E-02
 cg2d: Sum(rhs),rhsMax =   5.17665535437750E-10  1.81364519770328E-02
 cg2d: Sum(rhs),rhsMax =   5.17720782911013E-10  1.81362243446007E-02
 cg2d: Sum(rhs),rhsMax =   5.17762180352044E-10  1.81360007345918E-02
 cg2d: Sum(rhs),rhsMax =   5.17818510292756E-10  1.81357727887544E-02
 cg2d: Sum(rhs),rhsMax =   5.17864376381461E-10  1.81355484934732E-02
 cg2d: Sum(rhs),rhsMax =   5.17912879249849E-10  1.81353194932196E-02
 cg2d: Sum(rhs),rhsMax =   5.17948295364334E-10  1.81350937747453E-02
 cg2d: Sum(rhs),rhsMax =   5.17997034155115E-10  1.81348629950919E-02
 cg2d: Sum(rhs),rhsMax =   5.18049839137724E-10  1.81346351382827E-02
 cg2d: Sum(rhs),rhsMax =   5.18099285695683E-10  1.81344018774376E-02
 cg2d: Sum(rhs),rhsMax =   5.18135062632652E-10  1.81341712027789E-02
 cg2d: Sum(rhs),rhsMax =   5.18191753395847E-10  1.81339348039283E-02
 cg2d: Sum(rhs),rhsMax =   5.18237397439947E-10  1.81337006779122E-02
 cg2d: Sum(rhs),rhsMax =   5.18282042283325E-10  1.81334605362084E-02
 cg2d: Sum(rhs),rhsMax =   5.18328879817176E-10  1.81332223877851E-02
 cg2d: Sum(rhs),rhsMax =   5.18376452873781E-10  1.81329779674435E-02
 cg2d: Sum(rhs),rhsMax =   5.18422346718062E-10  1.81327352989828E-02
 cg2d: Sum(rhs),rhsMax =   5.18473125543650E-10  1.81324861411075E-02
 cg2d: Sum(rhs),rhsMax =   5.18519366332626E-10  1.81322385362367E-02
 cg2d: Sum(rhs),rhsMax =   5.18560569484627E-10  1.81319842720883E-02
 cg2d: Sum(rhs),rhsMax =   5.18606393939969E-10  1.81317314103804E-02
 cg2d: Sum(rhs),rhsMax =   5.18665915771876E-10  1.81314717677701E-02
 cg2d: Sum(rhs),rhsMax =   5.18715015385141E-10  1.81312134259688E-02
 cg2d: Sum(rhs),rhsMax =   5.18770679192038E-10  1.81309482355641E-02
 cg2d: Sum(rhs),rhsMax =   5.18807344307426E-10  1.81306842996358E-02
 cg2d: Sum(rhs),rhsMax =   5.18858178644166E-10  1.81304135028806E-02
 cg2d: Sum(rhs),rhsMax =   5.18903822688266E-10  1.81301439681899E-02
 cg2d: Sum(rhs),rhsMax =   5.18946774441531E-10  1.81298676111885E-02
 cg2d: Sum(rhs),rhsMax =   5.18987547382110E-10  1.81295925815783E-02
 cg2d: Sum(rhs),rhsMax =   5.19045154079301E-10  1.81293108310755E-02
 cg2d: Sum(rhs),rhsMax =   5.19092741013694E-10  1.81290305269226E-02
 cg2d: Sum(rhs),rhsMax =   5.19140813670660E-10  1.81287436535999E-02
 cg2d: Sum(rhs),rhsMax =   5.19194062742478E-10  1.81284584788364E-02
 cg2d: Sum(rhs),rhsMax =   5.19240525576059E-10  1.81281669511474E-02
 cg2d: Sum(rhs),rhsMax =   5.19293150147426E-10  1.81278772423191E-02
 cg2d: Sum(rhs),rhsMax =   5.19341361582271E-10  1.81275814278022E-02
 cg2d: Sum(rhs),rhsMax =   5.19395179643389E-10  1.81272877324173E-02
 cg2d: Sum(rhs),rhsMax =   5.19429541046001E-10  1.81269882276914E-02
 cg2d: Sum(rhs),rhsMax =   5.19476142657460E-10  1.81266911361327E-02
 cg2d: Sum(rhs),rhsMax =   5.19529419484854E-10  1.81264235076369E-02
 cg2d: Sum(rhs),rhsMax =   5.19563350676044E-10  1.81262963107624E-02
 cg2d: Sum(rhs),rhsMax =   5.19606038751341E-10  1.81261663349768E-02
 cg2d: Sum(rhs),rhsMax =   5.19659357212099E-10  1.81260346727211E-02
 cg2d: Sum(rhs),rhsMax =   5.19703322043874E-10  1.81258948681246E-02
 cg2d: Sum(rhs),rhsMax =   5.19746370941654E-10  1.81257547914410E-02
 cg2d: Sum(rhs),rhsMax =   5.19793388886747E-10  1.81256059331821E-02
 cg2d: Sum(rhs),rhsMax =   5.19832524248365E-10  1.81254559657124E-02
 cg2d: Sum(rhs),rhsMax =   5.19877696447679E-10  1.81252964497584E-02
 cg2d: Sum(rhs),rhsMax =   5.19912890517560E-10  1.81251351034800E-02
 cg2d: Sum(rhs),rhsMax =   5.19959589273533E-10  1.81249635376835E-02
 cg2d: Sum(rhs),rhsMax =   5.19992424119486E-10  1.81247895129651E-02
 cg2d: Sum(rhs),rhsMax =   5.20039400431216E-10  1.81246046951460E-02
 cg2d: Sum(rhs),rhsMax =   5.20080589705429E-10  1.81244168887147E-02
 cg2d: Sum(rhs),rhsMax =   5.20127010905647E-10  1.81242178182764E-02
 cg2d: Sum(rhs),rhsMax =   5.20186976826764E-10  1.81240153319324E-02
 cg2d: Sum(rhs),rhsMax =   5.20223128464004E-10  1.81238012134185E-02
 cg2d: Sum(rhs),rhsMax =   5.20267162684718E-10  1.81235833568345E-02
 cg2d: Sum(rhs),rhsMax =   5.20320855845746E-10  1.81233536058876E-02
 cg2d: Sum(rhs),rhsMax =   5.20372273049574E-10  1.81231199031284E-02
 cg2d: Sum(rhs),rhsMax =   5.20416126859047E-10  1.81228741500752E-02
 cg2d: Sum(rhs),rhsMax =   5.20448670271456E-10  1.81226243372416E-02
 cg2d: Sum(rhs),rhsMax =   5.20492815514473E-10  1.81223624227265E-02
 cg2d: Sum(rhs),rhsMax =   5.20546175608594E-10  1.81220964455426E-02
 cg2d: Sum(rhs),rhsMax =   5.20590015540279E-10  1.81218184199445E-02
 cg2d: Sum(rhs),rhsMax =   5.20640516810111E-10  1.81215364283922E-02
 cg2d: Sum(rhs),rhsMax =   5.20704590556420E-10  1.81212425411215E-02
 cg2d: Sum(rhs),rhsMax =   5.20758131061783E-10  1.81209448826628E-02
 cg2d: Sum(rhs),rhsMax =   5.20811976878477E-10  1.81206355740087E-02
 cg2d: Sum(rhs),rhsMax =   5.20859966268716E-10  1.81203227804182E-02
 cg2d: Sum(rhs),rhsMax =   5.20899615108483E-10  1.81199986702974E-02
 cg2d: Sum(rhs),rhsMax =   5.20947202042876E-10  1.81196711370584E-02
 cg2d: Sum(rhs),rhsMax =   5.20996926156592E-10  1.81193327028936E-02
 Computing Diagnostic #    26 "THETA   " (list#  1) Parms "SMR     MR      ", Count=     144
 Computing Diagnostic #    27 "SALT    " (list#  1) Parms "SMR     MR      ", Count=     144
 Computing Diagnostic #    30 "UVEL    " (list#  1) Parms "UUR     MR      ", Count=     144
             Vector  Mate for "UVEL    " :  Diagnostic #     31 "VVEL    " exists
 Computing Diagnostic #    32 "WVEL    " (list#  1) Parms "WM      LR      ", Count=     144
 Computing Diagnostic #    31 "VVEL    " (list#  1) Parms "VVR     MR      ", Count=     144
             Vector  Mate for "VVEL    " :  Diagnostic #     30 "UVEL    " exists
 Computing Diagnostic #   197 "BRGfwFlx" (list#  2) Parms "SM      MR      ", Count=     144
 Computing Diagnostic #   198 "BRGhtFlx" (list#  2) Parms "SM      MR      ", Count=     144
 Computing Diagnostic #   199 "BRGmltRt" (list#  2) Parms "SM      MR      ", Count=     144
 Computing Diagnostic #   201 "BRG_TauX" (list#  2) Parms "UU      MR      ", Count=    1728
 Computing Diagnostic #   202 "BRG_TauY" (list#  2) Parms "VV      MR      ", Count=    1728
 Computing Diagnostic #   203 "BRGhFacC" (list#  2) Parms "SM      MR      ", Count=    1728
 cg2d: Sum(rhs),rhsMax =   5.21053672430938E-10  1.81189916039598E-02
 cg2d: Sum(rhs),rhsMax =   5.21110085638377E-10  1.81186400910829E-02
 cg2d: Sum(rhs),rhsMax =   5.21155035793086E-10  1.81182864237552E-02
 cg2d: Sum(rhs),rhsMax =   5.21209339576778E-10  1.81179228946793E-02
 cg2d: Sum(rhs),rhsMax =   5.21255857921510E-10  1.81175577818966E-02
 cg2d: Sum(rhs),rhsMax =   5.21311688261861E-10  1.81171834071720E-02
 cg2d: Sum(rhs),rhsMax =   5.21363299754718E-10  1.81168080685812E-02
 cg2d: Sum(rhs),rhsMax =   5.21416326781932E-10  1.81164241110507E-02
 cg2d: Sum(rhs),rhsMax =   5.21483342619256E-10  1.81160398437534E-02
 cg2d: Sum(rhs),rhsMax =   5.21534634922993E-10  1.81156476340749E-02
 cg2d: Sum(rhs),rhsMax =   5.21591603241944E-10  1.81152557984559E-02
 cg2d: Sum(rhs),rhsMax =   5.21643228612589E-10  1.81148567157516E-02
 cg2d: Sum(rhs),rhsMax =   5.21696200128652E-10  1.81144587048849E-02
 cg2d: Sum(rhs),rhsMax =   5.21765394778662E-10  1.81140541570898E-02
 cg2d: Sum(rhs),rhsMax =   5.21805390563124E-10  1.81136513847684E-02
 cg2d: Sum(rhs),rhsMax =   5.21851492574221E-10  1.81132427823750E-02
 cg2d: Sum(rhs),rhsMax =   5.21907808637145E-10  1.81128366563030E-02
 cg2d: Sum(rhs),rhsMax =   5.21962556510047E-10  1.81124254003943E-02
 cg2d: Sum(rhs),rhsMax =   5.22024437565882E-10  1.81120173047784E-02
 cg2d: Sum(rhs),rhsMax =   5.22080698117655E-10  1.81116047612017E-02
 cg2d: Sum(rhs),rhsMax =   5.22146034742654E-10  1.81111960400851E-02
 cg2d: Sum(rhs),rhsMax =   5.22209997466661E-10  1.81107835230446E-02
 cg2d: Sum(rhs),rhsMax =   5.22261858759698E-10  1.81103754598385E-02
 cg2d: Sum(rhs),rhsMax =   5.22304213768088E-10  1.81099642187592E-02
 cg2d: Sum(rhs),rhsMax =   5.22360710242253E-10  1.81095580227947E-02
 cg2d: Sum(rhs),rhsMax =   5.22411697234659E-10  1.81091492245291E-02
 cg2d: Sum(rhs),rhsMax =   5.22455204099437E-10  1.81087460165446E-02
 cg2d: Sum(rhs),rhsMax =   5.22518556200779E-10  1.81083407318027E-02
 cg2d: Sum(rhs),rhsMax =   5.22554999271563E-10  1.81079415321672E-02
 cg2d: Sum(rhs),rhsMax =   5.22590221097019E-10  1.81075407270056E-02
 cg2d: Sum(rhs),rhsMax =   5.22637211286536E-10  1.81071464440926E-02
 cg2d: Sum(rhs),rhsMax =   5.22709153738532E-10  1.81067509678551E-02
 cg2d: Sum(rhs),rhsMax =   5.22765331023578E-10  1.81063623907805E-02
 cg2d: Sum(rhs),rhsMax =   5.22806922753638E-10  1.81059729715390E-02
 cg2d: Sum(rhs),rhsMax =   5.22850818196474E-10  1.81055907656375E-02
 cg2d: Sum(rhs),rhsMax =   5.22899279431499E-10  1.81052080039730E-02
 cg2d: Sum(rhs),rhsMax =   5.22957691040382E-10  1.81048327048969E-02
 cg2d: Sum(rhs),rhsMax =   5.23014784259423E-10  1.81044570705630E-02
 cg2d: Sum(rhs),rhsMax =   5.23061913226819E-10  1.81040890831322E-02
 cg2d: Sum(rhs),rhsMax =   5.23099882854261E-10  1.81037209161985E-02
 cg2d: Sum(rhs),rhsMax =   5.23164706001111E-10  1.81033609897216E-02
 cg2d: Sum(rhs),rhsMax =   5.23211099445753E-10  1.81030024145621E-02
 cg2d: Sum(rhs),rhsMax =   5.23264265250845E-10  1.81026530038321E-02
 cg2d: Sum(rhs),rhsMax =   5.23313878342258E-10  1.81023047758127E-02
 cg2d: Sum(rhs),rhsMax =   5.23367363336469E-10  1.81019654705803E-02
 cg2d: Sum(rhs),rhsMax =   5.23422874487700E-10  1.81016270918115E-02
 cg2d: Sum(rhs),rhsMax =   5.23480245262498E-10  1.81012973463956E-02
 cg2d: Sum(rhs),rhsMax =   5.23526860751744E-10  1.81009682151596E-02
 cg2d: Sum(rhs),rhsMax =   5.23571561106273E-10  1.81006473713550E-02
 cg2d: Sum(rhs),rhsMax =   5.23625642845360E-10  1.81003267781068E-02
 cg2d: Sum(rhs),rhsMax =   5.23674353880565E-10  1.81000140814977E-02
 cg2d: Sum(rhs),rhsMax =   5.23709270394690E-10  1.80997012294087E-02
 cg2d: Sum(rhs),rhsMax =   5.23757884285381E-10  1.80993958485146E-02
 cg2d: Sum(rhs),rhsMax =   5.23799059681807E-10  1.80990898788809E-02
 cg2d: Sum(rhs),rhsMax =   5.23844898014936E-10  1.80987912323248E-02
 cg2d: Sum(rhs),rhsMax =   5.23895732351676E-10  1.80984915485250E-02
 cg2d: Sum(rhs),rhsMax =   5.23941029451080E-10  1.80981984172806E-02
 cg2d: Sum(rhs),rhsMax =   5.23988380463081E-10  1.80979037740126E-02
 cg2d: Sum(rhs),rhsMax =   5.24055132622436E-10  1.80976152128944E-02
 cg2d: Sum(rhs),rhsMax =   5.24091547937644E-10  1.80973246788799E-02
 cg2d: Sum(rhs),rhsMax =   5.24140231217274E-10  1.80970397617787E-02
 cg2d: Sum(rhs),rhsMax =   5.24183446648507E-10  1.80967524212445E-02
 cg2d: Sum(rhs),rhsMax =   5.24225177156445E-10  1.80964702518477E-02
 cg2d: Sum(rhs),rhsMax =   5.24280188707316E-10  1.80961852265787E-02
 cg2d: Sum(rhs),rhsMax =   5.24329413220670E-10  1.80959049526119E-02
 cg2d: Sum(rhs),rhsMax =   5.24371893129150E-10  1.80956214224429E-02
 cg2d: Sum(rhs),rhsMax =   5.24421187031443E-10  1.80953422523266E-02
 cg2d: Sum(rhs),rhsMax =   5.24452328787284E-10  1.80950594613291E-02
 cg2d: Sum(rhs),rhsMax =   5.24507201560276E-10  1.80947806792853E-02
 cg2d: Sum(rhs),rhsMax =   5.24550861080719E-10  1.80944979502169E-02
 cg2d: Sum(rhs),rhsMax =   5.24599336193532E-10  1.80942189228222E-02
 cg2d: Sum(rhs),rhsMax =   5.24654417133341E-10  1.80939356709574E-02
 cg2d: Sum(rhs),rhsMax =   5.24715687566513E-10  1.80936558610487E-02
 cg2d: Sum(rhs),rhsMax =   5.24755794373277E-10  1.80933715937164E-02
 cg2d: Sum(rhs),rhsMax =   5.24797177936520E-10  1.80930905565330E-02
 cg2d: Sum(rhs),rhsMax =   5.24846069382967E-10  1.80928048823068E-02
 cg2d: Sum(rhs),rhsMax =   5.24892684872214E-10  1.80925222772769E-02
 cg2d: Sum(rhs),rhsMax =   5.24945961699608E-10  1.80922349036229E-02
 cg2d: Sum(rhs),rhsMax =   5.24992063710705E-10  1.80919504882726E-02
 cg2d: Sum(rhs),rhsMax =   5.25038623688800E-10  1.80916612242214E-02
 cg2d: Sum(rhs),rhsMax =   5.25088500458182E-10  1.80913748544852E-02
 cg2d: Sum(rhs),rhsMax =   5.25137891504990E-10  1.80910836029557E-02
 cg2d: Sum(rhs),rhsMax =   5.25185908650805E-10  1.80907952314973E-02
 cg2d: Sum(rhs),rhsMax =   5.25228402437072E-10  1.80905019883165E-02
 cg2d: Sum(rhs),rhsMax =   5.25282747854128E-10  1.80902116509640E-02
 cg2d: Sum(rhs),rhsMax =   5.25335594470100E-10  1.80899164959033E-02
 cg2d: Sum(rhs),rhsMax =   5.25383847538308E-10  1.80896243123958E-02
 cg2d: Sum(rhs),rhsMax =   5.25421608998933E-10  1.80893273970595E-02
 cg2d: Sum(rhs),rhsMax =   5.25466267720098E-10  1.80890335530533E-02
 cg2d: Sum(rhs),rhsMax =   5.25506665960407E-10  1.80887350977118E-02
 cg2d: Sum(rhs),rhsMax =   5.25550436503153E-10  1.80884398401975E-02
 cg2d: Sum(rhs),rhsMax =   5.25612262047837E-10  1.80881401162249E-02
 cg2d: Sum(rhs),rhsMax =   5.25648621851893E-10  1.80878437400044E-02
 cg2d: Sum(rhs),rhsMax =   5.25702897880009E-10  1.80875430606280E-02
 cg2d: Sum(rhs),rhsMax =   5.25751497892912E-10  1.80872458958211E-02
 cg2d: Sum(rhs),rhsMax =   5.25795171291144E-10  1.80869446087525E-02
 cg2d: Sum(rhs),rhsMax =   5.25845908483369E-10  1.80866470086807E-02
 cg2d: Sum(rhs),rhsMax =   5.25886834079614E-10  1.80863451637828E-02
 cg2d: Sum(rhs),rhsMax =   5.25936613704481E-10  1.80860471872655E-02
 cg2d: Sum(rhs),rhsMax =   5.25988003152733E-10  1.80857454585560E-02
 cg2d: Sum(rhs),rhsMax =   5.26028554048708E-10  1.80854477848942E-02
 cg2d: Sum(rhs),rhsMax =   5.26081220253438E-10  1.80851465462465E-02
 cg2d: Sum(rhs),rhsMax =   5.26128043909502E-10  1.80848495408192E-02
 cg2d: Sum(rhs),rhsMax =   5.26181473392562E-10  1.80845491468311E-02
 cg2d: Sum(rhs),rhsMax =   5.26237955988940E-10  1.80842531477552E-02
 cg2d: Sum(rhs),rhsMax =   5.26288693181165E-10  1.80839539363431E-02
 cg2d: Sum(rhs),rhsMax =   5.26341303874744E-10  1.80836592297062E-02
 cg2d: Sum(rhs),rhsMax =   5.26401630618345E-10  1.80833615122134E-02
 cg2d: Sum(rhs),rhsMax =   5.26444665638337E-10  1.80830683353698E-02
 cg2d: Sum(rhs),rhsMax =   5.26501370279320E-10  1.80827723457107E-02
 cg2d: Sum(rhs),rhsMax =   5.26552593194118E-10  1.80824809325645E-02
 cg2d: Sum(rhs),rhsMax =   5.26594254313117E-10  1.80821868786936E-02
 cg2d: Sum(rhs),rhsMax =   5.26643159637352E-10  1.80818973982333E-02
 cg2d: Sum(rhs),rhsMax =   5.26693924585153E-10  1.80816054404735E-02
 cg2d: Sum(rhs),rhsMax =   5.26754376228844E-10  1.80813180283235E-02
 cg2d: Sum(rhs),rhsMax =   5.26799825983915E-10  1.80810282435189E-02
 cg2d: Sum(rhs),rhsMax =   5.26845525539166E-10  1.80807429247955E-02
 cg2d: Sum(rhs),rhsMax =   5.26889198937397E-10  1.80804553465284E-02
 cg2d: Sum(rhs),rhsMax =   5.26944474166235E-10  1.80801721482949E-02
 cg2d: Sum(rhs),rhsMax =   5.26997875893720E-10  1.80798867656244E-02
 cg2d: Sum(rhs),rhsMax =   5.27046545295562E-10  1.80796056247156E-02
 cg2d: Sum(rhs),rhsMax =   5.27098600877629E-10  1.80793223771502E-02
 cg2d: Sum(rhs),rhsMax =   5.27149407458793E-10  1.80790432260075E-02
 cg2d: Sum(rhs),rhsMax =   5.27203489197881E-10  1.80787620040578E-02
 cg2d: Sum(rhs),rhsMax =   5.27240626158054E-10  1.80784846769530E-02
 cg2d: Sum(rhs),rhsMax =   5.27298607555515E-10  1.80782053258055E-02
 cg2d: Sum(rhs),rhsMax =   5.27333510191852E-10  1.80779296708320E-02
 cg2d: Sum(rhs),rhsMax =   5.27388230309178E-10  1.80776520020081E-02
 cg2d: Sum(rhs),rhsMax =   5.27450902398918E-10  1.80773777859337E-02
 cg2d: Sum(rhs),rhsMax =   5.27497365232499E-10  1.80771015830787E-02
 cg2d: Sum(rhs),rhsMax =   5.27554833151811E-10  1.80768286009814E-02
 cg2d: Sum(rhs),rhsMax =   5.27602100897084E-10  1.80765536326212E-02
 cg2d: Sum(rhs),rhsMax =   5.27652921356037E-10  1.80762816204601E-02
 cg2d: Sum(rhs),rhsMax =   5.27689225648942E-10  1.80760076392830E-02
 cg2d: Sum(rhs),rhsMax =   5.27734522748347E-10  1.80757363721637E-02
 cg2d: Sum(rhs),rhsMax =   5.27789825732761E-10  1.80754631392966E-02
 cg2d: Sum(rhs),rhsMax =   5.27843255215821E-10  1.80751923635707E-02
 cg2d: Sum(rhs),rhsMax =   5.27883056711254E-10  1.80749196482602E-02
 cg2d: Sum(rhs),rhsMax =   5.27924412518921E-10  1.80746491619669E-02
 cg2d: Sum(rhs),rhsMax =   5.27970972497016E-10  1.80743767444147E-02
 cg2d: Sum(rhs),rhsMax =   5.28024568513530E-10  1.80741063228152E-02
 cg2d: Sum(rhs),rhsMax =   5.28076429806568E-10  1.80738340066164E-02
 cg2d: Sum(rhs),rhsMax =   5.28119756260104E-10  1.80735635039410E-02
 cg2d: Sum(rhs),rhsMax =   5.28161139823347E-10  1.80732911276635E-02
(PID.TID 0000.0001)      cg2d_init_res =   1.02545990008297E-04
(PID.TID 0000.0001)      cg2d_iters(min,last) =      -1      39
(PID.TID 0000.0001)      cg2d_last_res =   7.75795250200317E-14
(PID.TID 0000.0001) // =======================================================
(PID.TID 0000.0001) // Begin MONITOR dynamic field statistics
(PID.TID 0000.0001) // =======================================================
(PID.TID 0000.0001) %MON time_tsnumber                =                 13824
(PID.TID 0000.0001) %MON time_secondsf                =   3.4560000000000E+05
(PID.TID 0000.0001) %MON dynstat_eta_max              =   5.4177436442250E-03
(PID.TID 0000.0001) %MON dynstat_eta_min              =  -2.6540923915230E-03
(PID.TID 0000.0001) %MON dynstat_eta_mean             =  -6.3926597890690E-14
(PID.TID 0000.0001) %MON dynstat_eta_sd               =   2.7462194193207E-03
(PID.TID 0000.0001) %MON dynstat_eta_del2             =   2.3109488499753E-05
(PID.TID 0000.0001) %MON dynstat_uvel_max             =   4.7427148479824E-02
(PID.TID 0000.0001) %MON dynstat_uvel_min             =  -3.6427777784440E-02
(PID.TID 0000.0001) %MON dynstat_uvel_mean            =   6.9051206098792E-09
(PID.TID 0000.0001) %MON dynstat_uvel_sd              =   6.2013807600676E-03
(PID.TID 0000.0001) %MON dynstat_uvel_del2            =   1.0318961514348E-04
(PID.TID 0000.0001) %MON dynstat_vvel_max             =   2.2572360487973E-02
(PID.TID 0000.0001) %MON dynstat_vvel_min             =  -3.2480133239113E-02
(PID.TID 0000.0001) %MON dynstat_vvel_mean            =  -8.0919744888768E-03
(PID.TID 0000.0001) %MON dynstat_vvel_sd              =   1.1431537480079E-02
(PID.TID 0000.0001) %MON dynstat_vvel_del2            =   9.2593241986500E-05
(PID.TID 0000.0001) %MON dynstat_wvel_max             =   1.3720963914199E-03
(PID.TID 0000.0001) %MON dynstat_wvel_min             =  -1.0666028645141E-03
(PID.TID 0000.0001) %MON dynstat_wvel_mean            =  -6.5713322416694E-21
(PID.TID 0000.0001) %MON dynstat_wvel_sd              =   1.2492277364435E-04
(PID.TID 0000.0001) %MON dynstat_wvel_del2            =   6.2024863829254E-06
(PID.TID 0000.0001) %MON dynstat_theta_max            =   2.6931451612903E+00
(PID.TID 0000.0001) %MON dynstat_theta_min            =  -4.5686366948333E-01
(PID.TID 0000.0001) %MON dynstat_theta_mean           =   2.2289023488644E+00
(PID.TID 0000.0001) %MON dynstat_theta_sd             =   5.0290402686269E-01
(PID.TID 0000.0001) %MON dynstat_theta_del2           =   1.5376265597395E-03
(PID.TID 0000.0001) %MON dynstat_salt_max             =   3.4699999999999E+01
(PID.TID 0000.0001) %MON dynstat_salt_min             =   3.3015641880879E+01
(PID.TID 0000.0001) %MON dynstat_salt_mean            =   3.4364327817911E+01
(PID.TID 0000.0001) %MON dynstat_salt_sd              =   3.2225872208470E-01
(PID.TID 0000.0001) %MON dynstat_salt_del2            =   2.0013372885160E-04
(PID.TID 0000.0001) %MON advcfl_uvel_max              =   2.3713574239912E-03
(PID.TID 0000.0001) %MON advcfl_vvel_max              =   1.6240066619556E-03
(PID.TID 0000.0001) %MON advcfl_wvel_max              =   6.3274125549111E-04
(PID.TID 0000.0001) %MON advcfl_W_hf_max              =   1.5873247396049E-03
(PID.TID 0000.0001) %MON pe_b_mean                    =   6.2923828698451E-08
(PID.TID 0000.0001) %MON ke_max                       =   1.0660978489952E-03
(PID.TID 0000.0001) %MON ke_mean                      =   1.0735040368377E-04
(PID.TID 0000.0001) %MON ke_vol                       =   3.2921708585402E+10
(PID.TID 0000.0001) // =======================================================
(PID.TID 0000.0001) // End MONITOR dynamic field statistics
(PID.TID 0000.0001) // =======================================================
(PID.TID 0000.0001) // =======================================================
(PID.TID 0000.0001) // Begin OBCS MONITOR field statistics
(PID.TID 0000.0001) // =======================================================
(PID.TID 0000.0001) %MON obc_E_uVel_max               =   0.0000000000000E+00
(PID.TID 0000.0001) %MON obc_E_uVel_min               =   0.0000000000000E+00
(PID.TID 0000.0001) %MON obc_E_uVel_mean              =   0.0000000000000E+00
(PID.TID 0000.0001) %MON obc_E_uVel_sd                =   0.0000000000000E+00
(PID.TID 0000.0001) %MON obc_E_uVel_Int               =   0.0000000000000E+00
(PID.TID 0000.0001) %MON obc_N_vVel_max               =  -3.6115799844846E-05
(PID.TID 0000.0001) %MON obc_N_vVel_min               =  -3.0000000000000E-02
(PID.TID 0000.0001) %MON obc_N_vVel_mean              =  -1.3225455303334E-02
(PID.TID 0000.0001) %MON obc_N_vVel_sd                =   1.1350864292742E-02
(PID.TID 0000.0001) %MON obc_N_vVel_Int               =  -5.9514548865004E+04
(PID.TID 0000.0001) %MON obc_S_vVel_max               =  -3.6115799844846E-05
(PID.TID 0000.0001) %MON obc_S_vVel_min               =  -3.0000000000000E-02
(PID.TID 0000.0001) %MON obc_S_vVel_mean              =  -1.3225455303334E-02
(PID.TID 0000.0001) %MON obc_S_vVel_sd                =   1.1350864292742E-02
(PID.TID 0000.0001) %MON obc_S_vVel_Int               =  -5.9514548865004E+04
(PID.TID 0000.0001) // =======================================================
(PID.TID 0000.0001) // End OBCS MONITOR field statistics
(PID.TID 0000.0001) // =======================================================
 Computing Diagnostic #    26 "THETA   " (list#  1) Parms "SMR     MR      ", Count=     144
 Computing Diagnostic #    27 "SALT    " (list#  1) Parms "SMR     MR      ", Count=     144
 Computing Diagnostic #    30 "UVEL    " (list#  1) Parms "UUR     MR      ", Count=     144
             Vector  Mate for "UVEL    " :  Diagnostic #     31 "VVEL    " exists
 Computing Diagnostic #    32 "WVEL    " (list#  1) Parms "WM      LR      ", Count=     144
 Computing Diagnostic #    31 "VVEL    " (list#  1) Parms "VVR     MR      ", Count=     144
             Vector  Mate for "VVEL    " :  Diagnostic #     30 "UVEL    " exists
 Computing Diagnostic #   197 "BRGfwFlx" (list#  2) Parms "SM      MR      ", Count=     144
 Computing Diagnostic #   198 "BRGhtFlx" (list#  2) Parms "SM      MR      ", Count=     144
 Computing Diagnostic #   199 "BRGmltRt" (list#  2) Parms "SM      MR      ", Count=     144
 Computing Diagnostic #   201 "BRG_TauX" (list#  2) Parms "UU      MR      ", Count=    1728
 Computing Diagnostic #   202 "BRG_TauY" (list#  2) Parms "VV      MR      ", Count=    1728
 Computing Diagnostic #   203 "BRGhFacC" (list#  2) Parms "SM      MR      ", Count=    1728
(PID.TID 0000.0001) %CHECKPOINT     13824 0000013824
 cg2d: Sum(rhs),rhsMax =   5.28217108941575E-10  1.80730203833368E-02
 cg2d: Sum(rhs),rhsMax =   5.28265084454027E-10  1.80727478202883E-02
 cg2d: Sum(rhs),rhsMax =   5.28303636948557E-10  1.80724767667556E-02
 cg2d: Sum(rhs),rhsMax =   5.28356081108683E-10  1.80722039312905E-02
 cg2d: Sum(rhs),rhsMax =   5.28399268784341E-10  1.80719324945806E-02
 cg2d: Sum(rhs),rhsMax =   5.28454474624240E-10  1.80716593425768E-02
 cg2d: Sum(rhs),rhsMax =   5.28491056472902E-10  1.80713875458059E-02
 cg2d: Sum(rhs),rhsMax =   5.28549648493026E-10  1.80711140780622E-02
 cg2d: Sum(rhs),rhsMax =   5.28599899962678E-10  1.80708419383399E-02
 cg2d: Sum(rhs),rhsMax =   5.28643864794454E-10  1.80705682076061E-02
 cg2d: Sum(rhs),rhsMax =   5.28700527802073E-10  1.80702958334485E-02
 cg2d: Sum(rhs),rhsMax =   5.28741661565135E-10  1.80700219235961E-02
 cg2d: Sum(rhs),rhsMax =   5.28784488418310E-10  1.80697494372985E-02
 cg2d: Sum(rhs),rhsMax =   5.28839499969180E-10  1.80694754897724E-02
 cg2d: Sum(rhs),rhsMax =   5.28880036987367E-10  1.80692030494006E-02
 cg2d: Sum(rhs),rhsMax =   5.28920143794132E-10  1.80689292424898E-02
 cg2d: Sum(rhs),rhsMax =   5.28973420621526E-10  1.80686570397047E-02
 cg2d: Sum(rhs),rhsMax =   5.29018287509508E-10  1.80683835772990E-02
 cg2d: Sum(rhs),rhsMax =   5.29065513621418E-10  1.80681118298181E-02
 cg2d: Sum(rhs),rhsMax =   5.29112670344389E-10  1.80678389393943E-02
 cg2d: Sum(rhs),rhsMax =   5.29166432894357E-10  1.80675678812500E-02
 cg2d: Sum(rhs),rhsMax =   5.29226037992991E-10  1.80672958019856E-02
 cg2d: Sum(rhs),rhsMax =   5.29268934235105E-10  1.80670256751699E-02
 cg2d: Sum(rhs),rhsMax =   5.29334145960014E-10  1.80667546492355E-02
 cg2d: Sum(rhs),rhsMax =   5.29388033410072E-10  1.80664856951588E-02
 cg2d: Sum(rhs),rhsMax =   5.29424434847492E-10  1.80662159577711E-02
 cg2d: Sum(rhs),rhsMax =   5.29468358045904E-10  1.80659484034623E-02
 cg2d: Sum(rhs),rhsMax =   5.29520607917000E-10  1.80656801737637E-02
 cg2d: Sum(rhs),rhsMax =   5.29570443053018E-10  1.80654142240776E-02
 cg2d: Sum(rhs),rhsMax =   5.29617599775989E-10  1.80651476907621E-02
 cg2d: Sum(rhs),rhsMax =   5.29668933713090E-10  1.80648835224997E-02
 cg2d: Sum(rhs),rhsMax =   5.29723528930326E-10  1.80646188400164E-02
 cg2d: Sum(rhs),rhsMax =   5.29758986678175E-10  1.80643565758356E-02
 cg2d: Sum(rhs),rhsMax =   5.29808488747285E-10  1.80640938463728E-02
 cg2d: Sum(rhs),rhsMax =   5.29852203778880E-10  1.80638335666323E-02
 cg2d: Sum(rhs),rhsMax =   5.29885940681041E-10  1.80635728394664E-02
 cg2d: Sum(rhs),rhsMax =   5.29925131553810E-10  1.80633145669071E-02
 cg2d: Sum(rhs),rhsMax =   5.29982918662242E-10  1.80630558409608E-02
 cg2d: Sum(rhs),rhsMax =   5.30036667334421E-10  1.80627995224959E-02
 cg2d: Sum(rhs),rhsMax =   5.30088486994096E-10  1.80625426784894E-02
 cg2d: Sum(rhs),rhsMax =   5.30145136123927E-10  1.80622881678806E-02
 cg2d: Sum(rhs),rhsMax =   5.30193999814799E-10  1.80620330491510E-02
 cg2d: Sum(rhs),rhsMax =   5.30239532836596E-10  1.80617801576307E-02
 cg2d: Sum(rhs),rhsMax =   5.30286758948506E-10  1.80615265276572E-02
 cg2d: Sum(rhs),rhsMax =   5.30334623438655E-10  1.80612749731841E-02
 cg2d: Sum(rhs),rhsMax =   5.30382501806592E-10  1.80610225120108E-02
 cg2d: Sum(rhs),rhsMax =   5.30435903534077E-10  1.80607719303247E-02
 cg2d: Sum(rhs),rhsMax =   5.30475205429148E-10  1.80605202287371E-02
 cg2d: Sum(rhs),rhsMax =   5.30523694419749E-10  1.80602701752787E-02
 cg2d: Sum(rhs),rhsMax =   5.30568283751975E-10  1.80600187502942E-02
 cg2d: Sum(rhs),rhsMax =   5.30614038818378E-10  1.80597687037854E-02
 cg2d: Sum(rhs),rhsMax =   5.30678334609291E-10  1.80595170032922E-02
 cg2d: Sum(rhs),rhsMax =   5.30721452896010E-10  1.80592663767940E-02
 cg2d: Sum(rhs),rhsMax =   5.30765001394151E-10  1.80590137795215E-02
 cg2d: Sum(rhs),rhsMax =   5.30809743382044E-10  1.80587619252016E-02
 cg2d: Sum(rhs),rhsMax =   5.30860938541267E-10  1.80585077584073E-02
 cg2d: Sum(rhs),rhsMax =   5.30908483842296E-10  1.80582539795912E-02
 cg2d: Sum(rhs),rhsMax =   5.30957264266441E-10  1.80579975256191E-02
 cg2d: Sum(rhs),rhsMax =   5.31000368675372E-10  1.80577411052214E-02
 cg2d: Sum(rhs),rhsMax =   5.31053021002315E-10  1.80574816691525E-02
 cg2d: Sum(rhs),rhsMax =   5.31095764588763E-10  1.80572218664606E-02
 cg2d: Sum(rhs),rhsMax =   5.31154079053131E-10  1.80569586018440E-02
 cg2d: Sum(rhs),rhsMax =   5.31200791686892E-10  1.80566945646205E-02
 cg2d: Sum(rhs),rhsMax =   5.31248003921014E-10  1.80564712371886E-02
 cg2d: Sum(rhs),rhsMax =   5.31294258587778E-10  1.80562843057223E-02
 cg2d: Sum(rhs),rhsMax =   5.31344246379462E-10  1.80560958769228E-02
 cg2d: Sum(rhs),rhsMax =   5.31392846392365E-10  1.80559074880691E-02
 cg2d: Sum(rhs),rhsMax =   5.31449259599803E-10  1.80557165747075E-02
 cg2d: Sum(rhs),rhsMax =   5.31495791822323E-10  1.80555258114341E-02
 cg2d: Sum(rhs),rhsMax =   5.31528279723581E-10  1.80553320719827E-02
 cg2d: Sum(rhs),rhsMax =   5.31567345696260E-10  1.80551379840539E-02
 cg2d: Sum(rhs),rhsMax =   5.31607383114086E-10  1.80549404364545E-02
 cg2d: Sum(rhs),rhsMax =   5.31648322588119E-10  1.80547420595589E-02
 cg2d: Sum(rhs),rhsMax =   5.31678617798903E-10  1.80545397464672E-02
 cg2d: Sum(rhs),rhsMax =   5.31725746766298E-10  1.80543361325153E-02
 cg2d: Sum(rhs),rhsMax =   5.31775304346560E-10  1.80541281205352E-02
 cg2d: Sum(rhs),rhsMax =   5.31839558504110E-10  1.80539183501148E-02
 cg2d: Sum(rhs),rhsMax =   5.31881177989746E-10  1.80537037345462E-02
 cg2d: Sum(rhs),rhsMax =   5.31928112668112E-10  1.80534869204631E-02
 cg2d: Sum(rhs),rhsMax =   5.31985039353700E-10  1.80532648320802E-02
 cg2d: Sum(rhs),rhsMax =   5.32031252387100E-10  1.80530401262786E-02
 cg2d: Sum(rhs),rhsMax =   5.32073204939643E-10  1.80528097377670E-02
 cg2d: Sum(rhs),rhsMax =   5.32126981367398E-10  1.80525763328451E-02
 cg2d: Sum(rhs),rhsMax =   5.32175178924454E-10  1.80523368633479E-02
 cg2d: Sum(rhs),rhsMax =   5.32231855809862E-10  1.80520940054029E-02
 cg2d: Sum(rhs),rhsMax =   5.32278887632742E-10  1.80518447253440E-02
 cg2d: Sum(rhs),rhsMax =   5.32328417457428E-10  1.80515917132325E-02
 cg2d: Sum(rhs),rhsMax =   5.32380112217012E-10  1.80513319536513E-02
 cg2d: Sum(rhs),rhsMax =   5.32421329246802E-10  1.80510681502657E-02
 cg2d: Sum(rhs),rhsMax =   5.32466418179389E-10  1.80507962312938E-02
 cg2d: Sum(rhs),rhsMax =   5.32520499918476E-10  1.80505142533879E-02
 cg2d: Sum(rhs),rhsMax =   5.32565075372915E-10  1.80502237225719E-02
 cg2d: Sum(rhs),rhsMax =   5.32624389038006E-10  1.80499230333624E-02
 cg2d: Sum(rhs),rhsMax =   5.32680274889508E-10  1.80496136595841E-02
 cg2d: Sum(rhs),rhsMax =   5.32733343550085E-10  1.80492940547428E-02
 cg2d: Sum(rhs),rhsMax =   5.32783012152649E-10  1.80489613334058E-02
 cg2d: Sum(rhs),rhsMax =   5.32826727184244E-10  1.80486172805699E-02
 cg2d: Sum(rhs),rhsMax =   5.32880295445182E-10  1.80482591630941E-02
 cg2d: Sum(rhs),rhsMax =   5.32925273355467E-10  1.80478900328576E-02
 cg2d: Sum(rhs),rhsMax =   5.32972874167648E-10  1.80475072937978E-02
 cg2d: Sum(rhs),rhsMax =   5.33013161385654E-10  1.80471140778520E-02
 cg2d: Sum(rhs),rhsMax =   5.33058847063117E-10  1.80467078839695E-02
 cg2d: Sum(rhs),rhsMax =   5.33120367296469E-10  1.80462919347053E-02
 cg2d: Sum(rhs),rhsMax =   5.33167107685806E-10  1.80458638218106E-02
 cg2d: Sum(rhs),rhsMax =   5.33224644994057E-10  1.80454268496451E-02
 cg2d: Sum(rhs),rhsMax =   5.33270677616215E-10  1.80449786934712E-02
 cg2d: Sum(rhs),rhsMax =   5.33312907724515E-10  1.80445227337803E-02
 cg2d: Sum(rhs),rhsMax =   5.33369542976558E-10  1.80440567201776E-02
 cg2d: Sum(rhs),rhsMax =   5.33415145387295E-10  1.80435840970580E-02
 cg2d: Sum(rhs),rhsMax =   5.33468269559023E-10  1.80431026768692E-02
 cg2d: Sum(rhs),rhsMax =   5.33529095902985E-10  1.80426159622816E-02
 cg2d: Sum(rhs),rhsMax =   5.33563915272595E-10  1.80421218168496E-02
 cg2d: Sum(rhs),rhsMax =   5.33606214769833E-10  1.80416237816615E-02
 cg2d: Sum(rhs),rhsMax =   5.33660671209191E-10  1.80411197644152E-02
 cg2d: Sum(rhs),rhsMax =   5.33730837304347E-10  1.80406133374237E-02
 cg2d: Sum(rhs),rhsMax =   5.33780145084428E-10  1.80401024319996E-02
 cg2d: Sum(rhs),rhsMax =   5.33840791017148E-10  1.80395906402059E-02
 cg2d: Sum(rhs),rhsMax =   5.33891555964949E-10  1.80390759097029E-02
 cg2d: Sum(rhs),rhsMax =   5.33943722569319E-10  1.80385618337521E-02
 cg2d: Sum(rhs),rhsMax =   5.33996957763350E-10  1.80380463635839E-02
 cg2d: Sum(rhs),rhsMax =   5.34046418199097E-10  1.80375330828212E-02
 cg2d: Sum(rhs),rhsMax =   5.34113850370055E-10  1.80370199316698E-02
 cg2d: Sum(rhs),rhsMax =   5.34176147759524E-10  1.80365104728286E-02
 cg2d: Sum(rhs),rhsMax =   5.34229868676128E-10  1.80360026213086E-02
 cg2d: Sum(rhs),rhsMax =   5.34282604269798E-10  1.80354999070606E-02
 cg2d: Sum(rhs),rhsMax =   5.34342070590554E-10  1.80350002096959E-02
 cg2d: Sum(rhs),rhsMax =   5.34404506757902E-10  1.80345070138683E-02
 cg2d: Sum(rhs),rhsMax =   5.34458935441684E-10  1.80340181528933E-02
 cg2d: Sum(rhs),rhsMax =   5.34517222150477E-10  1.80335370546268E-02
 cg2d: Sum(rhs),rhsMax =   5.34564406629023E-10  1.80330614933693E-02
 cg2d: Sum(rhs),rhsMax =   5.34635585802690E-10  1.80325948348935E-02
 cg2d: Sum(rhs),rhsMax =   5.34677191410537E-10  1.80321347876098E-02
 cg2d: Sum(rhs),rhsMax =   5.34731064982807E-10  1.80316846406876E-02
 cg2d: Sum(rhs),rhsMax =   5.34781344208035E-10  1.80312420331396E-02
 cg2d: Sum(rhs),rhsMax =   5.34827945819494E-10  1.80308101698823E-02
 cg2d: Sum(rhs),rhsMax =   5.34879501801200E-10  1.80303866097232E-02
 cg2d: Sum(rhs),rhsMax =   5.34938593421685E-10  1.80299744747043E-02
 cg2d: Sum(rhs),rhsMax =   5.34993105372195E-10  1.80295712384874E-02
 cg2d: Sum(rhs),rhsMax =   5.35037347759726E-10  1.80291799309136E-02
 cg2d: Sum(rhs),rhsMax =   5.35087044117866E-10  1.80287979383828E-02
 cg2d: Sum(rhs),rhsMax =   5.35137018031762E-10  1.80284281993061E-02
 cg2d: Sum(rhs),rhsMax =   5.35187130723536E-10  1.80280680114441E-02
 cg2d: Sum(rhs),rhsMax =   5.35231789444701E-10  1.80277202209303E-02
 cg2d: Sum(rhs),rhsMax =   5.35280000879546E-10  1.80273820340505E-02
 Computing Diagnostic #    26 "THETA   " (list#  1) Parms "SMR     MR      ", Count=     144
 Computing Diagnostic #    27 "SALT    " (list#  1) Parms "SMR     MR      ", Count=     144
 Computing Diagnostic #    30 "UVEL    " (list#  1) Parms "UUR     MR      ", Count=     144
             Vector  Mate for "UVEL    " :  Diagnostic #     31 "VVEL    " exists
 Computing Diagnostic #    32 "WVEL    " (list#  1) Parms "WM      LR      ", Count=     144
 Computing Diagnostic #    31 "VVEL    " (list#  1) Parms "VVR     MR      ", Count=     144
             Vector  Mate for "VVEL    " :  Diagnostic #     30 "UVEL    " exists
 Computing Diagnostic #   197 "BRGfwFlx" (list#  2) Parms "SM      MR      ", Count=     144
 Computing Diagnostic #   198 "BRGhtFlx" (list#  2) Parms "SM      MR      ", Count=     144
 Computing Diagnostic #   199 "BRGmltRt" (list#  2) Parms "SM      MR      ", Count=     144
 Computing Diagnostic #   201 "BRG_TauX" (list#  2) Parms "UU      MR      ", Count=    1728
 Computing Diagnostic #   202 "BRG_TauY" (list#  2) Parms "VV      MR      ", Count=    1728
 Computing Diagnostic #   203 "BRGhFacC" (list#  2) Parms "SM      MR      ", Count=    1728
 cg2d: Sum(rhs),rhsMax =   5.35331362572222E-10  1.80270562039447E-02
 cg2d: Sum(rhs),rhsMax =   5.35365279885625E-10  1.80267398529934E-02
 cg2d: Sum(rhs),rhsMax =   5.35429603432114E-10  1.80264356467790E-02
 cg2d: Sum(rhs),rhsMax =   5.35479882657341E-10  1.80261406207510E-02
 cg2d: Sum(rhs),rhsMax =   5.35534644408031E-10  1.80258573527629E-02
 cg2d: Sum(rhs),rhsMax =   5.35584479544049E-10  1.80255828012135E-02
 cg2d: Sum(rhs),rhsMax =   5.35630526043995E-10  1.80253194632867E-02
 cg2d: Sum(rhs),rhsMax =   5.35674699042588E-10  1.80250642121205E-02
 cg2d: Sum(rhs),rhsMax =   5.35726060735264E-10  1.80248194655588E-02
 cg2d: Sum(rhs),rhsMax =   5.35776659149612E-10  1.80245820407075E-02
 cg2d: Sum(rhs),rhsMax =   5.35812838542427E-10  1.80243542961237E-02
 cg2d: Sum(rhs),rhsMax =   5.35861202632937E-10  1.80241329896203E-02
 cg2d: Sum(rhs),rhsMax =   5.35909594479023E-10  1.80239204241888E-02
 cg2d: Sum(rhs),rhsMax =   5.35957472846960E-10  1.80237133089679E-02
 cg2d: Sum(rhs),rhsMax =   5.36006794504829E-10  1.80235139377735E-02
 cg2d: Sum(rhs),rhsMax =   5.36057323530237E-10  1.80233189896939E-02
 cg2d: Sum(rhs),rhsMax =   5.36088895497500E-10  1.80231306744238E-02
 cg2d: Sum(rhs),rhsMax =   5.36134567297175E-10  1.80229456527084E-02
 cg2d: Sum(rhs),rhsMax =   5.36178573762314E-10  1.80227660497548E-02
 cg2d: Sum(rhs),rhsMax =   5.36230684855532E-10  1.80225886312764E-02
 cg2d: Sum(rhs),rhsMax =   5.36272373730107E-10  1.80224152779470E-02
 cg2d: Sum(rhs),rhsMax =   5.36331729028561E-10  1.80222430029678E-02
 cg2d: Sum(rhs),rhsMax =   5.36379204940651E-10  1.80220734774521E-02
 cg2d: Sum(rhs),rhsMax =   5.36435992848361E-10  1.80219038743372E-02
 cg2d: Sum(rhs),rhsMax =   5.36481692403612E-10  1.80217357529657E-02
 cg2d: Sum(rhs),rhsMax =   5.36527614003468E-10  1.80215663745530E-02
 cg2d: Sum(rhs),rhsMax =   5.36575506249193E-10  1.80213972751974E-02
 cg2d: Sum(rhs),rhsMax =   5.36610117451986E-10  1.80212257546198E-02
 cg2d: Sum(rhs),rhsMax =   5.36643438020512E-10  1.80210533668116E-02
 cg2d: Sum(rhs),rhsMax =   5.36700087150344E-10  1.80208774447651E-02
 cg2d: Sum(rhs),rhsMax =   5.36730326849977E-10  1.80206995770783E-02
 cg2d: Sum(rhs),rhsMax =   5.36776484372226E-10  1.80205171360432E-02
 cg2d: Sum(rhs),rhsMax =   5.36829608543954E-10  1.80203317541985E-02
 cg2d: Sum(rhs),rhsMax =   5.36863928313203E-10  1.80201408491214E-02
 cg2d: Sum(rhs),rhsMax =   5.36912236892562E-10  1.80199461024444E-02
 cg2d: Sum(rhs),rhsMax =   5.36962599384516E-10  1.80197449892916E-02
 cg2d: Sum(rhs),rhsMax =   5.37014599455432E-10  1.80195392457168E-02
 cg2d: Sum(rhs),rhsMax =   5.37058245098088E-10  1.80193264038203E-02
 cg2d: Sum(rhs),rhsMax =   5.37104027920066E-10  1.80191082613275E-02
 cg2d: Sum(rhs),rhsMax =   5.37151156887461E-10  1.80188824162531E-02
 cg2d: Sum(rhs),rhsMax =   5.37186128912737E-10  1.80186451191431E-02
 cg2d: Sum(rhs),rhsMax =   5.37260014255025E-10  1.80183198337655E-02
 cg2d: Sum(rhs),rhsMax =   5.37304076231315E-10  1.80180042363904E-02
 cg2d: Sum(rhs),rhsMax =   5.37358824104217E-10  1.80176839663500E-02
 cg2d: Sum(rhs),rhsMax =   5.37412989110031E-10  1.80173591221715E-02
 cg2d: Sum(rhs),rhsMax =   5.37466307570789E-10  1.80170277418438E-02
 cg2d: Sum(rhs),rhsMax =   5.37517391707709E-10  1.80166920364604E-02
 cg2d: Sum(rhs),rhsMax =   5.37563840663502E-10  1.80163499648522E-02
 cg2d: Sum(rhs),rhsMax =   5.37621724916448E-10  1.80160037171467E-02
 cg2d: Sum(rhs),rhsMax =   5.37675653999869E-10  1.80156512743835E-02
 cg2d: Sum(rhs),rhsMax =   5.37730249217105E-10  1.80152948485052E-02
 cg2d: Sum(rhs),rhsMax =   5.37788286125718E-10  1.80149324435053E-02
 cg2d: Sum(rhs),rhsMax =   5.37832431368734E-10  1.80145662924776E-02
 cg2d: Sum(rhs),rhsMax =   5.37885166962404E-10  1.80141944210451E-02
 cg2d: Sum(rhs),rhsMax =   5.37932379196526E-10  1.80138190799010E-02
 cg2d: Sum(rhs),rhsMax =   5.37972097425232E-10  1.80134383184128E-02
 cg2d: Sum(rhs),rhsMax =   5.38025374252626E-10  1.80130544060550E-02
 cg2d: Sum(rhs),rhsMax =   5.38081981749094E-10  1.80126654139139E-02
 cg2d: Sum(rhs),rhsMax =   5.38132594041230E-10  1.80122736263229E-02
 cg2d: Sum(rhs),rhsMax =   5.38189798282573E-10  1.80118771348227E-02
 cg2d: Sum(rhs),rhsMax =   5.38244185332992E-10  1.80114782418374E-02
 cg2d: Sum(rhs),rhsMax =   5.38295158447610E-10  1.80110750537182E-02
 cg2d: Sum(rhs),rhsMax =   5.38346353606833E-10  1.80106699049701E-02
 cg2d: Sum(rhs),rhsMax =   5.38385336312786E-10  1.80102609327869E-02
 cg2d: Sum(rhs),rhsMax =   5.38444053233000E-10  1.80098504673257E-02
 cg2d: Sum(rhs),rhsMax =   5.38487268664234E-10  1.80094366453953E-02
 cg2d: Sum(rhs),rhsMax =   5.38545888439934E-10  1.80090218083142E-02
 cg2d: Sum(rhs),rhsMax =   5.38585787079882E-10  1.80086041077191E-02
 cg2d: Sum(rhs),rhsMax =   5.38649652659373E-10  1.80081858898901E-02
 cg2d: Sum(rhs),rhsMax =   5.38700098418055E-10  1.80077653187477E-02
 cg2d: Sum(rhs),rhsMax =   5.38752584211544E-10  1.80073447460070E-02
 cg2d: Sum(rhs),rhsMax =   5.38807540251263E-10  1.80069223450265E-02
 cg2d: Sum(rhs),rhsMax =   5.38866534727234E-10  1.80065802506219E-02
 cg2d: Sum(rhs),rhsMax =   5.38920769121987E-10  1.80062344734469E-02
 cg2d: Sum(rhs),rhsMax =   5.38971450803061E-10  1.80058924365034E-02
 cg2d: Sum(rhs),rhsMax =   5.39015179712443E-10  1.80055491518033E-02
 cg2d: Sum(rhs),rhsMax =   5.39059866189184E-10  1.80052058331140E-02
 cg2d: Sum(rhs),rhsMax =   5.39109160091478E-10  1.80048613974216E-02
 cg2d: Sum(rhs),rhsMax =   5.39152097966955E-10  1.80045167128284E-02
 cg2d: Sum(rhs),rhsMax =   5.39201266969158E-10  1.80041712110549E-02
 cg2d: Sum(rhs),rhsMax =   5.39260067156100E-10  1.80038252078046E-02
 cg2d: Sum(rhs),rhsMax =   5.39304226276904E-10  1.80034787082373E-02
 cg2d: Sum(rhs),rhsMax =   5.39366509788586E-10  1.80031317467222E-02
 cg2d: Sum(rhs),rhsMax =   5.39409697464244E-10  1.80027843589746E-02
 cg2d: Sum(rhs),rhsMax =   5.39465042082021E-10  1.80024365831382E-02
 cg2d: Sum(rhs),rhsMax =   5.39502262308922E-10  1.80020884625860E-02
 cg2d: Sum(rhs),rhsMax =   5.39556607725977E-10  1.80017400475019E-02
 cg2d: Sum(rhs),rhsMax =   5.39614519734499E-10  1.80013913931577E-02
 cg2d: Sum(rhs),rhsMax =   5.39676262012456E-10  1.80010425578733E-02
 cg2d: Sum(rhs),rhsMax =   5.39741432104002E-10  1.80006936068483E-02
 cg2d: Sum(rhs),rhsMax =   5.39780345421015E-10  1.80003446095268E-02
 cg2d: Sum(rhs),rhsMax =   5.39849179248542E-10  1.79999956383468E-02
 cg2d: Sum(rhs),rhsMax =   5.39903705076838E-10  1.79996467709951E-02
 cg2d: Sum(rhs),rhsMax =   5.39953096123647E-10  1.79992980874899E-02
 cg2d: Sum(rhs),rhsMax =   5.40008524008151E-10  1.79989496730894E-02
 cg2d: Sum(rhs),rhsMax =   5.40049838182455E-10  1.79986016138303E-02
 cg2d: Sum(rhs),rhsMax =   5.40096245504884E-10  1.79982540027992E-02
 cg2d: Sum(rhs),rhsMax =   5.40143763050338E-10  1.79979069251679E-02
 cg2d: Sum(rhs),rhsMax =   5.40194403098049E-10  1.79975604765646E-02
 cg2d: Sum(rhs),rhsMax =   5.40246403168965E-10  1.79972147529203E-02
 cg2d: Sum(rhs),rhsMax =   5.40298528139971E-10  1.79968698479974E-02
 cg2d: Sum(rhs),rhsMax =   5.40344116672919E-10  1.79965258573526E-02
 cg2d: Sum(rhs),rhsMax =   5.40390940328983E-10  1.79961828733769E-02
 cg2d: Sum(rhs),rhsMax =   5.40464034637367E-10  1.79958409889928E-02
 cg2d: Sum(rhs),rhsMax =   5.40509428881286E-10  1.79955002961163E-02
 cg2d: Sum(rhs),rhsMax =   5.40560249340238E-10  1.79951608842993E-02
 cg2d: Sum(rhs),rhsMax =   5.40605962773277E-10  1.79948228406097E-02
 cg2d: Sum(rhs),rhsMax =   5.40654132574758E-10  1.79944862456390E-02
 cg2d: Sum(rhs),rhsMax =   5.40710837215741E-10  1.79941511821551E-02
 cg2d: Sum(rhs),rhsMax =   5.40767333689907E-10  1.79938177276430E-02
 cg2d: Sum(rhs),rhsMax =   5.40814629190756E-10  1.79934859435191E-02
 cg2d: Sum(rhs),rhsMax =   5.40857983399867E-10  1.79931558968455E-02
 cg2d: Sum(rhs),rhsMax =   5.40909303459181E-10  1.79928276497070E-02
 cg2d: Sum(rhs),rhsMax =   5.40973127405309E-10  1.79925012595103E-02
 cg2d: Sum(rhs),rhsMax =   5.41029110401325E-10  1.79921767701556E-02
 cg2d: Sum(rhs),rhsMax =   5.41089686945107E-10  1.79918542202156E-02
 cg2d: Sum(rhs),rhsMax =   5.41146169541484E-10  1.79915336424938E-02
 cg2d: Sum(rhs),rhsMax =   5.41205524839938E-10  1.79912150634534E-02
 cg2d: Sum(rhs),rhsMax =   5.41254790986656E-10  1.79908984994912E-02
 cg2d: Sum(rhs),rhsMax =   5.41302613843442E-10  1.79905839596050E-02
 cg2d: Sum(rhs),rhsMax =   5.41354613914358E-10  1.79902714454824E-02
 cg2d: Sum(rhs),rhsMax =   5.41395955844237E-10  1.79899610402205E-02
 cg2d: Sum(rhs),rhsMax =   5.41441919077457E-10  1.79896527217039E-02
 cg2d: Sum(rhs),rhsMax =   5.41492337080562E-10  1.79893464739263E-02
 cg2d: Sum(rhs),rhsMax =   5.41533928810622E-10  1.79890422562110E-02
 cg2d: Sum(rhs),rhsMax =   5.41587968916346E-10  1.79887400337481E-02
 cg2d: Sum(rhs),rhsMax =   5.41635625239678E-10  1.79884397463105E-02
 cg2d: Sum(rhs),rhsMax =   5.41672540155247E-10  1.79881413426958E-02
 cg2d: Sum(rhs),rhsMax =   5.41707206869191E-10  1.79878447504886E-02
 cg2d: Sum(rhs),rhsMax =   5.41751657423539E-10  1.79875499011270E-02
 cg2d: Sum(rhs),rhsMax =   5.41805864062717E-10  1.79872566995067E-02
 cg2d: Sum(rhs),rhsMax =   5.41856393088125E-10  1.79869650602598E-02
 cg2d: Sum(rhs),rhsMax =   5.41906602924414E-10  1.79866748746936E-02
 cg2d: Sum(rhs),rhsMax =   5.41953912303050E-10  1.79863860441336E-02
 cg2d: Sum(rhs),rhsMax =   5.42008979365072E-10  1.79860984456409E-02
 cg2d: Sum(rhs),rhsMax =   5.42058287145153E-10  1.79858119663135E-02
 cg2d: Sum(rhs),rhsMax =   5.42112424395391E-10  1.79855264721466E-02
 cg2d: Sum(rhs),rhsMax =   5.42169059647435E-10  1.79852418377037E-02
 cg2d: Sum(rhs),rhsMax =   5.42219158461421E-10  1.79849579189659E-02
 cg2d: Sum(rhs),rhsMax =   5.42272074466332E-10  1.79846745827024E-02
 cg2d: Sum(rhs),rhsMax =   5.42320965912779E-10  1.79843916757317E-02
 cg2d: Sum(rhs),rhsMax =   5.42362474376112E-10  1.79841090580362E-02
 cg2d: Sum(rhs),rhsMax =   5.42399195002652E-10  1.79838265719327E-02
 cg2d: Sum(rhs),rhsMax =   5.42456496388510E-10  1.79835440710072E-02
 Computing Diagnostic #    26 "THETA   " (list#  1) Parms "SMR     MR      ", Count=     144
 Computing Diagnostic #    27 "SALT    " (list#  1) Parms "SMR     MR      ", Count=     144
 Computing Diagnostic #    30 "UVEL    " (list#  1) Parms "UUR     MR      ", Count=     144
             Vector  Mate for "UVEL    " :  Diagnostic #     31 "VVEL    " exists
 Computing Diagnostic #    32 "WVEL    " (list#  1) Parms "WM      LR      ", Count=     144
 Computing Diagnostic #    31 "VVEL    " (list#  1) Parms "VVR     MR      ", Count=     144
             Vector  Mate for "VVEL    " :  Diagnostic #     30 "UVEL    " exists
 Computing Diagnostic #   197 "BRGfwFlx" (list#  2) Parms "SM      MR      ", Count=     144
 Computing Diagnostic #   198 "BRGhtFlx" (list#  2) Parms "SM      MR      ", Count=     144
 Computing Diagnostic #   199 "BRGmltRt" (list#  2) Parms "SM      MR      ", Count=     144
 Computing Diagnostic #   201 "BRG_TauX" (list#  2) Parms "UU      MR      ", Count=    1728
 Computing Diagnostic #   202 "BRG_TauY" (list#  2) Parms "VV      MR      ", Count=    1728
 Computing Diagnostic #   203 "BRGhFacC" (list#  2) Parms "SM      MR      ", Count=    1728
 cg2d: Sum(rhs),rhsMax =   5.42493258648413E-10  1.79832613967240E-02
 cg2d: Sum(rhs),rhsMax =   5.42553460491924E-10  1.79829784016759E-02
 cg2d: Sum(rhs),rhsMax =   5.42597078379004E-10  1.79826949236015E-02
 cg2d: Sum(rhs),rhsMax =   5.42637268452495E-10  1.79824108193384E-02
 cg2d: Sum(rhs),rhsMax =   5.42689310156774E-10  1.79821259300943E-02
 cg2d: Sum(rhs),rhsMax =   5.42740005715636E-10  1.79818401128207E-02
 cg2d: Sum(rhs),rhsMax =   5.42800041025693E-10  1.79815532157904E-02
 cg2d: Sum(rhs),rhsMax =   5.42852540696970E-10  1.79812651034454E-02
 cg2d: Sum(rhs),rhsMax =   5.42902833799985E-10  1.79809756306916E-02
 cg2d: Sum(rhs),rhsMax =   5.42951753002008E-10  1.79806846710043E-02
 cg2d: Sum(rhs),rhsMax =   5.42993691676763E-10  1.79803920903788E-02
 cg2d: Sum(rhs),rhsMax =   5.43046316248130E-10  1.79800977742411E-02
 cg2d: Sum(rhs),rhsMax =   5.43103687022928E-10  1.79798015245696E-02
 cg2d: Sum(rhs),rhsMax =   5.43155881382873E-10  1.79795030922660E-02
 cg2d: Sum(rhs),rhsMax =   5.43196682079028E-10  1.79792023536008E-02
 cg2d: Sum(rhs),rhsMax =   5.43262129726330E-10  1.79788990328053E-02
 cg2d: Sum(rhs),rhsMax =   5.43316600043475E-10  1.79785929361002E-02
 cg2d: Sum(rhs),rhsMax =   5.43363770644234E-10  1.79782839009630E-02
 cg2d: Sum(rhs),rhsMax =   5.43414188647340E-10  1.79779717552671E-02
 cg2d: Sum(rhs),rhsMax =   5.43468242630851E-10  1.79776563581991E-02
 cg2d: Sum(rhs),rhsMax =   5.43507988615133E-10  1.79773375790765E-02
 cg2d: Sum(rhs),rhsMax =   5.43558115184695E-10  1.79770153207516E-02
 cg2d: Sum(rhs),rhsMax =   5.43621953008611E-10  1.79766894951805E-02
 cg2d: Sum(rhs),rhsMax =   5.43677922126840E-10  1.79763600542139E-02
 cg2d: Sum(rhs),rhsMax =   5.43727354807011E-10  1.79760269582376E-02
 cg2d: Sum(rhs),rhsMax =   5.43782477380184E-10  1.79756902074791E-02
 cg2d: Sum(rhs),rhsMax =   5.43825443011237E-10  1.79753498108773E-02
 cg2d: Sum(rhs),rhsMax =   5.43869990710100E-10  1.79750058198069E-02
 cg2d: Sum(rhs),rhsMax =   5.43917175188646E-10  1.79746582924060E-02
 cg2d: Sum(rhs),rhsMax =   5.43962971888412E-10  1.79743073312180E-02
 cg2d: Sum(rhs),rhsMax =   5.44029002402802E-10  1.79739530442322E-02
 cg2d: Sum(rhs),rhsMax =   5.44083250675342E-10  1.79735955801860E-02
 cg2d: Sum(rhs),rhsMax =   5.44139011626754E-10  1.79732350990009E-02
 cg2d: Sum(rhs),rhsMax =   5.44185765893879E-10  1.79728717948795E-02
 cg2d: Sum(rhs),rhsMax =   5.44234768362628E-10  1.79725058722249E-02
 cg2d: Sum(rhs),rhsMax =   5.44286518633363E-10  1.79721375729508E-02
 cg2d: Sum(rhs),rhsMax =   5.44333300656064E-10  1.79717671392892E-02
 cg2d: Sum(rhs),rhsMax =   5.44398956470182E-10  1.79713948555473E-02
 cg2d: Sum(rhs),rhsMax =   5.44457423590217E-10  1.79710210033212E-02
 cg2d: Sum(rhs),rhsMax =   5.44505315835941E-10  1.79706458977814E-02
 cg2d: Sum(rhs),rhsMax =   5.44560202486721E-10  1.79702698523254E-02
 cg2d: Sum(rhs),rhsMax =   5.44604306096375E-10  1.79698932123970E-02
 cg2d: Sum(rhs),rhsMax =   5.44650546885350E-10  1.79695163155595E-02
 cg2d: Sum(rhs),rhsMax =   5.44701270199788E-10  1.79691395266073E-02
 cg2d: Sum(rhs),rhsMax =   5.44759404252915E-10  1.79687632027816E-02
 cg2d: Sum(rhs),rhsMax =   5.44814277025907E-10  1.79683877187568E-02
 cg2d: Sum(rhs),rhsMax =   5.44855063844274E-10  1.79680134425579E-02
 cg2d: Sum(rhs),rhsMax =   5.44895045750948E-10  1.79676407540218E-02
 cg2d: Sum(rhs),rhsMax =   5.44949363412428E-10  1.79672700201414E-02
 cg2d: Sum(rhs),rhsMax =   5.44992051487725E-10  1.79669016180177E-02
 cg2d: Sum(rhs),rhsMax =   5.45059622436561E-10  1.79665359054843E-02
 cg2d: Sum(rhs),rhsMax =   5.45106682015017E-10  1.79661732490433E-02
 cg2d: Sum(rhs),rhsMax =   5.45165995680108E-10  1.79658139908363E-02
 cg2d: Sum(rhs),rhsMax =   5.45223227677027E-10  1.79654584776417E-02
 cg2d: Sum(rhs),rhsMax =   5.45276879204692E-10  1.79651070249032E-02
 cg2d: Sum(rhs),rhsMax =   5.45335568369332E-10  1.79647599524717E-02
 cg2d: Sum(rhs),rhsMax =   5.45384445937991E-10  1.79644175428713E-02
 cg2d: Sum(rhs),rhsMax =   5.45437126020509E-10  1.79640800792309E-02
 cg2d: Sum(rhs),rhsMax =   5.45480910441043E-10  1.79637478067068E-02
 cg2d: Sum(rhs),rhsMax =   5.45533118678776E-10  1.79634209627519E-02
 cg2d: Sum(rhs),rhsMax =   5.45593445422377E-10  1.79630997473366E-02
 cg2d: Sum(rhs),rhsMax =   5.45628098258533E-10  1.79627843504194E-02
 cg2d: Sum(rhs),rhsMax =   5.45684150643488E-10  1.79624749210737E-02
 cg2d: Sum(rhs),rhsMax =   5.45731945744699E-10  1.79621715934655E-02
 cg2d: Sum(rhs),rhsMax =   5.45790218575704E-10  1.79618744631002E-02
 cg2d: Sum(rhs),rhsMax =   5.45832865017637E-10  1.79615836041692E-02
 cg2d: Sum(rhs),rhsMax =   5.45890097014556E-10  1.79612990502922E-02
 cg2d: Sum(rhs),rhsMax =   5.45941014618023E-10  1.79610208185462E-02
 cg2d: Sum(rhs),rhsMax =   5.45997996814762E-10  1.79607488801810E-02
 cg2d: Sum(rhs),rhsMax =   5.46049622185407E-10  1.79604831883256E-02
 cg2d: Sum(rhs),rhsMax =   5.46095155207205E-10  1.79602236522719E-02
 cg2d: Sum(rhs),rhsMax =   5.46143547053290E-10  1.79599701643629E-02
 cg2d: Sum(rhs),rhsMax =   5.46186512684343E-10  1.79597225454327E-02
 cg2d: Sum(rhs),rhsMax =   5.46224801500905E-10  1.79594806512468E-02
 cg2d: Sum(rhs),rhsMax =   5.46276385238187E-10  1.79592442737031E-02
 cg2d: Sum(rhs),rhsMax =   5.46321460292987E-10  1.79590131823442E-02
 cg2d: Sum(rhs),rhsMax =   5.46376235921464E-10  1.79587871037603E-02
 cg2d: Sum(rhs),rhsMax =   5.46421310976264E-10  1.79585657490147E-02
 cg2d: Sum(rhs),rhsMax =   5.46473297169392E-10  1.79583487856224E-02
 cg2d: Sum(rhs),rhsMax =   5.46518649779948E-10  1.79581358742553E-02
 cg2d: Sum(rhs),rhsMax =   5.46565875891858E-10  1.79579266383084E-02
 cg2d: Sum(rhs),rhsMax =   5.46616321650539E-10  1.79577206933764E-02
 cg2d: Sum(rhs),rhsMax =   5.46662826117483E-10  1.79575176256042E-02
 cg2d: Sum(rhs),rhsMax =   5.46706444004563E-10  1.79573170129410E-02
 cg2d: Sum(rhs),rhsMax =   5.46751852126270E-10  1.79571184037774E-02
 cg2d: Sum(rhs),rhsMax =   5.46807460422016E-10  1.79569213499154E-02
 cg2d: Sum(rhs),rhsMax =   5.46862721773067E-10  1.79567253722614E-02
 cg2d: Sum(rhs),rhsMax =   5.46904049825159E-10  1.79565299974161E-02
 cg2d: Sum(rhs),rhsMax =   5.46959144642756E-10  1.79563347269792E-02
 cg2d: Sum(rhs),rhsMax =   5.47001680062387E-10  1.79561390757364E-02
 cg2d: Sum(rhs),rhsMax =   5.47052028676553E-10  1.79559425357548E-02
 cg2d: Sum(rhs),rhsMax =   5.47112161131125E-10  1.79557446133626E-02
 cg2d: Sum(rhs),rhsMax =   5.47165160402763E-10  1.79555448047626E-02
 cg2d: Sum(rhs),rhsMax =   5.47218798052640E-10  1.79553426200924E-02
 cg2d: Sum(rhs),rhsMax =   5.47265774364369E-10  1.79551375639002E-02
 cg2d: Sum(rhs),rhsMax =   5.47315914811719E-10  1.79549291638930E-02
 cg2d: Sum(rhs),rhsMax =   5.47371523107465E-10  1.79547169433985E-02
 cg2d: Sum(rhs),rhsMax =   5.47413711582401E-10  1.79545004531572E-02
 cg2d: Sum(rhs),rhsMax =   5.47459091948532E-10  1.79542792492729E-02
 cg2d: Sum(rhs),rhsMax =   5.47505540904325E-10  1.79540529169794E-02
 cg2d: Sum(rhs),rhsMax =   5.47550046969825E-10  1.79538210496797E-02
 cg2d: Sum(rhs),rhsMax =   5.47597051037130E-10  1.79535832762302E-02
 cg2d: Sum(rhs),rhsMax =   5.47657433291882E-10  1.79533392390903E-02
 cg2d: Sum(rhs),rhsMax =   5.47702647124559E-10  1.79530886214557E-02
 cg2d: Sum(rhs),rhsMax =   5.47746861756515E-10  1.79528311198402E-02
 cg2d: Sum(rhs),rhsMax =   5.47796752403684E-10  1.79525664747415E-02
 cg2d: Sum(rhs),rhsMax =   5.47852443966157E-10  1.79522944462378E-02
 cg2d: Sum(rhs),rhsMax =   5.47912770709758E-10  1.79520148380565E-02
 cg2d: Sum(rhs),rhsMax =   5.47962883401532E-10  1.79517274753115E-02
 cg2d: Sum(rhs),rhsMax =   5.48013176504547E-10  1.79514322313058E-02
 cg2d: Sum(rhs),rhsMax =   5.48061651617360E-10  1.79511290031364E-02
 cg2d: Sum(rhs),rhsMax =   5.48104478470535E-10  1.79508177360444E-02
 cg2d: Sum(rhs),rhsMax =   5.48158865520953E-10  1.79504983989716E-02
 cg2d: Sum(rhs),rhsMax =   5.48200651540043E-10  1.79501710109737E-02
 cg2d: Sum(rhs),rhsMax =   5.48255940646669E-10  1.79498356141898E-02
 cg2d: Sum(rhs),rhsMax =   5.48297018898580E-10  1.79494922970787E-02
 cg2d: Sum(rhs),rhsMax =   5.48358428109630E-10  1.79491411928157E-02
 cg2d: Sum(rhs),rhsMax =   5.48403392142127E-10  1.79487824539228E-02
 cg2d: Sum(rhs),rhsMax =   5.48449730075617E-10  1.79484162688686E-02
 cg2d: Sum(rhs),rhsMax =   5.48501577490867E-10  1.79480428753321E-02
 cg2d: Sum(rhs),rhsMax =   5.48547401946209E-10  1.79476625325189E-02
 cg2d: Sum(rhs),rhsMax =   5.48608214412383E-10  1.79472755426036E-02
 cg2d: Sum(rhs),rhsMax =   5.48660242238874E-10  1.79468822247129E-02
 cg2d: Sum(rhs),rhsMax =   5.48704554015345E-10  1.79464829446440E-02
 cg2d: Sum(rhs),rhsMax =   5.48755249574207E-10  1.79460780807294E-02
 cg2d: Sum(rhs),rhsMax =   5.48809997447108E-10  1.79456680509205E-02
 cg2d: Sum(rhs),rhsMax =   5.48846870729314E-10  1.79452532840001E-02
 cg2d: Sum(rhs),rhsMax =   5.48899870000952E-10  1.79448342497519E-02
 cg2d: Sum(rhs),rhsMax =   5.48946346712320E-10  1.79444120192131E-02
 cg2d: Sum(rhs),rhsMax =   5.48998235760934E-10  1.79439874323841E-02
 cg2d: Sum(rhs),rhsMax =   5.49045017783634E-10  1.79435609980904E-02
 cg2d: Sum(rhs),rhsMax =   5.49100542812653E-10  1.79431332445044E-02
 cg2d: Sum(rhs),rhsMax =   5.49156498053094E-10  1.79427047003832E-02
 cg2d: Sum(rhs),rhsMax =   5.49213577394347E-10  1.79422759174167E-02
 cg2d: Sum(rhs),rhsMax =   5.49260789628470E-10  1.79418474393813E-02
 cg2d: Sum(rhs),rhsMax =   5.49312775821598E-10  1.79414198237660E-02
 cg2d: Sum(rhs),rhsMax =   5.49362430546374E-10  1.79409936159812E-02
 cg2d: Sum(rhs),rhsMax =   5.49418843753813E-10  1.79405693749749E-02
 cg2d: Sum(rhs),rhsMax =   5.49478490485811E-10  1.79401476361232E-02
 cg2d: Sum(rhs),rhsMax =   5.49530851379210E-10  1.79397289450325E-02
 cg2d: Sum(rhs),rhsMax =   5.49594536547460E-10  1.79393138222999E-02
 cg2d: Sum(rhs),rhsMax =   5.49644482705780E-10  1.79389027895948E-02
 cg2d: Sum(rhs),rhsMax =   5.49709958108657E-10  1.79384963409851E-02
 cg2d: Sum(rhs),rhsMax =   5.49761985935149E-10  1.79380949661782E-02
 Computing Diagnostic #    26 "THETA   " (list#  1) Parms "SMR     MR      ", Count=     144
 Computing Diagnostic #    27 "SALT    " (list#  1) Parms "SMR     MR      ", Count=     144
 Computing Diagnostic #    30 "UVEL    " (list#  1) Parms "UUR     MR      ", Count=     144
             Vector  Mate for "UVEL    " :  Diagnostic #     31 "VVEL    " exists
 Computing Diagnostic #    32 "WVEL    " (list#  1) Parms "WM      LR      ", Count=     144
 Computing Diagnostic #    31 "VVEL    " (list#  1) Parms "VVR     MR      ", Count=     144
             Vector  Mate for "VVEL    " :  Diagnostic #     30 "UVEL    " exists
 Computing Diagnostic #   197 "BRGfwFlx" (list#  2) Parms "SM      MR      ", Count=     144
 Computing Diagnostic #   198 "BRGhtFlx" (list#  2) Parms "SM      MR      ", Count=     144
 Computing Diagnostic #   199 "BRGmltRt" (list#  2) Parms "SM      MR      ", Count=     144
 Computing Diagnostic #   201 "BRG_TauX" (list#  2) Parms "UU      MR      ", Count=    1728
 Computing Diagnostic #   202 "BRG_TauY" (list#  2) Parms "VV      MR      ", Count=    1728
 Computing Diagnostic #   203 "BRGhFacC" (list#  2) Parms "SM      MR      ", Count=    1728
 cg2d: Sum(rhs),rhsMax =   5.49816137063175E-10  1.79376991235357E-02
 cg2d: Sum(rhs),rhsMax =   5.49866194243798E-10  1.79373092632281E-02
 cg2d: Sum(rhs),rhsMax =   5.49934514593176E-10  1.79369258138852E-02
 cg2d: Sum(rhs),rhsMax =   5.49983419917410E-10  1.79365491366588E-02
 cg2d: Sum(rhs),rhsMax =   5.50026704737583E-10  1.79361795083358E-02
 cg2d: Sum(rhs),rhsMax =   5.50088682937933E-10  1.79358174342494E-02
 cg2d: Sum(rhs),rhsMax =   5.50141807109661E-10  1.79354632062661E-02
 cg2d: Sum(rhs),rhsMax =   5.50179957148345E-10  1.79351170545027E-02
 cg2d: Sum(rhs),rhsMax =   5.50220771722287E-10  1.79347792076220E-02
 cg2d: Sum(rhs),rhsMax =   5.50264792065214E-10  1.79344498916044E-02
 cg2d: Sum(rhs),rhsMax =   5.50320261583082E-10  1.79341292818325E-02
 cg2d: Sum(rhs),rhsMax =   5.50361922702081E-10  1.79338175290708E-02
 cg2d: Sum(rhs),rhsMax =   5.50409759436654E-10  1.79335147262931E-02
 cg2d: Sum(rhs),rhsMax =   5.50459511305945E-10  1.79332209430536E-02
 cg2d: Sum(rhs),rhsMax =   5.50517118003135E-10  1.79329361997142E-02
 cg2d: Sum(rhs),rhsMax =   5.50553408418253E-10  1.79326604911918E-02
 cg2d: Sum(rhs),rhsMax =   5.50607864857611E-10  1.79323937621371E-02
 cg2d: Sum(rhs),rhsMax =   5.50655562814306E-10  1.79321359341879E-02
 cg2d: Sum(rhs),rhsMax =   5.50698028844998E-10  1.79318868795850E-02
 cg2d: Sum(rhs),rhsMax =   5.50749737482370E-10  1.79316464476889E-02
 cg2d: Sum(rhs),rhsMax =   5.50792564335545E-10  1.79314144404807E-02
 cg2d: Sum(rhs),rhsMax =   5.50845077884610E-10  1.79311906373516E-02
 cg2d: Sum(rhs),rhsMax =   5.50888584749387E-10  1.79309747712502E-02
 cg2d: Sum(rhs),rhsMax =   5.50956960609916E-10  1.79307665571387E-02
 cg2d: Sum(rhs),rhsMax =   5.50996970272166E-10  1.79305656646169E-02
 cg2d: Sum(rhs),rhsMax =   5.51034440299247E-10  1.79303717495004E-02
 cg2d: Sum(rhs),rhsMax =   5.51084802791202E-10  1.79301844228426E-02
 cg2d: Sum(rhs),rhsMax =   5.51137663284962E-10  1.79300032861026E-02
 cg2d: Sum(rhs),rhsMax =   5.51185416752809E-10  1.79298278993913E-02
 cg2d: Sum(rhs),rhsMax =   5.51232531842416E-10  1.79296578171880E-02
 cg2d: Sum(rhs),rhsMax =   5.51278328542182E-10  1.79294925579825E-02
 cg2d: Sum(rhs),rhsMax =   5.51317214103619E-10  1.79293312890121E-02
 cg2d: Sum(rhs),rhsMax =   5.51356252320723E-10  1.79291714501600E-02
 cg2d: Sum(rhs),rhsMax =   5.51388587566315E-10  1.79290143641240E-02
 cg2d: Sum(rhs),rhsMax =   5.51440296203687E-10  1.79288575678820E-02
 cg2d: Sum(rhs),rhsMax =   5.51487647215687E-10  1.79287023487144E-02
 cg2d: Sum(rhs),rhsMax =   5.51539439119786E-10  1.79285462405366E-02
 cg2d: Sum(rhs),rhsMax =   5.51586304409213E-10  1.79283905367913E-02
 cg2d: Sum(rhs),rhsMax =   5.51631754164283E-10  1.79282327814519E-02
 cg2d: Sum(rhs),rhsMax =   5.51682061145087E-10  1.79280742870720E-02
 cg2d: Sum(rhs),rhsMax =   5.51735754306115E-10  1.79279126189016E-02
 cg2d: Sum(rhs),rhsMax =   5.51774292922858E-10  1.79277491172631E-02
 cg2d: Sum(rhs),rhsMax =   5.51818632454903E-10  1.79275806747030E-02
 cg2d: Sum(rhs),rhsMax =   5.51872422760447E-10  1.79274063299351E-02
 cg2d: Sum(rhs),rhsMax =   5.51914750013260E-10  1.79272256062568E-02
 cg2d: Sum(rhs),rhsMax =   5.51963252881649E-10  1.79270380622825E-02
 cg2d: Sum(rhs),rhsMax =   5.52014933763445E-10  1.79268432708918E-02
 cg2d: Sum(rhs),rhsMax =   5.52061424352601E-10  1.79266408618104E-02
 cg2d: Sum(rhs),rhsMax =   5.52101780959546E-10  1.79264304901315E-02
 cg2d: Sum(rhs),rhsMax =   5.52145079657507E-10  1.79262118726624E-02
 cg2d: Sum(rhs),rhsMax =   5.52193665792622E-10  1.79259847546972E-02
 cg2d: Sum(rhs),rhsMax =   5.52244833196269E-10  1.79257489408567E-02
 cg2d: Sum(rhs),rhsMax =   5.52298970446508E-10  1.79255042732410E-02
 cg2d: Sum(rhs),rhsMax =   5.52331708147946E-10  1.79252506485327E-02
 cg2d: Sum(rhs),rhsMax =   5.52374243567577E-10  1.79249880029240E-02
 cg2d: Sum(rhs),rhsMax =   5.52417028787389E-10  1.79247163291484E-02
 cg2d: Sum(rhs),rhsMax =   5.52456760893882E-10  1.79244356569887E-02
 cg2d: Sum(rhs),rhsMax =   5.52496132177893E-10  1.79241460721171E-02
 cg2d: Sum(rhs),rhsMax =   5.52564410893908E-10  1.79238476819808E-02
 cg2d: Sum(rhs),rhsMax =   5.52616299942521E-10  1.79235406947622E-02
 cg2d: Sum(rhs),rhsMax =   5.52675086251675E-10  1.79232253179308E-02
 cg2d: Sum(rhs),rhsMax =   5.52724463420695E-10  1.79229017970914E-02
 cg2d: Sum(rhs),rhsMax =   5.52776990847548E-10  1.79225704216177E-02
 cg2d: Sum(rhs),rhsMax =   5.52822107535711E-10  1.79222315343894E-02
 cg2d: Sum(rhs),rhsMax =   5.52881906923375E-10  1.79218855080911E-02
 cg2d: Sum(rhs),rhsMax =   5.52934517616954E-10  1.79215327553736E-02
 cg2d: Sum(rhs),rhsMax =   5.52991860636176E-10  1.79211737117029E-02
 cg2d: Sum(rhs),rhsMax =   5.53051340834720E-10  1.79208088487896E-02
 cg2d: Sum(rhs),rhsMax =   5.53092155408663E-10  1.79204386569601E-02
 cg2d: Sum(rhs),rhsMax =   5.53144335890821E-10  1.79200636635782E-02
 cg2d: Sum(rhs),rhsMax =   5.53190965257855E-10  1.79196844022947E-02
 cg2d: Sum(rhs),rhsMax =   5.53231488398254E-10  1.79193014415247E-02
 cg2d: Sum(rhs),rhsMax =   5.53279422277342E-10  1.79189153487018E-02
 cg2d: Sum(rhs),rhsMax =   5.53327619834398E-10  1.79185267171971E-02
 cg2d: Sum(rhs),rhsMax =   5.53368920130914E-10  1.79181361381868E-02
 cg2d: Sum(rhs),rhsMax =   5.53428927685395E-10  1.79177442193384E-02
 cg2d: Sum(rhs),rhsMax =   5.53478915477079E-10  1.79173515564671E-02
 cg2d: Sum(rhs),rhsMax =   5.53535134395489E-10  1.79169587629623E-02
 cg2d: Sum(rhs),rhsMax =   5.53589021845546E-10  1.79165664312863E-02
 cg2d: Sum(rhs),rhsMax =   5.53649598389327E-10  1.79161751597237E-02
 cg2d: Sum(rhs),rhsMax =   5.53688067617131E-10  1.79157855275195E-02
 cg2d: Sum(rhs),rhsMax =   5.53735224340102E-10  1.79153981103989E-02
 cg2d: Sum(rhs),rhsMax =   5.53782894541222E-10  1.79150134546749E-02
 cg2d: Sum(rhs),rhsMax =   5.53836698724552E-10  1.79146321056371E-02
 cg2d: Sum(rhs),rhsMax =   5.53886686516236E-10  1.79142545681738E-02
 cg2d: Sum(rhs),rhsMax =   5.53948928394554E-10  1.79138813409254E-02
 cg2d: Sum(rhs),rhsMax =   5.53995210816893E-10  1.79135128820765E-02
 cg2d: Sum(rhs),rhsMax =   5.54051290957425E-10  1.79131496319852E-02
 cg2d: Sum(rhs),rhsMax =   5.54092716154031E-10  1.79127919872411E-02
 cg2d: Sum(rhs),rhsMax =   5.54143800290952E-10  1.79124403274788E-02
 cg2d: Sum(rhs),rhsMax =   5.54194357071935E-10  1.79120949837667E-02
 cg2d: Sum(rhs),rhsMax =   5.54236601058022E-10  1.79117562596610E-02
 cg2d: Sum(rhs),rhsMax =   5.54292459153949E-10  1.79114244123040E-02
 cg2d: Sum(rhs),rhsMax =   5.54340018332766E-10  1.79110996708367E-02
 cg2d: Sum(rhs),rhsMax =   5.54391477169958E-10  1.79107822147132E-02
 cg2d: Sum(rhs),rhsMax =   5.54429085974917E-10  1.79104721910769E-02
 cg2d: Sum(rhs),rhsMax =   5.54484763659602E-10  1.79101696934445E-02
 cg2d: Sum(rhs),rhsMax =   5.54533780006139E-10  1.79098747876703E-02
 cg2d: Sum(rhs),rhsMax =   5.54586668255475E-10  1.79095874872588E-02
 cg2d: Sum(rhs),rhsMax =   5.54638557304088E-10  1.79093077720620E-02
 cg2d: Sum(rhs),rhsMax =   5.54684603804034E-10  1.79090355694412E-02
 cg2d: Sum(rhs),rhsMax =   5.54732079716125E-10  1.79087707780011E-02
 cg2d: Sum(rhs),rhsMax =   5.54770951399775E-10  1.79085132428957E-02
 cg2d: Sum(rhs),rhsMax =   5.54812348840805E-10  1.79082627835002E-02
 cg2d: Sum(rhs),rhsMax =   5.54875229097362E-10  1.79080191664262E-02
 cg2d: Sum(rhs),rhsMax =   5.54914558748010E-10  1.79077821329832E-02
 cg2d: Sum(rhs),rhsMax =   5.54968904165065E-10  1.79075513776216E-02
 cg2d: Sum(rhs),rhsMax =   5.55014492698014E-10  1.79073265721931E-02
 cg2d: Sum(rhs),rhsMax =   5.55053072948120E-10  1.79071073431398E-02
 cg2d: Sum(rhs),rhsMax =   5.55102783184047E-10  1.79068932971903E-02
 cg2d: Sum(rhs),rhsMax =   5.55154394676904E-10  1.79066840036245E-02
 cg2d: Sum(rhs),rhsMax =   5.55194848428364E-10  1.79064790134051E-02
 cg2d: Sum(rhs),rhsMax =   5.55252080425284E-10  1.79062778447377E-02
 cg2d: Sum(rhs),rhsMax =   5.55300166960038E-10  1.79060800020984E-02
 cg2d: Sum(rhs),rhsMax =   5.55352416831134E-10  1.79058849624100E-02
 cg2d: Sum(rhs),rhsMax =   5.55393342427379E-10  1.79056921963458E-02
 cg2d: Sum(rhs),rhsMax =   5.55448506633915E-10  1.79055011460704E-02
 cg2d: Sum(rhs),rhsMax =   5.55486670550387E-10  1.79053112598192E-02
 cg2d: Sum(rhs),rhsMax =   5.55529997003923E-10  1.79051219595773E-02
 cg2d: Sum(rhs),rhsMax =   5.55576543104230E-10  1.79049326774812E-02
 cg2d: Sum(rhs),rhsMax =   5.55611362473840E-10  1.79047428270739E-02
 cg2d: Sum(rhs),rhsMax =   5.55658991041597E-10  1.79045518388213E-02
 cg2d: Sum(rhs),rhsMax =   5.55698570492424E-10  1.79043591259498E-02
 cg2d: Sum(rhs),rhsMax =   5.55744519847856E-10  1.79041641257976E-02
 cg2d: Sum(rhs),rhsMax =   5.55774495869521E-10  1.79039662679353E-02
 cg2d: Sum(rhs),rhsMax =   5.55813173264141E-10  1.79037650050589E-02
 cg2d: Sum(rhs),rhsMax =   5.55861398576774E-10  1.79035597932583E-02
 cg2d: Sum(rhs),rhsMax =   5.55911552901911E-10  1.79033501120115E-02
 cg2d: Sum(rhs),rhsMax =   5.55958432069126E-10  1.79031354731337E-02
 cg2d: Sum(rhs),rhsMax =   5.56007281882209E-10  1.79029153837093E-02
 cg2d: Sum(rhs),rhsMax =   5.56049817301840E-10  1.79026893994080E-02
 cg2d: Sum(rhs),rhsMax =   5.56096710346843E-10  1.79024570909833E-02
 cg2d: Sum(rhs),rhsMax =   5.56141036001101E-10  1.79022180441401E-02
 cg2d: Sum(rhs),rhsMax =   5.56175008825655E-10  1.79019718888580E-02
 cg2d: Sum(rhs),rhsMax =   5.56227217063388E-10  1.79017182697920E-02
 cg2d: Sum(rhs),rhsMax =   5.56273457852363E-10  1.79014568763779E-02
 cg2d: Sum(rhs),rhsMax =   5.56304821652809E-10  1.79011874180995E-02
 cg2d: Sum(rhs),rhsMax =   5.56360860159977E-10  1.79009096476465E-02
 cg2d: Sum(rhs),rhsMax =   5.56412568797349E-10  1.79006233403910E-02
 cg2d: Sum(rhs),rhsMax =   5.56464471723750E-10  1.79003283218552E-02
 cg2d: Sum(rhs),rhsMax =   5.56510310056879E-10  1.79000244361293E-02
 cg2d: Sum(rhs),rhsMax =   5.56565266096598E-10  1.78997115797298E-02
 cg2d: Sum(rhs),rhsMax =   5.56610951774061E-10  1.78993896689659E-02
 cg2d: Sum(rhs),rhsMax =   5.56664742079604E-10  1.78990586722290E-02
 Computing Diagnostic #    26 "THETA   " (list#  1) Parms "SMR     MR      ", Count=     144
 Computing Diagnostic #    27 "SALT    " (list#  1) Parms "SMR     MR      ", Count=     144
 Computing Diagnostic #    30 "UVEL    " (list#  1) Parms "UUR     MR      ", Count=     144
             Vector  Mate for "UVEL    " :  Diagnostic #     31 "VVEL    " exists
 Computing Diagnostic #    32 "WVEL    " (list#  1) Parms "WM      LR      ", Count=     144
 Computing Diagnostic #    31 "VVEL    " (list#  1) Parms "VVR     MR      ", Count=     144
             Vector  Mate for "VVEL    " :  Diagnostic #     30 "UVEL    " exists
 Computing Diagnostic #   197 "BRGfwFlx" (list#  2) Parms "SM      MR      ", Count=     144
 Computing Diagnostic #   198 "BRGhtFlx" (list#  2) Parms "SM      MR      ", Count=     144
 Computing Diagnostic #   199 "BRGmltRt" (list#  2) Parms "SM      MR      ", Count=     144
 Computing Diagnostic #   201 "BRG_TauX" (list#  2) Parms "UU      MR      ", Count=    1728
 Computing Diagnostic #   202 "BRG_TauY" (list#  2) Parms "VV      MR      ", Count=    1728
 Computing Diagnostic #   203 "BRGhFacC" (list#  2) Parms "SM      MR      ", Count=    1728
 cg2d: Sum(rhs),rhsMax =   5.56719462196931E-10  1.78987185808521E-02
 cg2d: Sum(rhs),rhsMax =   5.56765966663875E-10  1.78983694337466E-02
 cg2d: Sum(rhs),rhsMax =   5.56823670505580E-10  1.78980112927275E-02
 cg2d: Sum(rhs),rhsMax =   5.56869883538980E-10  1.78976442665006E-02
 cg2d: Sum(rhs),rhsMax =   5.56922050143349E-10  1.78972684891836E-02
 cg2d: Sum(rhs),rhsMax =   5.56980531141171E-10  1.78968841364994E-02
 cg2d: Sum(rhs),rhsMax =   5.57040941151499E-10  1.78964914060039E-02
 cg2d: Sum(rhs),rhsMax =   5.57099616438350E-10  1.78960905374843E-02
 cg2d: Sum(rhs),rhsMax =   5.57148577273736E-10  1.78956817890342E-02
 cg2d: Sum(rhs),rhsMax =   5.57210902418781E-10  1.78952654588047E-02
 cg2d: Sum(rhs),rhsMax =   5.57276363943870E-10  1.78948418606389E-02
 cg2d: Sum(rhs),rhsMax =   5.57333568185214E-10  1.78944113445033E-02
 cg2d: Sum(rhs),rhsMax =   5.57394075340056E-10  1.78939742697722E-02
 cg2d: Sum(rhs),rhsMax =   5.57448948113048E-10  1.78935310340361E-02
 cg2d: Sum(rhs),rhsMax =   5.57501642073355E-10  1.78930820375706E-02
 cg2d: Sum(rhs),rhsMax =   5.57561399827655E-10  1.78926277126728E-02
 cg2d: Sum(rhs),rhsMax =   5.57608570428414E-10  1.78921684953195E-02
 cg2d: Sum(rhs),rhsMax =   5.57660029265605E-10  1.78917048439990E-02
 cg2d: Sum(rhs),rhsMax =   5.57716831051103E-10  1.78912372204155E-02
 cg2d: Sum(rhs),rhsMax =   5.57769511133621E-10  1.78907661021844E-02
 cg2d: Sum(rhs),rhsMax =   5.57836041248372E-10  1.78902919658978E-02
 cg2d: Sum(rhs),rhsMax =   5.57892648744840E-10  1.78898153044640E-02
 cg2d: Sum(rhs),rhsMax =   5.57953169777470E-10  1.78893365978994E-02
 cg2d: Sum(rhs),rhsMax =   5.58008861339943E-10  1.78888563410013E-02
 cg2d: Sum(rhs),rhsMax =   5.58060542221739E-10  1.78883750121751E-02
 cg2d: Sum(rhs),rhsMax =   5.58115303972428E-10  1.78878930998001E-02
 cg2d: Sum(rhs),rhsMax =   5.58160767605287E-10  1.78874110741972E-02
 cg2d: Sum(rhs),rhsMax =   5.58203899769794E-10  1.78869294064168E-02
 cg2d: Sum(rhs),rhsMax =   5.58248808291140E-10  1.78864485475070E-02
 cg2d: Sum(rhs),rhsMax =   5.58309995457584E-10  1.78859689471135E-02
 cg2d: Sum(rhs),rhsMax =   5.58365395586513E-10  1.78854910290186E-02
 cg2d: Sum(rhs),rhsMax =   5.58408694284473E-10  1.78850152112371E-02
 cg2d: Sum(rhs),rhsMax =   5.58474558265409E-10  1.78845418885014E-02
 cg2d: Sum(rhs),rhsMax =   5.58535648287339E-10  1.78840714399120E-02
 cg2d: Sum(rhs),rhsMax =   5.58588508781099E-10  1.78836042186459E-02
 cg2d: Sum(rhs),rhsMax =   5.58644422388177E-10  1.78831405652811E-02
 cg2d: Sum(rhs),rhsMax =   5.58706872433312E-10  1.78826807847023E-02
 cg2d: Sum(rhs),rhsMax =   5.58753876500617E-10  1.78822251716700E-02
 cg2d: Sum(rhs),rhsMax =   5.58798562977358E-10  1.78817739820534E-02
 cg2d: Sum(rhs),rhsMax =   5.58850424270396E-10  1.78813274577108E-02
 cg2d: Sum(rhs),rhsMax =   5.58892210289486E-10  1.78808858026211E-02
 cg2d: Sum(rhs),rhsMax =   5.58951815388120E-10  1.78804492046322E-02
 cg2d: Sum(rhs),rhsMax =   5.59010407408245E-10  1.78800178133932E-02
 cg2d: Sum(rhs),rhsMax =   5.59063795257941E-10  1.78795917579269E-02
 cg2d: Sum(rhs),rhsMax =   5.59129298416394E-10  1.78791711339624E-02
 cg2d: Sum(rhs),rhsMax =   5.59199186955794E-10  1.78787560132491E-02
 cg2d: Sum(rhs),rhsMax =   5.59245455500346E-10  1.78783464353534E-02
 cg2d: Sum(rhs),rhsMax =   5.59298191094015E-10  1.78779424107640E-02
 cg2d: Sum(rhs),rhsMax =   5.59346124973104E-10  1.78775439205808E-02
 cg2d: Sum(rhs),rhsMax =   5.59399582211739E-10  1.78771509310273E-02
 cg2d: Sum(rhs),rhsMax =   5.59448154469067E-10  1.78767633717350E-02
 cg2d: Sum(rhs),rhsMax =   5.59510562880838E-10  1.78763811481188E-02
 cg2d: Sum(rhs),rhsMax =   5.59554513834826E-10  1.78760041312649E-02
 cg2d: Sum(rhs),rhsMax =   5.59609095174274E-10  1.78756321822378E-02
 cg2d: Sum(rhs),rhsMax =   5.59660040533316E-10  1.78752651239992E-02
 cg2d: Sum(rhs),rhsMax =   5.59707502567619E-10  1.78749027719472E-02
 cg2d: Sum(rhs),rhsMax =   5.59764512519934E-10  1.78745449060873E-02
 cg2d: Sum(rhs),rhsMax =   5.59816748513242E-10  1.78741912996009E-02
 cg2d: Sum(rhs),rhsMax =   5.59864266058696E-10  1.78738416931693E-02
 cg2d: Sum(rhs),rhsMax =   5.59928325927217E-10  1.78734958241038E-02
 cg2d: Sum(rhs),rhsMax =   5.59978785563686E-10  1.78731534827251E-02
 cg2d: Sum(rhs),rhsMax =   5.60024332463271E-10  1.78728142513943E-02
 cg2d: Sum(rhs),rhsMax =   5.60068824650983E-10  1.78724779728675E-02
 cg2d: Sum(rhs),rhsMax =   5.60113885827995E-10  1.78721443754385E-02
 cg2d: Sum(rhs),rhsMax =   5.60178028963243E-10  1.78718131139603E-02
 cg2d: Sum(rhs),rhsMax =   5.60230264956552E-10  1.78714838847203E-02
 cg2d: Sum(rhs),rhsMax =   5.60284429962365E-10  1.78711563564168E-02
 cg2d: Sum(rhs),rhsMax =   5.60333959787052E-10  1.78708302318916E-02
 cg2d: Sum(rhs),rhsMax =   5.60387874992685E-10  1.78705051668711E-02
 cg2d: Sum(rhs),rhsMax =   5.60432839025182E-10  1.78701808321689E-02
 cg2d: Sum(rhs),rhsMax =   5.60480870048785E-10  1.78698568811013E-02
 cg2d: Sum(rhs),rhsMax =   5.60519533565618E-10  1.78695329867062E-02
 cg2d: Sum(rhs),rhsMax =   5.60571575269897E-10  1.78692087991355E-02
 cg2d: Sum(rhs),rhsMax =   5.60622742673544E-10  1.78688840101005E-02
 cg2d: Sum(rhs),rhsMax =   5.60683152683872E-10  1.78685582584712E-02
 cg2d: Sum(rhs),rhsMax =   5.60727825282825E-10  1.78682312243562E-02
 cg2d: Sum(rhs),rhsMax =   5.60773955049498E-10  1.78679025779587E-02
 cg2d: Sum(rhs),rhsMax =   5.60831700524567E-10  1.78675720189668E-02
 cg2d: Sum(rhs),rhsMax =   5.60877538857696E-10  1.78672392252369E-02
 cg2d: Sum(rhs),rhsMax =   5.60920546122112E-10  1.78669039108346E-02
 cg2d: Sum(rhs),rhsMax =   5.60985854991536E-10  1.78665657765058E-02
 cg2d: Sum(rhs),rhsMax =   5.61037452606605E-10  1.78662245554438E-02
 cg2d: Sum(rhs),rhsMax =   5.61092200479507E-10  1.78658799720103E-02
 cg2d: Sum(rhs),rhsMax =   5.61148641442522E-10  1.78655317843936E-02
 cg2d: Sum(rhs),rhsMax =   5.61193522208292E-10  1.78651797446335E-02
 cg2d: Sum(rhs),rhsMax =   5.61257679221328E-10  1.78648236394987E-02
 cg2d: Sum(rhs),rhsMax =   5.61302601620461E-10  1.78644632483265E-02
 cg2d: Sum(rhs),rhsMax =   5.61349161598557E-10  1.78640983911730E-02
 cg2d: Sum(rhs),rhsMax =   5.61410737343060E-10  1.78637288795729E-02
 cg2d: Sum(rhs),rhsMax =   5.61461363512983E-10  1.78633545661382E-02
 cg2d: Sum(rhs),rhsMax =   5.61512544794418E-10  1.78629752981741E-02
 cg2d: Sum(rhs),rhsMax =   5.61561283585199E-10  1.78625909620726E-02
 cg2d: Sum(rhs),rhsMax =   5.61624899364510E-10  1.78622014404720E-02
 cg2d: Sum(rhs),rhsMax =   5.61683019539849E-10  1.78618066554108E-02
 cg2d: Sum(rhs),rhsMax =   5.61732868553655E-10  1.78614065249817E-02
 cg2d: Sum(rhs),rhsMax =   5.61797261489083E-10  1.78610010076825E-02
 cg2d: Sum(rhs),rhsMax =   5.61852731006951E-10  1.78605900578052E-02
 cg2d: Sum(rhs),rhsMax =   5.61913071628339E-10  1.78601736688802E-02
 cg2d: Sum(rhs),rhsMax =   5.61963323097991E-10  1.78597518297435E-02
 cg2d: Sum(rhs),rhsMax =   5.62023969030712E-10  1.78593245697811E-02
 cg2d: Sum(rhs),rhsMax =   5.62062618669756E-10  1.78588919107001E-02
 cg2d: Sum(rhs),rhsMax =   5.62122376424057E-10  1.78584539157256E-02
 cg2d: Sum(rhs),rhsMax =   5.62178720242557E-10  1.78580106396864E-02
 cg2d: Sum(rhs),rhsMax =   5.62239060863945E-10  1.78575621759198E-02
 cg2d: Sum(rhs),rhsMax =   5.62285759619918E-10  1.78571086477523E-02
 cg2d: Sum(rhs),rhsMax =   5.62347265975482E-10  1.78566501819811E-02
 cg2d: Sum(rhs),rhsMax =   5.62406191062514E-10  1.78561869009110E-02
 cg2d: Sum(rhs),rhsMax =   5.62464907982729E-10  1.78557189374231E-02
 cg2d: Sum(rhs),rhsMax =   5.62505098056221E-10  1.78552464415947E-02
 cg2d: Sum(rhs),rhsMax =   5.62556973227046E-10  1.78547695690833E-02
 cg2d: Sum(rhs),rhsMax =   5.62608973297962E-10  1.78542884887152E-02
 cg2d: Sum(rhs),rhsMax =   5.62658183933529E-10  1.78538033785511E-02
 cg2d: Sum(rhs),rhsMax =   5.62708643569998E-10  1.78533144330829E-02
 cg2d: Sum(rhs),rhsMax =   5.62752677790712E-10  1.78528218352767E-02
 cg2d: Sum(rhs),rhsMax =   5.62803206816120E-10  1.78523257884615E-02
 cg2d: Sum(rhs),rhsMax =   5.62855831387488E-10  1.78518265065086E-02
 cg2d: Sum(rhs),rhsMax =   5.62912091939261E-10  1.78513242014089E-02
 cg2d: Sum(rhs),rhsMax =   5.62966687156496E-10  1.78508190885303E-02
 cg2d: Sum(rhs),rhsMax =   5.63032107048222E-10  1.78503113906015E-02
 cg2d: Sum(rhs),rhsMax =   5.63094113004148E-10  1.78498013311290E-02
 cg2d: Sum(rhs),rhsMax =   5.63150248655830E-10  1.78492891402823E-02
 cg2d: Sum(rhs),rhsMax =   5.63213337079205E-10  1.78487750446347E-02
 cg2d: Sum(rhs),rhsMax =   5.63266475128721E-10  1.78482592737941E-02
 cg2d: Sum(rhs),rhsMax =   5.63324456526182E-10  1.78477420551187E-02
 cg2d: Sum(rhs),rhsMax =   5.63385643692627E-10  1.78472236159267E-02
 cg2d: Sum(rhs),rhsMax =   5.63431495903544E-10  1.78467041814935E-02
 cg2d: Sum(rhs),rhsMax =   5.63486909910260E-10  1.78461839754001E-02
 cg2d: Sum(rhs),rhsMax =   5.63536328712644E-10  1.78456632175960E-02
 cg2d: Sum(rhs),rhsMax =   5.63602761682880E-10  1.78451421223567E-02
 cg2d: Sum(rhs),rhsMax =   5.63656038510274E-10  1.78446209019088E-02
 cg2d: Sum(rhs),rhsMax =   5.63713811740918E-10  1.78440997598206E-02
 cg2d: Sum(rhs),rhsMax =   5.63767296735129E-10  1.78435788993391E-02
 cg2d: Sum(rhs),rhsMax =   5.63835172995297E-10  1.78430585128300E-02
 cg2d: Sum(rhs),rhsMax =   5.63891516813797E-10  1.78425387885349E-02
 cg2d: Sum(rhs),rhsMax =   5.63945237730401E-10  1.78420199063006E-02
 cg2d: Sum(rhs),rhsMax =   5.63999263958337E-10  1.78415020390879E-02
 cg2d: Sum(rhs),rhsMax =   5.64055371854444E-10  1.78409853515562E-02
 cg2d: Sum(rhs),rhsMax =   5.64104721267888E-10  1.78404700006904E-02
 cg2d: Sum(rhs),rhsMax =   5.64161842242505E-10  1.78399561345286E-02
 cg2d: Sum(rhs),rhsMax =   5.64217478293827E-10  1.78394438919363E-02
 cg2d: Sum(rhs),rhsMax =   5.64263455404834E-10  1.78389334583166E-02
 cg2d: Sum(rhs),rhsMax =   5.64314095452545E-10  1.78384249209807E-02
 cg2d: Sum(rhs),rhsMax =   5.64375920997229E-10  1.78379184415512E-02
 cg2d: Sum(rhs),rhsMax =   5.64435900796134E-10  1.78374140760465E-02
 Computing Diagnostic #    26 "THETA   " (list#  1) Parms "SMR     MR      ", Count=     144
 Computing Diagnostic #    27 "SALT    " (list#  1) Parms "SMR     MR      ", Count=     144
 Computing Diagnostic #    30 "UVEL    " (list#  1) Parms "UUR     MR      ", Count=     144
             Vector  Mate for "UVEL    " :  Diagnostic #     31 "VVEL    " exists
 Computing Diagnostic #    32 "WVEL    " (list#  1) Parms "WM      LR      ", Count=     144
 Computing Diagnostic #    31 "VVEL    " (list#  1) Parms "VVR     MR      ", Count=     144
             Vector  Mate for "VVEL    " :  Diagnostic #     30 "UVEL    " exists
 Computing Diagnostic #   197 "BRGfwFlx" (list#  2) Parms "SM      MR      ", Count=     144
 Computing Diagnostic #   198 "BRGhtFlx" (list#  2) Parms "SM      MR      ", Count=     144
 Computing Diagnostic #   199 "BRGmltRt" (list#  2) Parms "SM      MR      ", Count=     144
 Computing Diagnostic #   201 "BRG_TauX" (list#  2) Parms "UU      MR      ", Count=    1728
 Computing Diagnostic #   202 "BRG_TauY" (list#  2) Parms "VV      MR      ", Count=    1728
 Computing Diagnostic #   203 "BRGhFacC" (list#  2) Parms "SM      MR      ", Count=    1728
 cg2d: Sum(rhs),rhsMax =   5.64497490418425E-10  1.78369119606930E-02
 cg2d: Sum(rhs),rhsMax =   5.64559413107624E-10  1.78364121333945E-02
 cg2d: Sum(rhs),rhsMax =   5.64601213004501E-10  1.78359147134406E-02
 cg2d: Sum(rhs),rhsMax =   5.64670407654511E-10  1.78354197245873E-02
 cg2d: Sum(rhs),rhsMax =   5.64718383166962E-10  1.78349272647485E-02
 cg2d: Sum(rhs),rhsMax =   5.64776544975665E-10  1.78344373396992E-02
 cg2d: Sum(rhs),rhsMax =   5.64836552530146E-10  1.78339500288593E-02
 cg2d: Sum(rhs),rhsMax =   5.64901417310359E-10  1.78334653199135E-02
 cg2d: Sum(rhs),rhsMax =   5.64949614867416E-10  1.78329832769454E-02
 cg2d: Sum(rhs),rhsMax =   5.64996466279055E-10  1.78325038678372E-02
 cg2d: Sum(rhs),rhsMax =   5.65052823975343E-10  1.78320271443492E-02
 cg2d: Sum(rhs),rhsMax =   5.65104574246078E-10  1.78315530603862E-02
 cg2d: Sum(rhs),rhsMax =   5.65153493448101E-10  1.78310816479138E-02
 cg2d: Sum(rhs),rhsMax =   5.65213972847367E-10  1.78306128503294E-02
 cg2d: Sum(rhs),rhsMax =   5.65279240083427E-10  1.78301466880377E-02
 cg2d: Sum(rhs),rhsMax =   5.65328742152538E-10  1.78296830910718E-02
 cg2d: Sum(rhs),rhsMax =   5.65383101447381E-10  1.78292220678517E-02
 cg2d: Sum(rhs),rhsMax =   5.65440805289086E-10  1.78287635382730E-02
 cg2d: Sum(rhs),rhsMax =   5.65504962302121E-10  1.78283075004885E-02
 cg2d: Sum(rhs),rhsMax =   5.65557822795881E-10  1.78278538681288E-02
 cg2d: Sum(rhs),rhsMax =   5.65610766556368E-10  1.78274026303209E-02
 cg2d: Sum(rhs),rhsMax =   5.65658464513064E-10  1.78269536915645E-02
 cg2d: Sum(rhs),rhsMax =   5.65706037569669E-10  1.78265070380967E-02
 cg2d: Sum(rhs),rhsMax =   5.65754290637877E-10  1.78260625667882E-02
 cg2d: Sum(rhs),rhsMax =   5.65812577346669E-10  1.78256202607356E-02
 cg2d: Sum(rhs),rhsMax =   5.65865104773522E-10  1.78251800579521E-02
 cg2d: Sum(rhs),rhsMax =   5.65922600448410E-10  1.78247418475560E-02
 cg2d: Sum(rhs),rhsMax =   5.65981109201807E-10  1.78243055369838E-02
 cg2d: Sum(rhs),rhsMax =   5.66031388427035E-10  1.78238711553928E-02
 cg2d: Sum(rhs),rhsMax =   5.66087052233932E-10  1.78234385933110E-02
 cg2d: Sum(rhs),rhsMax =   5.66157662418298E-10  1.78230078108589E-02
 cg2d: Sum(rhs),rhsMax =   5.66206817542714E-10  1.78225787015652E-02
 cg2d: Sum(rhs),rhsMax =   5.66260760503923E-10  1.78221512452410E-02
 cg2d: Sum(rhs),rhsMax =   5.66318977823776E-10  1.78217253460182E-02
 cg2d: Sum(rhs),rhsMax =   5.66369534604760E-10  1.78213009874054E-02
 cg2d: Sum(rhs),rhsMax =   5.66436439419782E-10  1.78208780730293E-02
 cg2d: Sum(rhs),rhsMax =   5.66497126985865E-10  1.78204565878087E-02
 cg2d: Sum(rhs),rhsMax =   5.66543631452809E-10  1.78200364366724E-02
 cg2d: Sum(rhs),rhsMax =   5.66608565621962E-10  1.78196176112798E-02
 cg2d: Sum(rhs),rhsMax =   5.66659524858792E-10  1.78192000229071E-02
 cg2d: Sum(rhs),rhsMax =   5.66707847315939E-10  1.78187836680878E-02
 cg2d: Sum(rhs),rhsMax =   5.66761859666087E-10  1.78183684658590E-02
 cg2d: Sum(rhs),rhsMax =   5.66816191205355E-10  1.78179544179977E-02
 cg2d: Sum(rhs),rhsMax =   5.66882193964169E-10  1.78175414501038E-02
 cg2d: Sum(rhs),rhsMax =   5.66938038182307E-10  1.78171295731922E-02
 cg2d: Sum(rhs),rhsMax =   5.66992008899092E-10  1.78167187165094E-02
 cg2d: Sum(rhs),rhsMax =   5.67045493893303E-10  1.78163089000435E-02
 cg2d: Sum(rhs),rhsMax =   5.67110441940244E-10  1.78159000600999E-02
 cg2d: Sum(rhs),rhsMax =   5.67156779873734E-10  1.78154922202848E-02
 cg2d: Sum(rhs),rhsMax =   5.67200952872327E-10  1.78150853260584E-02
 cg2d: Sum(rhs),rhsMax =   5.67256200345589E-10  1.78146794047983E-02
 cg2d: Sum(rhs),rhsMax =   5.67311475574428E-10  1.78142744088473E-02
 cg2d: Sum(rhs),rhsMax =   5.67360797232297E-10  1.78138703711629E-02
 cg2d: Sum(rhs),rhsMax =   5.67418625974092E-10  1.78134672463667E-02
 cg2d: Sum(rhs),rhsMax =   5.67479507829205E-10  1.78130650758180E-02
 cg2d: Sum(rhs),rhsMax =   5.67535823892129E-10  1.78126638206696E-02
 cg2d: Sum(rhs),rhsMax =   5.67587574162864E-10  1.78122635239733E-02
 cg2d: Sum(rhs),rhsMax =   5.67635716208770E-10  1.78118641509899E-02
 cg2d: Sum(rhs),rhsMax =   5.67694141695441E-10  1.78114657481890E-02
 cg2d: Sum(rhs),rhsMax =   5.67739466550421E-10  1.78110682847911E-02
 cg2d: Sum(rhs),rhsMax =   5.67800736983592E-10  1.78106718133608E-02
 cg2d: Sum(rhs),rhsMax =   5.67840011123089E-10  1.78102763019455E-02
 cg2d: Sum(rhs),rhsMax =   5.67890637293011E-10  1.78098818047864E-02
 cg2d: Sum(rhs),rhsMax =   5.67939861806366E-10  1.78094882914230E-02
 cg2d: Sum(rhs),rhsMax =   5.68001895517867E-10  1.78090958188959E-02
 cg2d: Sum(rhs),rhsMax =   5.68035951609147E-10  1.78087043581710E-02
 cg2d: Sum(rhs),rhsMax =   5.68080554819161E-10  1.78083139624774E-02
 cg2d: Sum(rhs),rhsMax =   5.68146335533370E-10  1.78079246040492E-02
 cg2d: Sum(rhs),rhsMax =   5.68190439143024E-10  1.78075363351922E-02
 cg2d: Sum(rhs),rhsMax =   5.68241786957913E-10  1.78071491271162E-02
 cg2d: Sum(rhs),rhsMax =   5.68287625291042E-10  1.78067630300587E-02
 cg2d: Sum(rhs),rhsMax =   5.68338112683087E-10  1.78063780136494E-02
 cg2d: Sum(rhs),rhsMax =   5.68392471977930E-10  1.78059941242775E-02
 cg2d: Sum(rhs),rhsMax =   5.68445970849929E-10  1.78056113271384E-02
 cg2d: Sum(rhs),rhsMax =   5.68501926090370E-10  1.78052296697401E-02
 cg2d: Sum(rhs),rhsMax =   5.68562100178305E-10  1.78048491109477E-02
 cg2d: Sum(rhs),rhsMax =   5.68637803510796E-10  1.78044696939199E-02
 cg2d: Sum(rhs),rhsMax =   5.68686320256973E-10  1.78040913753525E-02
 cg2d: Sum(rhs),rhsMax =   5.68740762818543E-10  1.78037141467443E-02
 cg2d: Sum(rhs),rhsMax =   5.68783395382688E-10  1.78033379881864E-02
 cg2d: Sum(rhs),rhsMax =   5.68832550507103E-10  1.78029628688476E-02
 cg2d: Sum(rhs),rhsMax =   5.68879027218472E-10  1.78025887216813E-02
 cg2d: Sum(rhs),rhsMax =   5.68941671552636E-10  1.78022155631360E-02
 cg2d: Sum(rhs),rhsMax =   5.68995822680662E-10  1.78018433174481E-02
 cg2d: Sum(rhs),rhsMax =   5.69059827038032E-10  1.78014719948095E-02
 cg2d: Sum(rhs),rhsMax =   5.69112798554094E-10  1.78011015159597E-02
 cg2d: Sum(rhs),rhsMax =   5.69175401254896E-10  1.78007318849189E-02
 cg2d: Sum(rhs),rhsMax =   5.69241764836192E-10  1.78003630242679E-02
 cg2d: Sum(rhs),rhsMax =   5.69293084895506E-10  1.77999949367899E-02
 cg2d: Sum(rhs),rhsMax =   5.69343031053826E-10  1.77996275419940E-02
 cg2d: Sum(rhs),rhsMax =   5.69391436777700E-10  1.77992608432414E-02
 cg2d: Sum(rhs),rhsMax =   5.69444533193852E-10  1.77988947715390E-02
 cg2d: Sum(rhs),rhsMax =   5.69496963476190E-10  1.77985293023995E-02
 cg2d: Sum(rhs),rhsMax =   5.69554375884351E-10  1.77981643642331E-02
 cg2d: Sum(rhs),rhsMax =   5.69609373557434E-10  1.77977999676497E-02
 cg2d: Sum(rhs),rhsMax =   5.69665578598055E-10  1.77974360307557E-02
 cg2d: Sum(rhs),rhsMax =   5.69712513276421E-10  1.77970725621192E-02
 cg2d: Sum(rhs),rhsMax =   5.69764457836186E-10  1.77967094294778E-02
 cg2d: Sum(rhs),rhsMax =   5.69822938834008E-10  1.77963466775722E-02
 cg2d: Sum(rhs),rhsMax =   5.69878463863027E-10  1.77959842593702E-02
 cg2d: Sum(rhs),rhsMax =   5.69931574156968E-10  1.77956221659824E-02
 cg2d: Sum(rhs),rhsMax =   5.69984989762240E-10  1.77952603127012E-02
 cg2d: Sum(rhs),rhsMax =   5.70033631408506E-10  1.77948987093869E-02
 cg2d: Sum(rhs),rhsMax =   5.70084923712244E-10  1.77945372845504E-02
 cg2d: Sum(rhs),rhsMax =   5.70133093513725E-10  1.77941760502853E-02
 cg2d: Sum(rhs),rhsMax =   5.70182998038682E-10  1.77938149377812E-02
 cg2d: Sum(rhs),rhsMax =   5.70246447284539E-10  1.77934539669128E-02
 cg2d: Sum(rhs),rhsMax =   5.70290509260829E-10  1.77930930729061E-02
 cg2d: Sum(rhs),rhsMax =   5.70324287796353E-10  1.77927322810602E-02
 cg2d: Sum(rhs),rhsMax =   5.70377287067991E-10  1.77923715319659E-02
 cg2d: Sum(rhs),rhsMax =   5.70430924717868E-10  1.77920108566283E-02
 cg2d: Sum(rhs),rhsMax =   5.70496858087743E-10  1.77916502035937E-02
 cg2d: Sum(rhs),rhsMax =   5.70548053246966E-10  1.77912896055673E-02
 cg2d: Sum(rhs),rhsMax =   5.70602953775534E-10  1.77909290210544E-02
 cg2d: Sum(rhs),rhsMax =   5.70652539111371E-10  1.77905684862158E-02
 cg2d: Sum(rhs),rhsMax =   5.70694089208068E-10  1.77902079656869E-02
 cg2d: Sum(rhs),rhsMax =   5.70749239536816E-10  1.77898475075632E-02
 cg2d: Sum(rhs),rhsMax =   5.70797381582722E-10  1.77894870804807E-02
 cg2d: Sum(rhs),rhsMax =   5.70855057668851E-10  1.77891267393649E-02
 cg2d: Sum(rhs),rhsMax =   5.70910457797780E-10  1.77887664605598E-02
 cg2d: Sum(rhs),rhsMax =   5.70964178714384E-10  1.77884063073048E-02
 cg2d: Sum(rhs),rhsMax =   5.71014638350853E-10  1.77880462645080E-02
 cg2d: Sum(rhs),rhsMax =   5.71061559151431E-10  1.77876864013220E-02
 cg2d: Sum(rhs),rhsMax =   5.71122274473090E-10  1.77873267098093E-02
 cg2d: Sum(rhs),rhsMax =   5.71169125884730E-10  1.77869672702495E-02
 cg2d: Sum(rhs),rhsMax =   5.71217309563998E-10  1.77866080804341E-02
 cg2d: Sum(rhs),rhsMax =   5.71284727857169E-10  1.77862492256678E-02
 cg2d: Sum(rhs),rhsMax =   5.71326957965468E-10  1.77858907135714E-02
 cg2d: Sum(rhs),rhsMax =   5.71372935076475E-10  1.77855326374627E-02
 cg2d: Sum(rhs),rhsMax =   5.71424491058181E-10  1.77851750118467E-02
 cg2d: Sum(rhs),rhsMax =   5.71474104149594E-10  1.77848179335470E-02
 cg2d: Sum(rhs),rhsMax =   5.71525021753061E-10  1.77844614265147E-02
 cg2d: Sum(rhs),rhsMax =   5.71569472307409E-10  1.77841055933121E-02
 cg2d: Sum(rhs),rhsMax =   5.71621611156203E-10  1.77837504620775E-02
 cg2d: Sum(rhs),rhsMax =   5.71680924821294E-10  1.77833961426407E-02
 cg2d: Sum(rhs),rhsMax =   5.71732730603181E-10  1.77830426637789E-02
 cg2d: Sum(rhs),rhsMax =   5.71784064540282E-10  1.77826901417880E-02
 cg2d: Sum(rhs),rhsMax =   5.71838340568398E-10  1.77823386144216E-02
 cg2d: Sum(rhs),rhsMax =   5.71884192779315E-10  1.77819881966787E-02
 cg2d: Sum(rhs),rhsMax =   5.71939301474700E-10  1.77816389267869E-02
 cg2d: Sum(rhs),rhsMax =   5.71970804053024E-10  1.77812909232180E-02
 cg2d: Sum(rhs),rhsMax =   5.72027744616399E-10  1.77809442259568E-02
 cg2d: Sum(rhs),rhsMax =   5.72073569071740E-10  1.77805989556140E-02
 cg2d: Sum(rhs),rhsMax =   5.72111705232636E-10  1.77802551489101E-02
(PID.TID 0000.0001)      cg2d_init_res =   1.32068928647904E-04
(PID.TID 0000.0001)      cg2d_iters(min,last) =      -1      39
(PID.TID 0000.0001)      cg2d_last_res =   6.87861616924900E-14
(PID.TID 0000.0001) // =======================================================
(PID.TID 0000.0001) // Begin MONITOR dynamic field statistics
(PID.TID 0000.0001) // =======================================================
(PID.TID 0000.0001) %MON time_tsnumber                =                 14688
(PID.TID 0000.0001) %MON time_secondsf                =   3.6720000000000E+05
(PID.TID 0000.0001) %MON dynstat_eta_max              =   5.3645594667007E-03
(PID.TID 0000.0001) %MON dynstat_eta_min              =  -2.6347267370164E-03
(PID.TID 0000.0001) %MON dynstat_eta_mean             =  -6.8123873916534E-14
(PID.TID 0000.0001) %MON dynstat_eta_sd               =   2.7205221906721E-03
(PID.TID 0000.0001) %MON dynstat_eta_del2             =   2.2824480512125E-05
(PID.TID 0000.0001) %MON dynstat_uvel_max             =   4.7009532319957E-02
(PID.TID 0000.0001) %MON dynstat_uvel_min             =  -3.7351561199978E-02
(PID.TID 0000.0001) %MON dynstat_uvel_mean            =   7.2265827009750E-09
(PID.TID 0000.0001) %MON dynstat_uvel_sd              =   6.2470813193879E-03
(PID.TID 0000.0001) %MON dynstat_uvel_del2            =   1.0286761045240E-04
(PID.TID 0000.0001) %MON dynstat_vvel_max             =   2.2629363800224E-02
(PID.TID 0000.0001) %MON dynstat_vvel_min             =  -3.2429317597996E-02
(PID.TID 0000.0001) %MON dynstat_vvel_mean            =  -8.0919745063357E-03
(PID.TID 0000.0001) %MON dynstat_vvel_sd              =   1.1446094433591E-02
(PID.TID 0000.0001) %MON dynstat_vvel_del2            =   9.2398050659435E-05
(PID.TID 0000.0001) %MON dynstat_wvel_max             =   1.3892716171599E-03
(PID.TID 0000.0001) %MON dynstat_wvel_min             =  -1.0705154120063E-03
(PID.TID 0000.0001) %MON dynstat_wvel_mean            =   1.6563607411187E-20
(PID.TID 0000.0001) %MON dynstat_wvel_sd              =   1.2481444972549E-04
(PID.TID 0000.0001) %MON dynstat_wvel_del2            =   6.2297370496482E-06
(PID.TID 0000.0001) %MON dynstat_theta_max            =   2.6931451612903E+00
(PID.TID 0000.0001) %MON dynstat_theta_min            =  -4.8541382710274E-01
(PID.TID 0000.0001) %MON dynstat_theta_mean           =   2.2279421504258E+00
(PID.TID 0000.0001) %MON dynstat_theta_sd             =   5.0585524353952E-01
(PID.TID 0000.0001) %MON dynstat_theta_del2           =   1.5488493856432E-03
(PID.TID 0000.0001) %MON dynstat_salt_max             =   3.4699999999999E+01
(PID.TID 0000.0001) %MON dynstat_salt_min             =   3.3016615737001E+01
(PID.TID 0000.0001) %MON dynstat_salt_mean            =   3.4364280978486E+01
(PID.TID 0000.0001) %MON dynstat_salt_sd              =   3.2232390343975E-01
(PID.TID 0000.0001) %MON dynstat_salt_del2            =   1.9981592986344E-04
(PID.TID 0000.0001) %MON advcfl_uvel_max              =   2.3504766159979E-03
(PID.TID 0000.0001) %MON advcfl_vvel_max              =   1.6214658798998E-03
(PID.TID 0000.0001) %MON advcfl_wvel_max              =   6.3707271620376E-04
(PID.TID 0000.0001) %MON advcfl_W_hf_max              =   1.5158667880230E-03
(PID.TID 0000.0001) %MON pe_b_mean                    =   6.1751742618182E-08
(PID.TID 0000.0001) %MON ke_max                       =   1.0406035474638E-03
(PID.TID 0000.0001) %MON ke_mean                      =   1.0780079066416E-04
(PID.TID 0000.0001) %MON ke_vol                       =   3.2921708585402E+10
(PID.TID 0000.0001) // =======================================================
(PID.TID 0000.0001) // End MONITOR dynamic field statistics
(PID.TID 0000.0001) // =======================================================
(PID.TID 0000.0001) // =======================================================
(PID.TID 0000.0001) // Begin OBCS MONITOR field statistics
(PID.TID 0000.0001) // =======================================================
(PID.TID 0000.0001) %MON obc_E_uVel_max               =   0.0000000000000E+00
(PID.TID 0000.0001) %MON obc_E_uVel_min               =   0.0000000000000E+00
(PID.TID 0000.0001) %MON obc_E_uVel_mean              =   0.0000000000000E+00
(PID.TID 0000.0001) %MON obc_E_uVel_sd                =   0.0000000000000E+00
(PID.TID 0000.0001) %MON obc_E_uVel_Int               =   0.0000000000000E+00
(PID.TID 0000.0001) %MON obc_N_vVel_max               =  -3.6115799844846E-05
(PID.TID 0000.0001) %MON obc_N_vVel_min               =  -3.0000000000000E-02
(PID.TID 0000.0001) %MON obc_N_vVel_mean              =  -1.3225455303334E-02
(PID.TID 0000.0001) %MON obc_N_vVel_sd                =   1.1350864292742E-02
(PID.TID 0000.0001) %MON obc_N_vVel_Int               =  -5.9514548865004E+04
(PID.TID 0000.0001) %MON obc_S_vVel_max               =  -3.6115799844846E-05
(PID.TID 0000.0001) %MON obc_S_vVel_min               =  -3.0000000000000E-02
(PID.TID 0000.0001) %MON obc_S_vVel_mean              =  -1.3225455303334E-02
(PID.TID 0000.0001) %MON obc_S_vVel_sd                =   1.1350864292742E-02
(PID.TID 0000.0001) %MON obc_S_vVel_Int               =  -5.9514548865004E+04
(PID.TID 0000.0001) // =======================================================
(PID.TID 0000.0001) // End OBCS MONITOR field statistics
(PID.TID 0000.0001) // =======================================================
 Computing Diagnostic #    26 "THETA   " (list#  1) Parms "SMR     MR      ", Count=     144
 Computing Diagnostic #    27 "SALT    " (list#  1) Parms "SMR     MR      ", Count=     144
 Computing Diagnostic #    30 "UVEL    " (list#  1) Parms "UUR     MR      ", Count=     144
             Vector  Mate for "UVEL    " :  Diagnostic #     31 "VVEL    " exists
 Computing Diagnostic #    32 "WVEL    " (list#  1) Parms "WM      LR      ", Count=     144
 Computing Diagnostic #    31 "VVEL    " (list#  1) Parms "VVR     MR      ", Count=     144
             Vector  Mate for "VVEL    " :  Diagnostic #     30 "UVEL    " exists
 Computing Diagnostic #   197 "BRGfwFlx" (list#  2) Parms "SM      MR      ", Count=     144
 Computing Diagnostic #   198 "BRGhtFlx" (list#  2) Parms "SM      MR      ", Count=     144
 Computing Diagnostic #   199 "BRGmltRt" (list#  2) Parms "SM      MR      ", Count=     144
 Computing Diagnostic #   201 "BRG_TauX" (list#  2) Parms "UU      MR      ", Count=    1728
 Computing Diagnostic #   202 "BRG_TauY" (list#  2) Parms "VV      MR      ", Count=    1728
 Computing Diagnostic #   203 "BRGhFacC" (list#  2) Parms "SM      MR      ", Count=    1728
 cg2d: Sum(rhs),rhsMax =   5.72169214785312E-10  1.77799129243951E-02
 cg2d: Sum(rhs),rhsMax =   5.72219924221962E-10  1.77795723213535E-02
 cg2d: Sum(rhs),rhsMax =   5.72270911214368E-10  1.77792334534504E-02
 cg2d: Sum(rhs),rhsMax =   5.72325437042664E-10  1.77788963538532E-02
 cg2d: Sum(rhs),rhsMax =   5.72377409358005E-10  1.77785611344989E-02
 cg2d: Sum(rhs),rhsMax =   5.72429922907070E-10  1.77782278233583E-02
 cg2d: Sum(rhs),rhsMax =   5.72474984084081E-10  1.77778965141555E-02
 cg2d: Sum(rhs),rhsMax =   5.72528746634049E-10  1.77775672254534E-02
 cg2d: Sum(rhs),rhsMax =   5.72574113122393E-10  1.77772400641717E-02
 cg2d: Sum(rhs),rhsMax =   5.72626918105001E-10  1.77769150549121E-02
 cg2d: Sum(rhs),rhsMax =   5.72679278998400E-10  1.77765922869279E-02
 cg2d: Sum(rhs),rhsMax =   5.72727990033606E-10  1.77762717566834E-02
 cg2d: Sum(rhs),rhsMax =   5.72779865204431E-10  1.77759535399158E-02
 cg2d: Sum(rhs),rhsMax =   5.72839331525188E-10  1.77756376259131E-02
 cg2d: Sum(rhs),rhsMax =   5.72881866944819E-10  1.77753240777484E-02
 cg2d: Sum(rhs),rhsMax =   5.72938516074650E-10  1.77750128744055E-02
 cg2d: Sum(rhs),rhsMax =   5.72987018943039E-10  1.77747040667257E-02
 cg2d: Sum(rhs),rhsMax =   5.73034453221766E-10  1.77743976151915E-02
 cg2d: Sum(rhs),rhsMax =   5.73097513889564E-10  1.77740935574776E-02
 cg2d: Sum(rhs),rhsMax =   5.73141339943462E-10  1.77737918394403E-02
 cg2d: Sum(rhs),rhsMax =   5.73189468111579E-10  1.77734924779261E-02
 cg2d: Sum(rhs),rhsMax =   5.73250572011297E-10  1.77731954105880E-02
 cg2d: Sum(rhs),rhsMax =   5.73301892070610E-10  1.77729006329276E-02
 cg2d: Sum(rhs),rhsMax =   5.73348993282430E-10  1.77726080568044E-02
 cg2d: Sum(rhs),rhsMax =   5.73391473190910E-10  1.77723176651540E-02
 cg2d: Sum(rhs),rhsMax =   5.73444750018304E-10  1.77720293589228E-02
 cg2d: Sum(rhs),rhsMax =   5.73493724731478E-10  1.77717431049820E-02
 cg2d: Sum(rhs),rhsMax =   5.73550693050429E-10  1.77714587776357E-02
 cg2d: Sum(rhs),rhsMax =   5.73600736353264E-10  1.77711763229222E-02
 cg2d: Sum(rhs),rhsMax =   5.73648267776505E-10  1.77708956028707E-02
 cg2d: Sum(rhs),rhsMax =   5.73702071959836E-10  1.77706165633172E-02
 cg2d: Sum(rhs),rhsMax =   5.73758124344792E-10  1.77703390504120E-02
 cg2d: Sum(rhs),rhsMax =   5.73807862336295E-10  1.77700629681507E-02
 cg2d: Sum(rhs),rhsMax =   5.73851993701524E-10  1.77697881315765E-02
 cg2d: Sum(rhs),rhsMax =   5.73894348709914E-10  1.77695144359602E-02
 cg2d: Sum(rhs),rhsMax =   5.73953301552521E-10  1.77692416926898E-02
 cg2d: Sum(rhs),rhsMax =   5.74003344855356E-10  1.77689697899666E-02
 cg2d: Sum(rhs),rhsMax =   5.74043493295484E-10  1.77686985439776E-02
 cg2d: Sum(rhs),rhsMax =   5.74100197936467E-10  1.77684278402520E-02
 cg2d: Sum(rhs),rhsMax =   5.74145356257993E-10  1.77681574687770E-02
 cg2d: Sum(rhs),rhsMax =   5.74197009384214E-10  1.77678872902288E-02
 cg2d: Sum(rhs),rhsMax =   5.74245109796756E-10  1.77676170815409E-02
 cg2d: Sum(rhs),rhsMax =   5.74279318543702E-10  1.77673467029504E-02
 cg2d: Sum(rhs),rhsMax =   5.74333455793941E-10  1.77670759259447E-02
 cg2d: Sum(rhs),rhsMax =   5.74367692296462E-10  1.77668046074207E-02
 cg2d: Sum(rhs),rhsMax =   5.74426978205977E-10  1.77665325184329E-02
 cg2d: Sum(rhs),rhsMax =   5.74488664972783E-10  1.77662595123365E-02
 cg2d: Sum(rhs),rhsMax =   5.74529979147087E-10  1.77659853652508E-02
 cg2d: Sum(rhs),rhsMax =   5.74558400856517E-10  1.77657099320580E-02
 cg2d: Sum(rhs),rhsMax =   5.74597674996014E-10  1.77654329940851E-02
 cg2d: Sum(rhs),rhsMax =   5.74652006535281E-10  1.77651544104858E-02
 cg2d: Sum(rhs),rhsMax =   5.74702729849719E-10  1.77648739678775E-02
 cg2d: Sum(rhs),rhsMax =   5.74746764070433E-10  1.77645915374318E-02
 cg2d: Sum(rhs),rhsMax =   5.74797237584690E-10  1.77643069147594E-02
 cg2d: Sum(rhs),rhsMax =   5.74840716693892E-10  1.77640199798292E-02
 cg2d: Sum(rhs),rhsMax =   5.74891440008329E-10  1.77637305437806E-02
 cg2d: Sum(rhs),rhsMax =   5.74955485999062E-10  1.77634385029642E-02
 cg2d: Sum(rhs),rhsMax =   5.75007971792552E-10  1.77631436832396E-02
 cg2d: Sum(rhs),rhsMax =   5.75046468775930E-10  1.77628459998346E-02
 cg2d: Sum(rhs),rhsMax =   5.75081010589784E-10  1.77625452965996E-02
 cg2d: Sum(rhs),rhsMax =   5.75145014947154E-10  1.77622415125844E-02
 cg2d: Sum(rhs),rhsMax =   5.75200068131387E-10  1.77619345166375E-02
 cg2d: Sum(rhs),rhsMax =   5.75251277168398E-10  1.77616242705420E-02
 cg2d: Sum(rhs),rhsMax =   5.75296907334710E-10  1.77613106697874E-02
 cg2d: Sum(rhs),rhsMax =   5.75357164689372E-10  1.77609937008168E-02
 cg2d: Sum(rhs),rhsMax =   5.75397104962683E-10  1.77606732896054E-02
 cg2d: Sum(rhs),rhsMax =   5.75439695893465E-10  1.77603494526017E-02
 cg2d: Sum(rhs),rhsMax =   5.75494790711062E-10  1.77600221437375E-02
 cg2d: Sum(rhs),rhsMax =   5.75540601288616E-10  1.77596914099809E-02
 cg2d: Sum(rhs),rhsMax =   5.75595057727973E-10  1.77593572379852E-02
 cg2d: Sum(rhs),rhsMax =   5.75646710854194E-10  1.77590197051907E-02
 cg2d: Sum(rhs),rhsMax =   5.75698072546871E-10  1.77586788295433E-02
 cg2d: Sum(rhs),rhsMax =   5.75753278386770E-10  1.77583347231303E-02
 cg2d: Sum(rhs),rhsMax =   5.75805139679808E-10  1.77579874368741E-02
 cg2d: Sum(rhs),rhsMax =   5.75860845120069E-10  1.77576371105101E-02
 cg2d: Sum(rhs),rhsMax =   5.75917355472022E-10  1.77572838307117E-02
 cg2d: Sum(rhs),rhsMax =   5.75973185812373E-10  1.77569277724772E-02
 cg2d: Sum(rhs),rhsMax =   5.76031861099224E-10  1.77565690490993E-02
 cg2d: Sum(rhs),rhsMax =   5.76069136837276E-10  1.77562078686416E-02
 cg2d: Sum(rhs),rhsMax =   5.76119013606657E-10  1.77558443763294E-02
 cg2d: Sum(rhs),rhsMax =   5.76173095345744E-10  1.77554788073059E-02
 cg2d: Sum(rhs),rhsMax =   5.76226122372958E-10  1.77551113341319E-02
 cg2d: Sum(rhs),rhsMax =   5.76289793663420E-10  1.77547422227512E-02
 cg2d: Sum(rhs),rhsMax =   5.76333425428288E-10  1.77543716715629E-02
 cg2d: Sum(rhs),rhsMax =   5.76392086837352E-10  1.77539999686998E-02
 cg2d: Sum(rhs),rhsMax =   5.76439632138381E-10  1.77536273325246E-02
 cg2d: Sum(rhs),rhsMax =   5.76484415759637E-10  1.77532540726037E-02
 cg2d: Sum(rhs),rhsMax =   5.76535527652133E-10  1.77528804286443E-02
 cg2d: Sum(rhs),rhsMax =   5.76576772437498E-10  1.77525067276772E-02
 cg2d: Sum(rhs),rhsMax =   5.76627051662726E-10  1.77521332218536E-02
 cg2d: Sum(rhs),rhsMax =   5.76687864128900E-10  1.77517602514680E-02
 cg2d: Sum(rhs),rhsMax =   5.76748676595074E-10  1.77513880805092E-02
 cg2d: Sum(rhs),rhsMax =   5.76785119665857E-10  1.77510170584417E-02
 cg2d: Sum(rhs),rhsMax =   5.76843531274740E-10  1.77506474511056E-02
 cg2d: Sum(rhs),rhsMax =   5.76892936199336E-10  1.77502796043826E-02
 cg2d: Sum(rhs),rhsMax =   5.76937733698379E-10  1.77499137884398E-02
 cg2d: Sum(rhs),rhsMax =   5.76998102075343E-10  1.77495503499447E-02
 cg2d: Sum(rhs),rhsMax =   5.77044495519985E-10  1.77491895569633E-02
 cg2d: Sum(rhs),rhsMax =   5.77105765953156E-10  1.77488317459789E-02
 cg2d: Sum(rhs),rhsMax =   5.77169409488043E-10  1.77484771682816E-02
 cg2d: Sum(rhs),rhsMax =   5.77226683118326E-10  1.77481261499899E-02
 cg2d: Sum(rhs),rhsMax =   5.77268108314932E-10  1.77477789299107E-02
 cg2d: Sum(rhs),rhsMax =   5.77328310158443E-10  1.77474358076086E-02
 cg2d: Sum(rhs),rhsMax =   5.77382489042044E-10  1.77470970011348E-02
 cg2d: Sum(rhs),rhsMax =   5.77433920123660E-10  1.77467627937282E-02
 cg2d: Sum(rhs),rhsMax =   5.77477163310469E-10  1.77464333729168E-02
 cg2d: Sum(rhs),rhsMax =   5.77532549561610E-10  1.77461089912396E-02
 cg2d: Sum(rhs),rhsMax =   5.77583675331894E-10  1.77457898037012E-02
 cg2d: Sum(rhs),rhsMax =   5.77646958044298E-10  1.77454760289335E-02
 cg2d: Sum(rhs),rhsMax =   5.77705952520269E-10  1.77451677877300E-02
 cg2d: Sum(rhs),rhsMax =   5.77764808218362E-10  1.77448652585767E-02
 cg2d: Sum(rhs),rhsMax =   5.77822928393701E-10  1.77445685248712E-02
 cg2d: Sum(rhs),rhsMax =   5.77875192142585E-10  1.77442777086394E-02
 cg2d: Sum(rhs),rhsMax =   5.77917547150975E-10  1.77439928863729E-02
 cg2d: Sum(rhs),rhsMax =   5.77975514670648E-10  1.77437141162068E-02
 cg2d: Sum(rhs),rhsMax =   5.78019951347208E-10  1.77434413939068E-02
 cg2d: Sum(rhs),rhsMax =   5.78072728574242E-10  1.77431747685140E-02
 cg2d: Sum(rhs),rhsMax =   5.78118913852066E-10  1.77429141806947E-02
 cg2d: Sum(rhs),rhsMax =   5.78167388964879E-10  1.77426596240522E-02
 cg2d: Sum(rhs),rhsMax =   5.78220693547848E-10  1.77424109842229E-02
 cg2d: Sum(rhs),rhsMax =   5.78263645301114E-10  1.77421682066584E-02
 cg2d: Sum(rhs),rhsMax =   5.78316811106205E-10  1.77419311256561E-02
 cg2d: Sum(rhs),rhsMax =   5.78362149838973E-10  1.77416996283457E-02
 cg2d: Sum(rhs),rhsMax =   5.78396122663527E-10  1.77414735031089E-02
 cg2d: Sum(rhs),rhsMax =   5.78454242838866E-10  1.77412525837293E-02
 cg2d: Sum(rhs),rhsMax =   5.78500636283508E-10  1.77410366028465E-02
 cg2d: Sum(rhs),rhsMax =   5.78553205343724E-10  1.77408253493819E-02
 cg2d: Sum(rhs),rhsMax =   5.78599598788365E-10  1.77406185053275E-02
 cg2d: Sum(rhs),rhsMax =   5.78649766991290E-10  1.77404158103575E-02
 cg2d: Sum(rhs),rhsMax =   5.78686237817649E-10  1.77402170467844E-02
 cg2d: Sum(rhs),rhsMax =   5.78740888546037E-10  1.77400217476415E-02
 cg2d: Sum(rhs),rhsMax =   5.78789863259210E-10  1.77398297692702E-02
 cg2d: Sum(rhs),rhsMax =   5.78833023179293E-10  1.77396406643442E-02
 cg2d: Sum(rhs),rhsMax =   5.78874601031565E-10  1.77394541404838E-02
 cg2d: Sum(rhs),rhsMax =   5.78917927485101E-10  1.77392697213083E-02
 cg2d: Sum(rhs),rhsMax =   5.78947834117827E-10  1.77390870968464E-02
 cg2d: Sum(rhs),rhsMax =   5.78984332699761E-10  1.77389057600454E-02
 cg2d: Sum(rhs),rhsMax =   5.79043188397854E-10  1.77387253721832E-02
 cg2d: Sum(rhs),rhsMax =   5.79084363794280E-10  1.77385453967528E-02
 cg2d: Sum(rhs),rhsMax =   5.79120945642941E-10  1.77383654699919E-02
 cg2d: Sum(rhs),rhsMax =   5.79152059643206E-10  1.77381850374968E-02
 cg2d: Sum(rhs),rhsMax =   5.79208944695431E-10  1.77380037201892E-02
 cg2d: Sum(rhs),rhsMax =   5.79249342935739E-10  1.77378209506165E-02
 cg2d: Sum(rhs),rhsMax =   5.79294001656905E-10  1.77376363433282E-02
 Computing Diagnostic #    26 "THETA   " (list#  1) Parms "SMR     MR      ", Count=     144
 Computing Diagnostic #    27 "SALT    " (list#  1) Parms "SMR     MR      ", Count=     144
 Computing Diagnostic #    30 "UVEL    " (list#  1) Parms "UUR     MR      ", Count=     144
             Vector  Mate for "UVEL    " :  Diagnostic #     31 "VVEL    " exists
 Computing Diagnostic #    32 "WVEL    " (list#  1) Parms "WM      LR      ", Count=     144
 Computing Diagnostic #    31 "VVEL    " (list#  1) Parms "VVR     MR      ", Count=     144
             Vector  Mate for "VVEL    " :  Diagnostic #     30 "UVEL    " exists
 Computing Diagnostic #   197 "BRGfwFlx" (list#  2) Parms "SM      MR      ", Count=     144
 Computing Diagnostic #   198 "BRGhtFlx" (list#  2) Parms "SM      MR      ", Count=     144
 Computing Diagnostic #   199 "BRGmltRt" (list#  2) Parms "SM      MR      ", Count=     144
 Computing Diagnostic #   201 "BRG_TauX" (list#  2) Parms "UU      MR      ", Count=    1728
 Computing Diagnostic #   202 "BRG_TauY" (list#  2) Parms "VV      MR      ", Count=    1728
 Computing Diagnostic #   203 "BRGhFacC" (list#  2) Parms "SM      MR      ", Count=    1728
 cg2d: Sum(rhs),rhsMax =   5.79335565631389E-10  1.77374493250966E-02
 cg2d: Sum(rhs),rhsMax =   5.79387718357971E-10  1.77372595126377E-02
 cg2d: Sum(rhs),rhsMax =   5.79437567371777E-10  1.77370663380378E-02
 cg2d: Sum(rhs),rhsMax =   5.79493605878945E-10  1.77368694253997E-02
 cg2d: Sum(rhs),rhsMax =   5.79547951296000E-10  1.77366682217314E-02
 cg2d: Sum(rhs),rhsMax =   5.79603726125200E-10  1.77364623685822E-02
 cg2d: Sum(rhs),rhsMax =   5.79651660004288E-10  1.77362513359739E-02
 cg2d: Sum(rhs),rhsMax =   5.79689796165184E-10  1.77360347936703E-02
 cg2d: Sum(rhs),rhsMax =   5.79740935813255E-10  1.77358122412189E-02
 cg2d: Sum(rhs),rhsMax =   5.79796918809272E-10  1.77355833826389E-02
 cg2d: Sum(rhs),rhsMax =   5.79838371761454E-10  1.77353477593319E-02
 cg2d: Sum(rhs),rhsMax =   5.79898393193723E-10  1.77351051164462E-02
 cg2d: Sum(rhs),rhsMax =   5.79948949974707E-10  1.77348550455610E-02
 cg2d: Sum(rhs),rhsMax =   5.80005043993026E-10  1.77345973351277E-02
 cg2d: Sum(rhs),rhsMax =   5.80044193232432E-10  1.77343316448008E-02
 cg2d: Sum(rhs),rhsMax =   5.80091349955403E-10  1.77340577956310E-02
 cg2d: Sum(rhs),rhsMax =   5.80137590744378E-10  1.77337755412155E-02
 cg2d: Sum(rhs),rhsMax =   5.80184442156018E-10  1.77334802237251E-02
 cg2d: Sum(rhs),rhsMax =   5.80229447821878E-10  1.77331392117351E-02
 cg2d: Sum(rhs),rhsMax =   5.80281933615368E-10  1.77327899203858E-02
 cg2d: Sum(rhs),rhsMax =   5.80342982003934E-10  1.77324327752075E-02
 cg2d: Sum(rhs),rhsMax =   5.80384809656387E-10  1.77320679853525E-02
 cg2d: Sum(rhs),rhsMax =   5.80440501218860E-10  1.77316960278004E-02
 cg2d: Sum(rhs),rhsMax =   5.80505032932166E-10  1.77313172783360E-02
 cg2d: Sum(rhs),rhsMax =   5.80563888630259E-10  1.77309322078742E-02
 cg2d: Sum(rhs),rhsMax =   5.80625367230247E-10  1.77305412307591E-02
 cg2d: Sum(rhs),rhsMax =   5.80671177807801E-10  1.77301448536634E-02
 cg2d: Sum(rhs),rhsMax =   5.80736403410498E-10  1.77297435171813E-02
 cg2d: Sum(rhs),rhsMax =   5.80781436831934E-10  1.77293377480478E-02
 cg2d: Sum(rhs),rhsMax =   5.80839640274000E-10  1.77289280087440E-02
 cg2d: Sum(rhs),rhsMax =   5.80884201850651E-10  1.77285148419156E-02
 cg2d: Sum(rhs),rhsMax =   5.80941697525539E-10  1.77280987215236E-02
 cg2d: Sum(rhs),rhsMax =   5.81001968757988E-10  1.77276801933532E-02
 cg2d: Sum(rhs),rhsMax =   5.81045558889492E-10  1.77272597304266E-02
 cg2d: Sum(rhs),rhsMax =   5.81103512531378E-10  1.77268378775159E-02
 cg2d: Sum(rhs),rhsMax =   5.81149156575478E-10  1.77264150942954E-02
 cg2d: Sum(rhs),rhsMax =   5.81195105930910E-10  1.77259919150841E-02
 cg2d: Sum(rhs),rhsMax =   5.81242970421059E-10  1.77255687842606E-02
 cg2d: Sum(rhs),rhsMax =   5.81306294766826E-10  1.77251462093208E-02
 cg2d: Sum(rhs),rhsMax =   5.81356685014356E-10  1.77247246099201E-02
 cg2d: Sum(rhs),rhsMax =   5.81413292510824E-10  1.77243044619364E-02
 cg2d: Sum(rhs),rhsMax =   5.81466083615645E-10  1.77238861448061E-02
 cg2d: Sum(rhs),rhsMax =   5.81509965180693E-10  1.77234701053808E-02
 cg2d: Sum(rhs),rhsMax =   5.81567502488944E-10  1.77230566827419E-02
 cg2d: Sum(rhs),rhsMax =   5.81619238881892E-10  1.77226462677894E-02
 cg2d: Sum(rhs),rhsMax =   5.81680190125944E-10  1.77222391545189E-02
 cg2d: Sum(rhs),rhsMax =   5.81740794425301E-10  1.77218356858644E-02
 cg2d: Sum(rhs),rhsMax =   5.81784426190168E-10  1.77214361003376E-02
 cg2d: Sum(rhs),rhsMax =   5.81834788682123E-10  1.77210406854334E-02
 cg2d: Sum(rhs),rhsMax =   5.81887496520217E-10  1.77206496170198E-02
 cg2d: Sum(rhs),rhsMax =   5.81943229716053E-10  1.77202631221986E-02
 cg2d: Sum(rhs),rhsMax =   5.81994938353425E-10  1.77198813169389E-02
 cg2d: Sum(rhs),rhsMax =   5.82045203700865E-10  1.77195043626334E-02
 cg2d: Sum(rhs),rhsMax =   5.82099049517559E-10  1.77191323110559E-02
 cg2d: Sum(rhs),rhsMax =   5.82153519834705E-10  1.77187652581391E-02
 cg2d: Sum(rhs),rhsMax =   5.82196554854697E-10  1.77184031893421E-02
 cg2d: Sum(rhs),rhsMax =   5.82261724946243E-10  1.77180461355021E-02
 cg2d: Sum(rhs),rhsMax =   5.82307743690613E-10  1.77176940171641E-02
 cg2d: Sum(rhs),rhsMax =   5.82351347699905E-10  1.77173467985159E-02
 cg2d: Sum(rhs),rhsMax =   5.82396242343464E-10  1.77170043355543E-02
 cg2d: Sum(rhs),rhsMax =   5.82436585072621E-10  1.77166665312040E-02
 cg2d: Sum(rhs),rhsMax =   5.82488224321054E-10  1.77163331798982E-02
 cg2d: Sum(rhs),rhsMax =   5.82532522219736E-10  1.77160041235182E-02
 cg2d: Sum(rhs),rhsMax =   5.82580192420856E-10  1.77156790972026E-02
 cg2d: Sum(rhs),rhsMax =   5.82635495405270E-10  1.77153578890966E-02
 cg2d: Sum(rhs),rhsMax =   5.82690215522597E-10  1.77150401828912E-02
 cg2d: Sum(rhs),rhsMax =   5.82740536381188E-10  1.77147257140384E-02
 cg2d: Sum(rhs),rhsMax =   5.82778852953325E-10  1.77144141204910E-02
 cg2d: Sum(rhs),rhsMax =   5.82844605911959E-10  1.77141050919889E-02
 cg2d: Sum(rhs),rhsMax =   5.82893885936464E-10  1.77137982261926E-02
 cg2d: Sum(rhs),rhsMax =   5.82947273786161E-10  1.77134931796782E-02
 cg2d: Sum(rhs),rhsMax =   5.83001202869582E-10  1.77131895122909E-02
 cg2d: Sum(rhs),rhsMax =   5.83048914704065E-10  1.77128868532544E-02
 cg2d: Sum(rhs),rhsMax =   5.83101580908796E-10  1.77125847409460E-02
 cg2d: Sum(rhs),rhsMax =   5.83150777666575E-10  1.77122827798726E-02
 cg2d: Sum(rhs),rhsMax =   5.83200446269139E-10  1.77119804919602E-02
 cg2d: Sum(rhs),rhsMax =   5.83263423670211E-10  1.77116774717786E-02
 cg2d: Sum(rhs),rhsMax =   5.83308915058645E-10  1.77113732353162E-02
 cg2d: Sum(rhs),rhsMax =   5.83361123296378E-10  1.77110673715872E-02
 cg2d: Sum(rhs),rhsMax =   5.83406406517994E-10  1.77107593995046E-02
 cg2d: Sum(rhs),rhsMax =   5.83444556556678E-10  1.77104489145399E-02
 cg2d: Sum(rhs),rhsMax =   5.83499748518790E-10  1.77101354453780E-02
 cg2d: Sum(rhs),rhsMax =   5.83539799814403E-10  1.77098186046550E-02
 cg2d: Sum(rhs),rhsMax =   5.83587969615884E-10  1.77094979397914E-02
 cg2d: Sum(rhs),rhsMax =   5.83630269113122E-10  1.77091730868465E-02
 cg2d: Sum(rhs),rhsMax =   5.83691026068145E-10  1.77088436235907E-02
 cg2d: Sum(rhs),rhsMax =   5.83729703462765E-10  1.77085092163436E-02
 cg2d: Sum(rhs),rhsMax =   5.83789058761219E-10  1.77081694799716E-02
 cg2d: Sum(rhs),rhsMax =   5.83842196810735E-10  1.77078241219198E-02
 cg2d: Sum(rhs),rhsMax =   5.83902648454426E-10  1.77074728001939E-02
 cg2d: Sum(rhs),rhsMax =   5.83968637335452E-10  1.77071152687330E-02
 cg2d: Sum(rhs),rhsMax =   5.84023107652598E-10  1.77067512351199E-02
 cg2d: Sum(rhs),rhsMax =   5.84068252096337E-10  1.77063805100644E-02
 cg2d: Sum(rhs),rhsMax =   5.84122888946936E-10  1.77060028544763E-02
 cg2d: Sum(rhs),rhsMax =   5.84182910379205E-10  1.77056181380214E-02
 cg2d: Sum(rhs),rhsMax =   5.84249232327139E-10  1.77052261851350E-02
 cg2d: Sum(rhs),rhsMax =   5.84306839024329E-10  1.77048269242439E-02
 cg2d: Sum(rhs),rhsMax =   5.84358603172852E-10  1.77044202441314E-02
 cg2d: Sum(rhs),rhsMax =   5.84396656067021E-10  1.77040061434598E-02
 cg2d: Sum(rhs),rhsMax =   5.84453749286062E-10  1.77035845776812E-02
 cg2d: Sum(rhs),rhsMax =   5.84500864375670E-10  1.77031556064825E-02
 cg2d: Sum(rhs),rhsMax =   5.84570836181797E-10  1.77027192520112E-02
 cg2d: Sum(rhs),rhsMax =   5.84620601928876E-10  1.77022756493018E-02
 cg2d: Sum(rhs),rhsMax =   5.84669604397625E-10  1.77018248892874E-02
 cg2d: Sum(rhs),rhsMax =   5.84716219886872E-10  1.77013671728434E-02
 cg2d: Sum(rhs),rhsMax =   5.84763321098691E-10  1.77009026560630E-02
 cg2d: Sum(rhs),rhsMax =   5.84809409232001E-10  1.77004316016869E-02
 cg2d: Sum(rhs),rhsMax =   5.84871345798987E-10  1.76999542347365E-02
 cg2d: Sum(rhs),rhsMax =   5.84936224456989E-10  1.76994708789624E-02
 cg2d: Sum(rhs),rhsMax =   5.84993692376301E-10  1.76989818189499E-02
 cg2d: Sum(rhs),rhsMax =   5.85056086910285E-10  1.76984874371557E-02
 cg2d: Sum(rhs),rhsMax =   5.85113776874202E-10  1.76979880739188E-02
 cg2d: Sum(rhs),rhsMax =   5.85175380374281E-10  1.76974841649465E-02
 cg2d: Sum(rhs),rhsMax =   5.85228740468402E-10  1.76969760982625E-02
 cg2d: Sum(rhs),rhsMax =   5.85302917244235E-10  1.76964643579148E-02
 cg2d: Sum(rhs),rhsMax =   5.85362730509686E-10  1.76959493729609E-02
 cg2d: Sum(rhs),rhsMax =   5.85416465304078E-10  1.76954316679151E-02
 cg2d: Sum(rhs),rhsMax =   5.85480094961177E-10  1.76949117075564E-02
 cg2d: Sum(rhs),rhsMax =   5.85532802799271E-10  1.76943900477699E-02
 cg2d: Sum(rhs),rhsMax =   5.85588771917500E-10  1.76938672091471E-02
 cg2d: Sum(rhs),rhsMax =   5.85643186723495E-10  1.76933438217082E-02
 cg2d: Sum(rhs),rhsMax =   5.85699960753416E-10  1.76928203964469E-02
 cg2d: Sum(rhs),rhsMax =   5.85756707027763E-10  1.76922975967222E-02
 cg2d: Sum(rhs),rhsMax =   5.85807041764141E-10  1.76917759842463E-02
 cg2d: Sum(rhs),rhsMax =   5.85857001800250E-10  1.76912561832016E-02
 cg2d: Sum(rhs),rhsMax =   5.85918952245024E-10  1.76907387318025E-02
 cg2d: Sum(rhs),rhsMax =   5.85974518907406E-10  1.76902242494070E-02
 cg2d: Sum(rhs),rhsMax =   5.86022577686585E-10  1.76897132770023E-02
 cg2d: Sum(rhs),rhsMax =   5.86090009857543E-10  1.76892064138724E-02
 cg2d: Sum(rhs),rhsMax =   5.86142842595727E-10  1.76887041718242E-02
 cg2d: Sum(rhs),rhsMax =   5.86213466657881E-10  1.76882071167372E-02
 cg2d: Sum(rhs),rhsMax =   5.86261178492364E-10  1.76877157215645E-02
 cg2d: Sum(rhs),rhsMax =   5.86308529504365E-10  1.76872305101874E-02
 cg2d: Sum(rhs),rhsMax =   5.86377890687828E-10  1.76867519020574E-02
 cg2d: Sum(rhs),rhsMax =   5.86423173909445E-10  1.76862803727640E-02
 cg2d: Sum(rhs),rhsMax =   5.86466694652010E-10  1.76858162968379E-02
 cg2d: Sum(rhs),rhsMax =   5.86524356860352E-10  1.76853600905215E-02
 cg2d: Sum(rhs),rhsMax =   5.86570736427205E-10  1.76849120698383E-02
 cg2d: Sum(rhs),rhsMax =   5.86615894748732E-10  1.76844725894173E-02
 cg2d: Sum(rhs),rhsMax =   5.86669088309399E-10  1.76840419018628E-02
 cg2d: Sum(rhs),rhsMax =   5.86724280271511E-10  1.76836202937353E-02
 cg2d: Sum(rhs),rhsMax =   5.86780402045406E-10  1.76832079490539E-02
 cg2d: Sum(rhs),rhsMax =   5.86822368475737E-10  1.76828050879463E-02
 cg2d: Sum(rhs),rhsMax =   5.86888759812609E-10  1.76824118194866E-02
 Computing Diagnostic #    26 "THETA   " (list#  1) Parms "SMR     MR      ", Count=     144
 Computing Diagnostic #    27 "SALT    " (list#  1) Parms "SMR     MR      ", Count=     144
 Computing Diagnostic #    30 "UVEL    " (list#  1) Parms "UUR     MR      ", Count=     144
             Vector  Mate for "UVEL    " :  Diagnostic #     31 "VVEL    " exists
 Computing Diagnostic #    32 "WVEL    " (list#  1) Parms "WM      LR      ", Count=     144
 Computing Diagnostic #    31 "VVEL    " (list#  1) Parms "VVR     MR      ", Count=     144
             Vector  Mate for "VVEL    " :  Diagnostic #     30 "UVEL    " exists
 Computing Diagnostic #   197 "BRGfwFlx" (list#  2) Parms "SM      MR      ", Count=     144
 Computing Diagnostic #   198 "BRGhtFlx" (list#  2) Parms "SM      MR      ", Count=     144
 Computing Diagnostic #   199 "BRGmltRt" (list#  2) Parms "SM      MR      ", Count=     144
 Computing Diagnostic #   201 "BRG_TauX" (list#  2) Parms "UU      MR      ", Count=    1728
 Computing Diagnostic #   202 "BRG_TauY" (list#  2) Parms "VV      MR      ", Count=    1728
 Computing Diagnostic #   203 "BRGhFacC" (list#  2) Parms "SM      MR      ", Count=    1728
 cg2d: Sum(rhs),rhsMax =   5.86947893066458E-10  1.76820283453812E-02
 cg2d: Sum(rhs),rhsMax =   5.86992857098956E-10  1.76816547752173E-02
 cg2d: Sum(rhs),rhsMax =   5.87050241751541E-10  1.76812911117178E-02
 cg2d: Sum(rhs),rhsMax =   5.87085366432483E-10  1.76809373622242E-02
 cg2d: Sum(rhs),rhsMax =   5.87139101226875E-10  1.76805935047563E-02
 cg2d: Sum(rhs),rhsMax =   5.87190351897249E-10  1.76802594626938E-02
 cg2d: Sum(rhs),rhsMax =   5.87249401884371E-10  1.76799351246839E-02
 cg2d: Sum(rhs),rhsMax =   5.87304552213119E-10  1.76796203547901E-02
 cg2d: Sum(rhs),rhsMax =   5.87358842119023E-10  1.76793149842687E-02
 cg2d: Sum(rhs),rhsMax =   5.87416421060638E-10  1.76790188172745E-02
 cg2d: Sum(rhs),rhsMax =   5.87453308220631E-10  1.76787316245689E-02
 cg2d: Sum(rhs),rhsMax =   5.87499868198726E-10  1.76784531516274E-02
 cg2d: Sum(rhs),rhsMax =   5.87558710019032E-10  1.76781831220486E-02
 cg2d: Sum(rhs),rhsMax =   5.87619439218479E-10  1.76779212331060E-02
 cg2d: Sum(rhs),rhsMax =   5.87663459561405E-10  1.76776671611820E-02
 cg2d: Sum(rhs),rhsMax =   5.87714960031960E-10  1.76774205661084E-02
 cg2d: Sum(rhs),rhsMax =   5.87767140514117E-10  1.76771810873751E-02
 cg2d: Sum(rhs),rhsMax =   5.87813853147878E-10  1.76769483543130E-02
 cg2d: Sum(rhs),rhsMax =   5.87857582057261E-10  1.76767219796660E-02
 cg2d: Sum(rhs),rhsMax =   5.87907555971157E-10  1.76765015670723E-02
 cg2d: Sum(rhs),rhsMax =   5.87952547759230E-10  1.76762867126300E-02
 cg2d: Sum(rhs),rhsMax =   5.87999829382291E-10  1.76760770085032E-02
 cg2d: Sum(rhs),rhsMax =   5.88036591642194E-10  1.76758720435144E-02
 cg2d: Sum(rhs),rhsMax =   5.88094420383989E-10  1.76756713999957E-02
 cg2d: Sum(rhs),rhsMax =   5.88141299551204E-10  1.76754746644637E-02
 cg2d: Sum(rhs),rhsMax =   5.88189622008350E-10  1.76752814277213E-02
 cg2d: Sum(rhs),rhsMax =   5.88238749377190E-10  1.76750912851681E-02
 cg2d: Sum(rhs),rhsMax =   5.88281076630004E-10  1.76749038399362E-02
 cg2d: Sum(rhs),rhsMax =   5.88331355855232E-10  1.76747187013771E-02
 cg2d: Sum(rhs),rhsMax =   5.88368354037527E-10  1.76745354912616E-02
 cg2d: Sum(rhs),rhsMax =   5.88413345825600E-10  1.76743538444159E-02
 cg2d: Sum(rhs),rhsMax =   5.88458434758188E-10  1.76741734107126E-02
 cg2d: Sum(rhs),rhsMax =   5.88501636311634E-10  1.76739938560417E-02
 cg2d: Sum(rhs),rhsMax =   5.88537663048783E-10  1.76738148623407E-02
 cg2d: Sum(rhs),rhsMax =   5.88582987903763E-10  1.76736361322154E-02
 cg2d: Sum(rhs),rhsMax =   5.88623524921950E-10  1.76734573865954E-02
 cg2d: Sum(rhs),rhsMax =   5.88664963996344E-10  1.76732783669658E-02
 cg2d: Sum(rhs),rhsMax =   5.88723000904956E-10  1.76730988379726E-02
 cg2d: Sum(rhs),rhsMax =   5.88771920106979E-10  1.76729185856781E-02
 cg2d: Sum(rhs),rhsMax =   5.88824433656043E-10  1.76727374195965E-02
 cg2d: Sum(rhs),rhsMax =   5.88868190321001E-10  1.76725551730641E-02
 cg2d: Sum(rhs),rhsMax =   5.88907214660317E-10  1.76723717085187E-02
 cg2d: Sum(rhs),rhsMax =   5.88965404224595E-10  1.76721869059642E-02
 cg2d: Sum(rhs),rhsMax =   5.89015086704947E-10  1.76720006807654E-02
 cg2d: Sum(rhs),rhsMax =   5.89064616529633E-10  1.76718129653042E-02
 cg2d: Sum(rhs),rhsMax =   5.89122070571158E-10  1.76716237155423E-02
 cg2d: Sum(rhs),rhsMax =   5.89165161102301E-10  1.76714329087088E-02
 cg2d: Sum(rhs),rhsMax =   5.89204657286402E-10  1.76712405452813E-02
 cg2d: Sum(rhs),rhsMax =   5.89257712069191E-10  1.76710466461886E-02
 cg2d: Sum(rhs),rhsMax =   5.89305396148099E-10  1.76708512551465E-02
 cg2d: Sum(rhs),rhsMax =   5.89361559555357E-10  1.76706544301459E-02
 cg2d: Sum(rhs),rhsMax =   5.89407564421940E-10  1.76704562496768E-02
 cg2d: Sum(rhs),rhsMax =   5.89458010180621E-10  1.76702568084972E-02
 cg2d: Sum(rhs),rhsMax =   5.89501281123006E-10  1.76700562167464E-02
 cg2d: Sum(rhs),rhsMax =   5.89552198726473E-10  1.76698545999937E-02
 cg2d: Sum(rhs),rhsMax =   5.89607321299646E-10  1.76696520927338E-02
 cg2d: Sum(rhs),rhsMax =   5.89639906345418E-10  1.76694488428464E-02
 cg2d: Sum(rhs),rhsMax =   5.89688006757960E-10  1.76692450077135E-02
 cg2d: Sum(rhs),rhsMax =   5.89727169875154E-10  1.76690407529046E-02
 cg2d: Sum(rhs),rhsMax =   5.89779600157492E-10  1.76688362441991E-02
 cg2d: Sum(rhs),rhsMax =   5.89836138265021E-10  1.76686316602214E-02
 cg2d: Sum(rhs),rhsMax =   5.89881227197608E-10  1.76684271764832E-02
 cg2d: Sum(rhs),rhsMax =   5.89925164273808E-10  1.76682229702090E-02
 cg2d: Sum(rhs),rhsMax =   5.89985948984406E-10  1.76680192203700E-02
 cg2d: Sum(rhs),rhsMax =   5.90032661618167E-10  1.76678161010560E-02
 cg2d: Sum(rhs),rhsMax =   5.90090559748901E-10  1.76676137819032E-02
 cg2d: Sum(rhs),rhsMax =   5.90136134404062E-10  1.76674124248841E-02
 cg2d: Sum(rhs),rhsMax =   5.90172397063604E-10  1.76672121879141E-02
 cg2d: Sum(rhs),rhsMax =   5.90227436370050E-10  1.76670132201839E-02
 cg2d: Sum(rhs),rhsMax =   5.90279117251846E-10  1.76668156601205E-02
 cg2d: Sum(rhs),rhsMax =   5.90319251814186E-10  1.76666196330483E-02
 cg2d: Sum(rhs),rhsMax =   5.90367921216028E-10  1.76664252518071E-02
 cg2d: Sum(rhs),rhsMax =   5.90405058176202E-10  1.76662326161799E-02
 cg2d: Sum(rhs),rhsMax =   5.90465815131225E-10  1.76660418102491E-02
 cg2d: Sum(rhs),rhsMax =   5.90515997211938E-10  1.76658544896772E-02
 cg2d: Sum(rhs),rhsMax =   5.90555188084707E-10  1.76656719749817E-02
 cg2d: Sum(rhs),rhsMax =   5.90590576443617E-10  1.76654886682210E-02
 cg2d: Sum(rhs),rhsMax =   5.90644103071192E-10  1.76653101476844E-02
 cg2d: Sum(rhs),rhsMax =   5.90692314506036E-10  1.76651308287511E-02
 cg2d: Sum(rhs),rhsMax =   5.90734142158489E-10  1.76649562121923E-02
 cg2d: Sum(rhs),rhsMax =   5.90779411502318E-10  1.76647806860398E-02
 cg2d: Sum(rhs),rhsMax =   5.90837906377928E-10  1.76646097065572E-02
 cg2d: Sum(rhs),rhsMax =   5.90880136486227E-10  1.76644376267970E-02
 cg2d: Sum(rhs),rhsMax =   5.90922102916558E-10  1.76642698589927E-02
 cg2d: Sum(rhs),rhsMax =   5.90960474999846E-10  1.76641007199903E-02
 cg2d: Sum(rhs),rhsMax =   5.91003732064443E-10  1.76639355792300E-02
 cg2d: Sum(rhs),rhsMax =   5.91038176733782E-10  1.76637687214385E-02
 cg2d: Sum(rhs),rhsMax =   5.91094700963524E-10  1.76636054709241E-02
 cg2d: Sum(rhs),rhsMax =   5.91141788297556E-10  1.76634400602950E-02
 cg2d: Sum(rhs),rhsMax =   5.91184684539670E-10  1.76632777833384E-02
 cg2d: Sum(rhs),rhsMax =   5.91223681123410E-10  1.76631128589664E-02
 cg2d: Sum(rhs),rhsMax =   5.91277124484257E-10  1.76629505503404E-02
 cg2d: Sum(rhs),rhsMax =   5.91319992970796E-10  1.76627850533287E-02
 cg2d: Sum(rhs),rhsMax =   5.91365664770471E-10  1.76626215998173E-02
 cg2d: Sum(rhs),rhsMax =   5.91423826579174E-10  1.76624543658065E-02
 cg2d: Sum(rhs),rhsMax =   5.91460394550047E-10  1.76622885591861E-02
 cg2d: Sum(rhs),rhsMax =   5.91506968405930E-10  1.76621183443015E-02
 cg2d: Sum(rhs),rhsMax =   5.91553458995087E-10  1.76619489090498E-02
 cg2d: Sum(rhs),rhsMax =   5.91595800125688E-10  1.76617744103576E-02
 cg2d: Sum(rhs),rhsMax =   5.91640528235793E-10  1.76616000209586E-02
 cg2d: Sum(rhs),rhsMax =   5.91683452233482E-10  1.76614198976571E-02
 cg2d: Sum(rhs),rhsMax =   5.91737436828055E-10  1.76612392059055E-02
 cg2d: Sum(rhs),rhsMax =   5.91787049919468E-10  1.76610521064441E-02
 cg2d: Sum(rhs),rhsMax =   5.91838286712054E-10  1.76608637642368E-02
 cg2d: Sum(rhs),rhsMax =   5.91876561650828E-10  1.76606683497394E-02
 cg2d: Sum(rhs),rhsMax =   5.91920054637818E-10  1.76604710339597E-02
 cg2d: Sum(rhs),rhsMax =   5.91967197483001E-10  1.76602660023250E-02
 cg2d: Sum(rhs),rhsMax =   5.92021903722539E-10  1.76600584387083E-02
 cg2d: Sum(rhs),rhsMax =   5.92073820526728E-10  1.76598425509247E-02
 cg2d: Sum(rhs),rhsMax =   5.92116841668933E-10  1.76596235390988E-02
 cg2d: Sum(rhs),rhsMax =   5.92152965550596E-10  1.76593956371963E-02
 cg2d: Sum(rhs),rhsMax =   5.92205284810632E-10  1.76591640696081E-02
 cg2d: Sum(rhs),rhsMax =   5.92254134623715E-10  1.76589231050422E-02
 cg2d: Sum(rhs),rhsMax =   5.92299195800727E-10  1.76586779920251E-02
 cg2d: Sum(rhs),rhsMax =   5.92347615402389E-10  1.76584230354235E-02
 cg2d: Sum(rhs),rhsMax =   5.92381310671186E-10  1.76581635191316E-02
 cg2d: Sum(rhs),rhsMax =   5.92430673962419E-10  1.76578937850826E-02
 cg2d: Sum(rhs),rhsMax =   5.92485810413379E-10  1.76576191550467E-02
 cg2d: Sum(rhs),rhsMax =   5.92546109401404E-10  1.76573277421568E-02
 cg2d: Sum(rhs),rhsMax =   5.92595625348302E-10  1.76569416967194E-02
 cg2d: Sum(rhs),rhsMax =   5.92634025187166E-10  1.76565495802299E-02
 cg2d: Sum(rhs),rhsMax =   5.92692103729142E-10  1.76561567490434E-02
 cg2d: Sum(rhs),rhsMax =   5.92732835036358E-10  1.76557562389951E-02
 cg2d: Sum(rhs),rhsMax =   5.92790275200095E-10  1.76553535592160E-02
 cg2d: Sum(rhs),rhsMax =   5.92837029467219E-10  1.76549433789199E-02
 cg2d: Sum(rhs),rhsMax =   5.92895468831678E-10  1.76545312978204E-02
 cg2d: Sum(rhs),rhsMax =   5.92949828126521E-10  1.76541120062836E-02
 cg2d: Sum(rhs),rhsMax =   5.93005103355360E-10  1.76536909556278E-02
 cg2d: Sum(rhs),rhsMax =   5.93071175503113E-10  1.76532631400167E-02
 cg2d: Sum(rhs),rhsMax =   5.93117097102969E-10  1.76528335534969E-02
 cg2d: Sum(rhs),rhsMax =   5.93177576502235E-10  1.76523977337617E-02
 cg2d: Sum(rhs),rhsMax =   5.93223720146696E-10  1.76519602600774E-02
 cg2d: Sum(rhs),rhsMax =   5.93280105598559E-10  1.76515169767603E-02
 cg2d: Sum(rhs),rhsMax =   5.93346996535793E-10  1.76510720946978E-02
 cg2d: Sum(rhs),rhsMax =   5.93407822879755E-10  1.76506219137963E-02
 cg2d: Sum(rhs),rhsMax =   5.93470023124709E-10  1.76501703184137E-02
 cg2d: Sum(rhs),rhsMax =   5.93514168367726E-10  1.76497138319915E-02
 cg2d: Sum(rhs),rhsMax =   5.93572996310243E-10  1.76492560526354E-02
 cg2d: Sum(rhs),rhsMax =   5.93626370282152E-10  1.76487938788619E-02
 cg2d: Sum(rhs),rhsMax =   5.93682630833925E-10  1.76483306610805E-02
 cg2d: Sum(rhs),rhsMax =   5.93737004006556E-10  1.76478634432822E-02
 cg2d: Sum(rhs),rhsMax =   5.93790058789345E-10  1.76473953648296E-02
 cg2d: Sum(rhs),rhsMax =   5.93830790096561E-10  1.76469237767930E-02
 cg2d: Sum(rhs),rhsMax =   5.93882526489509E-10  1.76464516257831E-02
 Computing Diagnostic #    26 "THETA   " (list#  1) Parms "SMR     MR      ", Count=     144
 Computing Diagnostic #    27 "SALT    " (list#  1) Parms "SMR     MR      ", Count=     144
 Computing Diagnostic #    30 "UVEL    " (list#  1) Parms "UUR     MR      ", Count=     144
             Vector  Mate for "UVEL    " :  Diagnostic #     31 "VVEL    " exists
 Computing Diagnostic #    32 "WVEL    " (list#  1) Parms "WM      LR      ", Count=     144
 Computing Diagnostic #    31 "VVEL    " (list#  1) Parms "VVR     MR      ", Count=     144
             Vector  Mate for "VVEL    " :  Diagnostic #     30 "UVEL    " exists
 Computing Diagnostic #   197 "BRGfwFlx" (list#  2) Parms "SM      MR      ", Count=     144
 Computing Diagnostic #   198 "BRGhtFlx" (list#  2) Parms "SM      MR      ", Count=     144
 Computing Diagnostic #   199 "BRGmltRt" (list#  2) Parms "SM      MR      ", Count=     144
 Computing Diagnostic #   201 "BRG_TauX" (list#  2) Parms "UU      MR      ", Count=    1728
 Computing Diagnostic #   202 "BRG_TauY" (list#  2) Parms "VV      MR      ", Count=    1728
 Computing Diagnostic #   203 "BRGhFacC" (list#  2) Parms "SM      MR      ", Count=    1728
 cg2d: Sum(rhs),rhsMax =   5.93930057912750E-10  1.76459763524850E-02
 cg2d: Sum(rhs),rhsMax =   5.93988663810663E-10  1.76455007698457E-02
 cg2d: Sum(rhs),rhsMax =   5.94035987067087E-10  1.76450225369405E-02
 cg2d: Sum(rhs),rhsMax =   5.94100060813396E-10  1.76445443276073E-02
 cg2d: Sum(rhs),rhsMax =   5.94152060884312E-10  1.76440638631036E-02
 cg2d: Sum(rhs),rhsMax =   5.94202922976628E-10  1.76435837412465E-02
 cg2d: Sum(rhs),rhsMax =   5.94269633502620E-10  1.76431017785741E-02
 cg2d: Sum(rhs),rhsMax =   5.94323895652948E-10  1.76426205214640E-02
 cg2d: Sum(rhs),rhsMax =   5.94377519425038E-10  1.76421378828385E-02
 cg2d: Sum(rhs),rhsMax =   5.94445687118750E-10  1.76416562784999E-02
 cg2d: Sum(rhs),rhsMax =   5.94494758976438E-10  1.76411737319232E-02
 cg2d: Sum(rhs),rhsMax =   5.94547661103562E-10  1.76406926000832E-02
 cg2d: Sum(rhs),rhsMax =   5.94602367343100E-10  1.76402109485063E-02
 cg2d: Sum(rhs),rhsMax =   5.94660723440832E-10  1.76397310755005E-02
 cg2d: Sum(rhs),rhsMax =   5.94712029622357E-10  1.76392511415331E-02
 cg2d: Sum(rhs),rhsMax =   5.94783361451690E-10  1.76387733810868E-02
 cg2d: Sum(rhs),rhsMax =   5.94832114120258E-10  1.76382959962444E-02
 cg2d: Sum(rhs),rhsMax =   5.94884891347292E-10  1.76378211514136E-02
 cg2d: Sum(rhs),rhsMax =   5.94944482568138E-10  1.76373471568229E-02
 cg2d: Sum(rhs),rhsMax =   5.94994498115398E-10  1.76368760949761E-02
 cg2d: Sum(rhs),rhsMax =   5.95060473118636E-10  1.76364063328265E-02
 cg2d: Sum(rhs),rhsMax =   5.95126045666028E-10  1.76359398584033E-02
 cg2d: Sum(rhs),rhsMax =   5.95191160246422E-10  1.76354751695973E-02
 cg2d: Sum(rhs),rhsMax =   5.95246157919505E-10  1.76350141777553E-02
 cg2d: Sum(rhs),rhsMax =   5.95297117156335E-10  1.76345553355983E-02
 cg2d: Sum(rhs),rhsMax =   5.95342816711586E-10  1.76341005196794E-02
 cg2d: Sum(rhs),rhsMax =   5.95402185887828E-10  1.76336484540261E-02
 cg2d: Sum(rhs),rhsMax =   5.95456337015854E-10  1.76332007092098E-02
 cg2d: Sum(rhs),rhsMax =   5.95522339774668E-10  1.76327561557104E-02
 cg2d: Sum(rhs),rhsMax =   5.95577420714477E-10  1.76323162174178E-02
 cg2d: Sum(rhs),rhsMax =   5.95634708222548E-10  1.76318799631428E-02
 cg2d: Sum(rhs),rhsMax =   5.95698365635222E-10  1.76314486197893E-02
 cg2d: Sum(rhs),rhsMax =   5.95763216537648E-10  1.76310214196235E-02
 cg2d: Sum(rhs),rhsMax =   5.95826971094837E-10  1.76305993721080E-02
 cg2d: Sum(rhs),rhsMax =   5.95890323196180E-10  1.76301865243882E-02
 cg2d: Sum(rhs),rhsMax =   5.95957894145016E-10  1.76297841837931E-02
 cg2d: Sum(rhs),rhsMax =   5.96007590503156E-10  1.76293919067788E-02
 cg2d: Sum(rhs),rhsMax =   5.96044394396422E-10  1.76290101169991E-02
 cg2d: Sum(rhs),rhsMax =   5.96098573280024E-10  1.76286386634151E-02
 cg2d: Sum(rhs),rhsMax =   5.96144758557848E-10  1.76282776803224E-02
 cg2d: Sum(rhs),rhsMax =   5.96206792269349E-10  1.76279271757862E-02
 cg2d: Sum(rhs),rhsMax =   5.96256335971823E-10  1.76275871263667E-02
 cg2d: Sum(rhs),rhsMax =   5.96303256772401E-10  1.76272574848550E-02
 cg2d: Sum(rhs),rhsMax =   5.96355825832617E-10  1.76269381794796E-02
 cg2d: Sum(rhs),rhsMax =   5.96415514197979E-10  1.76266291132069E-02
 cg2d: Sum(rhs),rhsMax =   5.96461310897745E-10  1.76263301639020E-02
 cg2d: Sum(rhs),rhsMax =   5.96519111883964E-10  1.76260411861465E-02
 cg2d: Sum(rhs),rhsMax =   5.96556151699623E-10  1.76257620125816E-02
 cg2d: Sum(rhs),rhsMax =   5.96604737834738E-10  1.76254924532889E-02
 cg2d: Sum(rhs),rhsMax =   5.96649493700419E-10  1.76252322949777E-02
 cg2d: Sum(rhs),rhsMax =   5.96713858880271E-10  1.76249813068313E-02
 cg2d: Sum(rhs),rhsMax =   5.96773047645272E-10  1.76247392332243E-02
 cg2d: Sum(rhs),rhsMax =   5.96831681298760E-10  1.76245058047489E-02
 cg2d: Sum(rhs),rhsMax =   5.96891647219877E-10  1.76242807312711E-02
 cg2d: Sum(rhs),rhsMax =   5.96944507713637E-10  1.76240637029167E-02
 cg2d: Sum(rhs),rhsMax =   5.96987861922749E-10  1.76238543912346E-02
 cg2d: Sum(rhs),rhsMax =   5.97038862792942E-10  1.76236524649218E-02
 cg2d: Sum(rhs),rhsMax =   5.97081606379390E-10  1.76234575699815E-02
 cg2d: Sum(rhs),rhsMax =   5.97124558132656E-10  1.76232693345967E-02
 cg2d: Sum(rhs),rhsMax =   5.97164651061632E-10  1.76230873793903E-02
 cg2d: Sum(rhs),rhsMax =   5.97203536623070E-10  1.76229113142280E-02
 cg2d: Sum(rhs),rhsMax =   5.97242283406629E-10  1.76227407356784E-02
 cg2d: Sum(rhs),rhsMax =   5.97290050752264E-10  1.76225752351131E-02
 cg2d: Sum(rhs),rhsMax =   5.97331892282504E-10  1.76224143888214E-02
 cg2d: Sum(rhs),rhsMax =   5.97379382072383E-10  1.76222577720904E-02
 cg2d: Sum(rhs),rhsMax =   5.97444954619775E-10  1.76221049536939E-02
 cg2d: Sum(rhs),rhsMax =   5.97487823106313E-10  1.76219554961825E-02
 cg2d: Sum(rhs),rhsMax =   5.97538865609870E-10  1.76218089613210E-02
 cg2d: Sum(rhs),rhsMax =   5.97580762651262E-10  1.76216649063083E-02
 cg2d: Sum(rhs),rhsMax =   5.97642782484975E-10  1.76215228875596E-02
 cg2d: Sum(rhs),rhsMax =   5.97677921043704E-10  1.76213824632761E-02
 cg2d: Sum(rhs),rhsMax =   5.97731364404552E-10  1.76212431892817E-02
 cg2d: Sum(rhs),rhsMax =   5.97783489375558E-10  1.76211046278245E-02
 cg2d: Sum(rhs),rhsMax =   5.97829119541871E-10  1.76209663415903E-02
 cg2d: Sum(rhs),rhsMax =   5.97872210073014E-10  1.76208279012221E-02
 cg2d: Sum(rhs),rhsMax =   5.97910984612149E-10  1.76206888793829E-02
 cg2d: Sum(rhs),rhsMax =   5.97965343906992E-10  1.76205488588543E-02
 cg2d: Sum(rhs),rhsMax =   5.98018912167930E-10  1.76204074291738E-02
 cg2d: Sum(rhs),rhsMax =   5.98051760891671E-10  1.76202641909100E-02
 cg2d: Sum(rhs),rhsMax =   5.98101790316719E-10  1.76201187359061E-02
 cg2d: Sum(rhs),rhsMax =   5.98145546981677E-10  1.76199706175689E-02
 cg2d: Sum(rhs),rhsMax =   5.98199878520944E-10  1.76198194499189E-02
 cg2d: Sum(rhs),rhsMax =   5.98251018169016E-10  1.76196647771762E-02
 cg2d: Sum(rhs),rhsMax =   5.98301311272031E-10  1.76195062172763E-02
 cg2d: Sum(rhs),rhsMax =   5.98346192037802E-10  1.76193433949211E-02
 cg2d: Sum(rhs),rhsMax =   5.98405422436166E-10  1.76191759522683E-02
 cg2d: Sum(rhs),rhsMax =   5.98452551403561E-10  1.76190035527523E-02
 cg2d: Sum(rhs),rhsMax =   5.98504412696599E-10  1.76188258816224E-02
 cg2d: Sum(rhs),rhsMax =   5.98557856057447E-10  1.76186426498936E-02
 cg2d: Sum(rhs),rhsMax =   5.98606969548499E-10  1.76184535928722E-02
 cg2d: Sum(rhs),rhsMax =   5.98658983497202E-10  1.76182584721488E-02
 cg2d: Sum(rhs),rhsMax =   5.98694815945322E-10  1.76180570743883E-02
 cg2d: Sum(rhs),rhsMax =   5.98735075407753E-10  1.76178492149640E-02
 cg2d: Sum(rhs),rhsMax =   5.98790225736501E-10  1.76176347376057E-02
 cg2d: Sum(rhs),rhsMax =   5.98836522036628E-10  1.76174135113705E-02
 cg2d: Sum(rhs),rhsMax =   5.98897764714224E-10  1.76171854384009E-02
 cg2d: Sum(rhs),rhsMax =   5.98949903563017E-10  1.76169504481425E-02
 cg2d: Sum(rhs),rhsMax =   5.98999919110277E-10  1.76167084980644E-02
 cg2d: Sum(rhs),rhsMax =   5.99042093707425E-10  1.76164595753440E-02
 cg2d: Sum(rhs),rhsMax =   5.99097174647234E-10  1.76162036984510E-02
 cg2d: Sum(rhs),rhsMax =   5.99149480029482E-10  1.76159409044476E-02
 cg2d: Sum(rhs),rhsMax =   5.99198760053987E-10  1.76156712820104E-02
 cg2d: Sum(rhs),rhsMax =   5.99254021405038E-10  1.76153949281787E-02
 cg2d: Sum(rhs),rhsMax =   5.99299193604352E-10  1.76151119648926E-02
 cg2d: Sum(rhs),rhsMax =   5.99345545415630E-10  1.76148225487308E-02
 cg2d: Sum(rhs),rhsMax =   5.99407176671285E-10  1.76145268629524E-02
 cg2d: Sum(rhs),rhsMax =   5.99467628314976E-10  1.76142251090410E-02
 cg2d: Sum(rhs),rhsMax =   5.99507457565984E-10  1.76139175209641E-02
 cg2d: Sum(rhs),rhsMax =   5.99565869174867E-10  1.76136043495290E-02
 cg2d: Sum(rhs),rhsMax =   5.99627680841763E-10  1.76132858669816E-02
 cg2d: Sum(rhs),rhsMax =   5.99678820489835E-10  1.76129623626922E-02
 cg2d: Sum(rhs),rhsMax =   5.99705146653307E-10  1.76126341443565E-02
 cg2d: Sum(rhs),rhsMax =   5.99750485386075E-10  1.76123015363013E-02
 cg2d: Sum(rhs),rhsMax =   5.99800112355275E-10  1.76119648770575E-02
 cg2d: Sum(rhs),rhsMax =   5.99859467653729E-10  1.76116245184002E-02
 cg2d: Sum(rhs),rhsMax =   5.99923485888887E-10  1.76112808257559E-02
 cg2d: Sum(rhs),rhsMax =   5.99983548954519E-10  1.76109341713489E-02
 cg2d: Sum(rhs),rhsMax =   6.00050134580421E-10  1.76105849371074E-02
 cg2d: Sum(rhs),rhsMax =   6.00105035108989E-10  1.76102335105388E-02
 cg2d: Sum(rhs),rhsMax =   6.00162280983696E-10  1.76098802821659E-02
 cg2d: Sum(rhs),rhsMax =   6.00210534051904E-10  1.76095256455775E-02
 cg2d: Sum(rhs),rhsMax =   6.00271152229048E-10  1.76091699925610E-02
 cg2d: Sum(rhs),rhsMax =   6.00331950817434E-10  1.76088137114274E-02
 cg2d: Sum(rhs),rhsMax =   6.00375249515395E-10  1.76084571894704E-02
 cg2d: Sum(rhs),rhsMax =   6.00422336849427E-10  1.76081008064510E-02
 cg2d: Sum(rhs),rhsMax =   6.00491864566344E-10  1.76077449353234E-02
 cg2d: Sum(rhs),rhsMax =   6.00541408268818E-10  1.76074434426772E-02
 cg2d: Sum(rhs),rhsMax =   6.00588551114001E-10  1.76071685838665E-02
 cg2d: Sum(rhs),rhsMax =   6.00646171688979E-10  1.76068959989763E-02
 cg2d: Sum(rhs),rhsMax =   6.00711341780524E-10  1.76066258898478E-02
 cg2d: Sum(rhs),rhsMax =   6.00764313296587E-10  1.76063583206656E-02
 cg2d: Sum(rhs),rhsMax =   6.00812719020460E-10  1.76060932526699E-02
 cg2d: Sum(rhs),rhsMax =   6.00848051868219E-10  1.76058306918072E-02
 cg2d: Sum(rhs),rhsMax =   6.00904229153265E-10  1.76055706245888E-02
 cg2d: Sum(rhs),rhsMax =   6.00955785134971E-10  1.76053130241164E-02
 cg2d: Sum(rhs),rhsMax =   6.01014391032884E-10  1.76050578369036E-02
 cg2d: Sum(rhs),rhsMax =   6.01079172546370E-10  1.76048049977748E-02
 cg2d: Sum(rhs),rhsMax =   6.01124997001712E-10  1.76045544227400E-02
 cg2d: Sum(rhs),rhsMax =   6.01190902616011E-10  1.76043060110751E-02
 cg2d: Sum(rhs),rhsMax =   6.01248106857355E-10  1.76040596447532E-02
 cg2d: Sum(rhs),rhsMax =   6.01290905954954E-10  1.76038151888133E-02
 cg2d: Sum(rhs),rhsMax =   6.01333829952644E-10  1.76035724946288E-02
 cg2d: Sum(rhs),rhsMax =   6.01390173771144E-10  1.76033313929165E-02
 cg2d: Sum(rhs),rhsMax =   6.01433680635921E-10  1.76030917039887E-02
 Computing Diagnostic #    26 "THETA   " (list#  1) Parms "SMR     MR      ", Count=     144
 Computing Diagnostic #    27 "SALT    " (list#  1) Parms "SMR     MR      ", Count=     144
 Computing Diagnostic #    30 "UVEL    " (list#  1) Parms "UUR     MR      ", Count=     144
             Vector  Mate for "UVEL    " :  Diagnostic #     31 "VVEL    " exists
 Computing Diagnostic #    32 "WVEL    " (list#  1) Parms "WM      LR      ", Count=     144
 Computing Diagnostic #    31 "VVEL    " (list#  1) Parms "VVR     MR      ", Count=     144
             Vector  Mate for "VVEL    " :  Diagnostic #     30 "UVEL    " exists
 Computing Diagnostic #   197 "BRGfwFlx" (list#  2) Parms "SM      MR      ", Count=     144
 Computing Diagnostic #   198 "BRGhtFlx" (list#  2) Parms "SM      MR      ", Count=     144
 Computing Diagnostic #   199 "BRGmltRt" (list#  2) Parms "SM      MR      ", Count=     144
 Computing Diagnostic #   201 "BRG_TauX" (list#  2) Parms "UU      MR      ", Count=    1728
 Computing Diagnostic #   202 "BRG_TauY" (list#  2) Parms "VV      MR      ", Count=    1728
 Computing Diagnostic #   203 "BRGhFacC" (list#  2) Parms "SM      MR      ", Count=    1728
 cg2d: Sum(rhs),rhsMax =   6.01486416229591E-10  1.76028532305227E-02
 cg2d: Sum(rhs),rhsMax =   6.01534419497618E-10  1.76026157637362E-02
 cg2d: Sum(rhs),rhsMax =   6.01585933845961E-10  1.76023790763630E-02
 cg2d: Sum(rhs),rhsMax =   6.01616534368077E-10  1.76021429350223E-02
 cg2d: Sum(rhs),rhsMax =   6.01657196286354E-10  1.76019070927310E-02
 cg2d: Sum(rhs),rhsMax =   6.01708835534787E-10  1.76016712866184E-02
 cg2d: Sum(rhs),rhsMax =   6.01762875640510E-10  1.76014352505100E-02
 cg2d: Sum(rhs),rhsMax =   6.01805230648900E-10  1.76011987054075E-02
 cg2d: Sum(rhs),rhsMax =   6.01858632376384E-10  1.76009613641071E-02
 cg2d: Sum(rhs),rhsMax =   6.01889191265137E-10  1.76007229328134E-02
 cg2d: Sum(rhs),rhsMax =   6.01935792876596E-10  1.76004831092603E-02
 cg2d: Sum(rhs),rhsMax =   6.01992025672793E-10  1.76002415893192E-02
 cg2d: Sum(rhs),rhsMax =   6.02030425511657E-10  1.75999980660366E-02
 cg2d: Sum(rhs),rhsMax =   6.02078789602167E-10  1.75997522313505E-02
 cg2d: Sum(rhs),rhsMax =   6.02112693037782E-10  1.75995037739154E-02
 cg2d: Sum(rhs),rhsMax =   6.02166594365627E-10  1.75992523876480E-02
 cg2d: Sum(rhs),rhsMax =   6.02214889067199E-10  1.75989977653350E-02
 cg2d: Sum(rhs),rhsMax =   6.02275729288948E-10  1.75987396047946E-02
 cg2d: Sum(rhs),rhsMax =   6.02324079501670E-10  1.75984776097519E-02
 cg2d: Sum(rhs),rhsMax =   6.02371041935612E-10  1.75982114882477E-02
 cg2d: Sum(rhs),rhsMax =   6.02419475415061E-10  1.75979409566140E-02
 cg2d: Sum(rhs),rhsMax =   6.02481717293379E-10  1.75976657398736E-02
 cg2d: Sum(rhs),rhsMax =   6.02533009597117E-10  1.75973855734920E-02
 cg2d: Sum(rhs),rhsMax =   6.02581887165776E-10  1.75971002015510E-02
 cg2d: Sum(rhs),rhsMax =   6.02626906709425E-10  1.75968093854170E-02
 cg2d: Sum(rhs),rhsMax =   6.02672967087159E-10  1.75965128957491E-02
 cg2d: Sum(rhs),rhsMax =   6.02721650366789E-10  1.75962105299365E-02
 cg2d: Sum(rhs),rhsMax =   6.02767127877435E-10  1.75959020836195E-02
 cg2d: Sum(rhs),rhsMax =   6.02805819149843E-10  1.75955873809868E-02
 cg2d: Sum(rhs),rhsMax =   6.02853530984326E-10  1.75952662598184E-02
 cg2d: Sum(rhs),rhsMax =   6.02900437907117E-10  1.75949385768881E-02
 cg2d: Sum(rhs),rhsMax =   6.02955685380380E-10  1.75946042062843E-02
 cg2d: Sum(rhs),rhsMax =   6.03005909094456E-10  1.75942630405586E-02
 cg2d: Sum(rhs),rhsMax =   6.03063418647132E-10  1.75939149956041E-02
 cg2d: Sum(rhs),rhsMax =   6.03123120890281E-10  1.75935600020656E-02
 cg2d: Sum(rhs),rhsMax =   6.03173622160114E-10  1.75931980156699E-02
 cg2d: Sum(rhs),rhsMax =   6.03237376717303E-10  1.75928290128528E-02
 cg2d: Sum(rhs),rhsMax =   6.03303768054175E-10  1.75924529877394E-02
 cg2d: Sum(rhs),rhsMax =   6.03351493766446E-10  1.75920699612234E-02
 cg2d: Sum(rhs),rhsMax =   6.03410266197812E-10  1.75916799707865E-02
 cg2d: Sum(rhs),rhsMax =   6.03467623094822E-10  1.75912830779660E-02
 cg2d: Sum(rhs),rhsMax =   6.03523106490478E-10  1.75908793678581E-02
 cg2d: Sum(rhs),rhsMax =   6.03571762014532E-10  1.75904689427652E-02
 cg2d: Sum(rhs),rhsMax =   6.03621194694703E-10  1.75900519300932E-02
 cg2d: Sum(rhs),rhsMax =   6.03676511556905E-10  1.75896284751247E-02
 cg2d: Sum(rhs),rhsMax =   6.03725472392291E-10  1.75891987444899E-02
 cg2d: Sum(rhs),rhsMax =   6.03784564012777E-10  1.75887629273518E-02
 cg2d: Sum(rhs),rhsMax =   6.03830929701843E-10  1.75883212301897E-02
 cg2d: Sum(rhs),rhsMax =   6.03890631944992E-10  1.75878738781956E-02
 cg2d: Sum(rhs),rhsMax =   6.03951180733198E-10  1.75874211158745E-02
 cg2d: Sum(rhs),rhsMax =   6.04020555794449E-10  1.75869632066355E-02
 cg2d: Sum(rhs),rhsMax =   6.04068767229293E-10  1.75865004264742E-02
 cg2d: Sum(rhs),rhsMax =   6.04126540459937E-10  1.75860330722552E-02
 cg2d: Sum(rhs),rhsMax =   6.04189157038526E-10  1.75855614530069E-02
 cg2d: Sum(rhs),rhsMax =   6.04240893431474E-10  1.75850858912917E-02
 cg2d: Sum(rhs),rhsMax =   6.04309310925366E-10  1.75846067251103E-02
 cg2d: Sum(rhs),rhsMax =   6.04368707857184E-10  1.75841243029830E-02
 cg2d: Sum(rhs),rhsMax =   6.04415295590854E-10  1.75836389829043E-02
 cg2d: Sum(rhs),rhsMax =   6.04468156084614E-10  1.75831511355363E-02
 cg2d: Sum(rhs),rhsMax =   6.04520697389255E-10  1.75826611398578E-02
 cg2d: Sum(rhs),rhsMax =   6.04584007857234E-10  1.75821693777202E-02
 cg2d: Sum(rhs),rhsMax =   6.04648719981782E-10  1.75816762430752E-02
 cg2d: Sum(rhs),rhsMax =   6.04701760886783E-10  1.75811821311005E-02
 cg2d: Sum(rhs),rhsMax =   6.04745434285014E-10  1.75806874401372E-02
 cg2d: Sum(rhs),rhsMax =   6.04807467996515E-10  1.75801925744026E-02
 cg2d: Sum(rhs),rhsMax =   6.04859384800704E-10  1.75796979351211E-02
 cg2d: Sum(rhs),rhsMax =   6.04921598923447E-10  1.75792039276297E-02
 cg2d: Sum(rhs),rhsMax =   6.04975347595627E-10  1.75787109504090E-02
 cg2d: Sum(rhs),rhsMax =   6.05037117629159E-10  1.75782194054873E-02
 cg2d: Sum(rhs),rhsMax =   6.05089325866892E-10  1.75777296869303E-02
 cg2d: Sum(rhs),rhsMax =   6.05147043586385E-10  1.75772421836465E-02
 cg2d: Sum(rhs),rhsMax =   6.05219999116891E-10  1.75767572824181E-02
 cg2d: Sum(rhs),rhsMax =   6.05270611409026E-10  1.75762753567911E-02
 cg2d: Sum(rhs),rhsMax =   6.05334324332851E-10  1.75757967768850E-02
 cg2d: Sum(rhs),rhsMax =   6.05388156271758E-10  1.75753219000505E-02
 cg2d: Sum(rhs),rhsMax =   6.05438241207956E-10  1.75748510781086E-02
 cg2d: Sum(rhs),rhsMax =   6.05495611982754E-10  1.75743846443600E-02
 cg2d: Sum(rhs),rhsMax =   6.05548278187484E-10  1.75739229238484E-02
 cg2d: Sum(rhs),rhsMax =   6.05621983118532E-10  1.75734662282569E-02
 cg2d: Sum(rhs),rhsMax =   6.05667474506966E-10  1.75730148551164E-02
 cg2d: Sum(rhs),rhsMax =   6.05727246139054E-10  1.75725690876312E-02
 cg2d: Sum(rhs),rhsMax =   6.05788808005769E-10  1.75721291902463E-02
 cg2d: Sum(rhs),rhsMax =   6.05841085632441E-10  1.75716954148966E-02
 cg2d: Sum(rhs),rhsMax =   6.05902952810489E-10  1.75712679966293E-02
 cg2d: Sum(rhs),rhsMax =   6.05964708966233E-10  1.75708471510516E-02
 cg2d: Sum(rhs),rhsMax =   6.06020331139767E-10  1.75704330772636E-02
 cg2d: Sum(rhs),rhsMax =   6.06059091801114E-10  1.75700259565043E-02
 cg2d: Sum(rhs),rhsMax =   6.06114047840833E-10  1.75696259655691E-02
 cg2d: Sum(rhs),rhsMax =   6.06168268357798E-10  1.75692332289881E-02
 cg2d: Sum(rhs),rhsMax =   6.06219435761446E-10  1.75688478605165E-02
 cg2d: Sum(rhs),rhsMax =   6.06280955994798E-10  1.75684699901093E-02
 cg2d: Sum(rhs),rhsMax =   6.06332331565262E-10  1.75680997085896E-02
 cg2d: Sum(rhs),rhsMax =   6.06388245172340E-10  1.75677370783696E-02
 cg2d: Sum(rhs),rhsMax =   6.06444047757115E-10  1.75673821461603E-02
 cg2d: Sum(rhs),rhsMax =   6.06493424926136E-10  1.75670349464668E-02
 cg2d: Sum(rhs),rhsMax =   6.06552044701836E-10  1.75666954896615E-02
 cg2d: Sum(rhs),rhsMax =   6.06604350084083E-10  1.75663637762162E-02
 cg2d: Sum(rhs),rhsMax =   6.06665134794682E-10  1.75660397821490E-02
 cg2d: Sum(rhs),rhsMax =   6.06707822869978E-10  1.75657234686640E-02
 cg2d: Sum(rhs),rhsMax =   6.06757782906087E-10  1.75654147786607E-02
 cg2d: Sum(rhs),rhsMax =   6.06821981552486E-10  1.75651136409107E-02
 cg2d: Sum(rhs),rhsMax =   6.06864697383358E-10  1.75648199668580E-02
 cg2d: Sum(rhs),rhsMax =   6.06913089229444E-10  1.75645336499295E-02
 cg2d: Sum(rhs),rhsMax =   6.06968877936431E-10  1.75642545745814E-02
 cg2d: Sum(rhs),rhsMax =   6.07011496622789E-10  1.75639826061670E-02
 cg2d: Sum(rhs),rhsMax =   6.07059999491177E-10  1.75637176005002E-02
 cg2d: Sum(rhs),rhsMax =   6.07116981687916E-10  1.75634594005519E-02
 cg2d: Sum(rhs),rhsMax =   6.07157546461679E-10  1.75632078332018E-02
 cg2d: Sum(rhs),rhsMax =   6.07202899072234E-10  1.75629627212233E-02
 cg2d: Sum(rhs),rhsMax =   6.07253386464279E-10  1.75627238727503E-02
 cg2d: Sum(rhs),rhsMax =   6.07290898124724E-10  1.75624910862047E-02
 cg2d: Sum(rhs),rhsMax =   6.07340996938710E-10  1.75622641561051E-02
 cg2d: Sum(rhs),rhsMax =   6.07390179818701E-10  1.75620428648173E-02
 cg2d: Sum(rhs),rhsMax =   6.07439015753997E-10  1.75618269897788E-02
 cg2d: Sum(rhs),rhsMax =   6.07496081217462E-10  1.75616163035025E-02
 cg2d: Sum(rhs),rhsMax =   6.07539685226755E-10  1.75614105709214E-02
 cg2d: Sum(rhs),rhsMax =   6.07604078162183E-10  1.75612095557502E-02
 cg2d: Sum(rhs),rhsMax =   6.07655162299103E-10  1.75610130169148E-02
 cg2d: Sum(rhs),rhsMax =   6.07707675848168E-10  1.75608207118524E-02
 cg2d: Sum(rhs),rhsMax =   6.07754971349017E-10  1.75606323961039E-02
 cg2d: Sum(rhs),rhsMax =   6.07806499575148E-10  1.75604478253253E-02
 cg2d: Sum(rhs),rhsMax =   6.07847425171393E-10  1.75602667518955E-02
 cg2d: Sum(rhs),rhsMax =   6.07905656369034E-10  1.75600889378421E-02
 cg2d: Sum(rhs),rhsMax =   6.07954145359635E-10  1.75599141367106E-02
 cg2d: Sum(rhs),rhsMax =   6.08001871071906E-10  1.75597421117616E-02
 cg2d: Sum(rhs),rhsMax =   6.08032083015964E-10  1.75595726148627E-02
 cg2d: Sum(rhs),rhsMax =   6.08089301135095E-10  1.75594054138833E-02
 cg2d: Sum(rhs),rhsMax =   6.08144631875085E-10  1.75592402999703E-02
 cg2d: Sum(rhs),rhsMax =   6.08189332229614E-10  1.75590770422042E-02
 cg2d: Sum(rhs),rhsMax =   6.08243566624367E-10  1.75589154148980E-02
 cg2d: Sum(rhs),rhsMax =   6.08282785252712E-10  1.75587552090426E-02
 cg2d: Sum(rhs),rhsMax =   6.08335062879384E-10  1.75585962212570E-02
 cg2d: Sum(rhs),rhsMax =   6.08387812350841E-10  1.75584382520202E-02
 cg2d: Sum(rhs),rhsMax =   6.08435857252232E-10  1.75582811099993E-02
 cg2d: Sum(rhs),rhsMax =   6.08493033738000E-10  1.75581246144027E-02
 cg2d: Sum(rhs),rhsMax =   6.08539732493973E-10  1.75579685878789E-02
 cg2d: Sum(rhs),rhsMax =   6.08590636219652E-10  1.75578128655004E-02
 cg2d: Sum(rhs),rhsMax =   6.08631714471564E-10  1.75576572919150E-02
 cg2d: Sum(rhs),rhsMax =   6.08680633673586E-10  1.75575017236808E-02
 cg2d: Sum(rhs),rhsMax =   6.08737893426081E-10  1.75573460143969E-02
 cg2d: Sum(rhs),rhsMax =   6.08785119537991E-10  1.75571900351797E-02
 cg2d: Sum(rhs),rhsMax =   6.08826003500873E-10  1.75570336690922E-02
 cg2d: Sum(rhs),rhsMax =   6.08876560281857E-10  1.75568768070560E-02
 cg2d: Sum(rhs),rhsMax =   6.08914960120721E-10  1.75567193461128E-02
 Computing Diagnostic #    26 "THETA   " (list#  1) Parms "SMR     MR      ", Count=     144
 Computing Diagnostic #    27 "SALT    " (list#  1) Parms "SMR     MR      ", Count=     144
 Computing Diagnostic #    30 "UVEL    " (list#  1) Parms "UUR     MR      ", Count=     144
             Vector  Mate for "UVEL    " :  Diagnostic #     31 "VVEL    " exists
 Computing Diagnostic #    32 "WVEL    " (list#  1) Parms "WM      LR      ", Count=     144
 Computing Diagnostic #    31 "VVEL    " (list#  1) Parms "VVR     MR      ", Count=     144
             Vector  Mate for "VVEL    " :  Diagnostic #     30 "UVEL    " exists
 Computing Diagnostic #   197 "BRGfwFlx" (list#  2) Parms "SM      MR      ", Count=     144
 Computing Diagnostic #   198 "BRGhtFlx" (list#  2) Parms "SM      MR      ", Count=     144
 Computing Diagnostic #   199 "BRGmltRt" (list#  2) Parms "SM      MR      ", Count=     144
 Computing Diagnostic #   201 "BRG_TauX" (list#  2) Parms "UU      MR      ", Count=    1728
 Computing Diagnostic #   202 "BRG_TauY" (list#  2) Parms "VV      MR      ", Count=    1728
 Computing Diagnostic #   203 "BRGhFacC" (list#  2) Parms "SM      MR      ", Count=    1728
 cg2d: Sum(rhs),rhsMax =   6.08966141402156E-10  1.75565611932723E-02
 cg2d: Sum(rhs),rhsMax =   6.09007955176821E-10  1.75564022695190E-02
 cg2d: Sum(rhs),rhsMax =   6.09054986999702E-10  1.75562425005949E-02
 cg2d: Sum(rhs),rhsMax =   6.09107486670979E-10  1.75560818250256E-02
 cg2d: Sum(rhs),rhsMax =   6.09149772290429E-10  1.75559201876117E-02
 cg2d: Sum(rhs),rhsMax =   6.09199746204325E-10  1.75557575410212E-02
 cg2d: Sum(rhs),rhsMax =   6.09236563975379E-10  1.75555938487555E-02
 cg2d: Sum(rhs),rhsMax =   6.09280945140789E-10  1.75554290827666E-02
 cg2d: Sum(rhs),rhsMax =   6.09335290557844E-10  1.75552632232695E-02
 cg2d: Sum(rhs),rhsMax =   6.09386888172914E-10  1.75550962559340E-02
 cg2d: Sum(rhs),rhsMax =   6.09436487386539E-10  1.75549281777931E-02
 cg2d: Sum(rhs),rhsMax =   6.09487293967703E-10  1.75547589886074E-02
 cg2d: Sum(rhs),rhsMax =   6.09533298834286E-10  1.75545886981931E-02
 cg2d: Sum(rhs),rhsMax =   6.09577763266422E-10  1.75544173191675E-02
 cg2d: Sum(rhs),rhsMax =   6.09612249569125E-10  1.75542448732796E-02
 cg2d: Sum(rhs),rhsMax =   6.09653230676521E-10  1.75540713870164E-02
 cg2d: Sum(rhs),rhsMax =   6.09695766096152E-10  1.75538968886774E-02
 cg2d: Sum(rhs),rhsMax =   6.09736913737002E-10  1.75537214151587E-02
 cg2d: Sum(rhs),rhsMax =   6.09784764349364E-10  1.75535450047287E-02
 cg2d: Sum(rhs),rhsMax =   6.09828618158836E-10  1.75533677002129E-02
 cg2d: Sum(rhs),rhsMax =   6.09874151180634E-10  1.75531895476970E-02
 cg2d: Sum(rhs),rhsMax =   6.09925512873311E-10  1.75530105944630E-02
 cg2d: Sum(rhs),rhsMax =   6.09973724308155E-10  1.75528308915094E-02
 cg2d: Sum(rhs),rhsMax =   6.10019437741194E-10  1.75526504915043E-02
 cg2d: Sum(rhs),rhsMax =   6.10061612338342E-10  1.75524694379927E-02
 cg2d: Sum(rhs),rhsMax =   6.10101788534045E-10  1.75522877897319E-02
 cg2d: Sum(rhs),rhsMax =   6.10156217217828E-10  1.75521056072982E-02
 cg2d: Sum(rhs),rhsMax =   6.10214559437772E-10  1.75519229481387E-02
 cg2d: Sum(rhs),rhsMax =   6.10257164246342E-10  1.75517398578843E-02
 cg2d: Sum(rhs),rhsMax =   6.10294217939789E-10  1.75515563882125E-02
 cg2d: Sum(rhs),rhsMax =   6.10349465413051E-10  1.75513725741327E-02
 cg2d: Sum(rhs),rhsMax =   6.10401076905909E-10  1.75511884570417E-02
 cg2d: Sum(rhs),rhsMax =   6.10445791138226E-10  1.75510040810970E-02
 cg2d: Sum(rhs),rhsMax =   6.10485620389234E-10  1.75508195346562E-02
 cg2d: Sum(rhs),rhsMax =   6.10527031708052E-10  1.75506348612129E-02
 cg2d: Sum(rhs),rhsMax =   6.10558367752922E-10  1.75504500812240E-02
 cg2d: Sum(rhs),rhsMax =   6.10618430818555E-10  1.75502652229195E-02
 cg2d: Sum(rhs),rhsMax =   6.10668599021480E-10  1.75500803144965E-02
 cg2d: Sum(rhs),rhsMax =   6.10711189952262E-10  1.75498953811582E-02
 cg2d: Sum(rhs),rhsMax =   6.10764175346112E-10  1.75497104430035E-02
 cg2d: Sum(rhs),rhsMax =   6.10817493806870E-10  1.75495255112678E-02
 cg2d: Sum(rhs),rhsMax =   6.10867925687764E-10  1.75493406148435E-02
 cg2d: Sum(rhs),rhsMax =   6.10919342891592E-10  1.75491558016183E-02
 cg2d: Sum(rhs),rhsMax =   6.10971467862598E-10  1.75489710701571E-02
 cg2d: Sum(rhs),rhsMax =   6.11018333152025E-10  1.75487864060240E-02
 cg2d: Sum(rhs),rhsMax =   6.11084877144563E-10  1.75486017900286E-02
 cg2d: Sum(rhs),rhsMax =   6.11132602856834E-10  1.75484171973491E-02
 cg2d: Sum(rhs),rhsMax =   6.11169267972222E-10  1.75482326206404E-02
 cg2d: Sum(rhs),rhsMax =   6.11209277634472E-10  1.75480480002938E-02
 cg2d: Sum(rhs),rhsMax =   6.11253464510852E-10  1.75478632965219E-02
 cg2d: Sum(rhs),rhsMax =   6.11298595076804E-10  1.75476784631382E-02
 cg2d: Sum(rhs),rhsMax =   6.11343128897879E-10  1.75474934449713E-02
 cg2d: Sum(rhs),rhsMax =   6.11392506066899E-10  1.75473081763364E-02
 cg2d: Sum(rhs),rhsMax =   6.11433986774657E-10  1.75471225898014E-02
 cg2d: Sum(rhs),rhsMax =   6.11488859547649E-10  1.75469366136136E-02
 cg2d: Sum(rhs),rhsMax =   6.11538070183215E-10  1.75467501689838E-02
 cg2d: Sum(rhs),rhsMax =   6.11579134557338E-10  1.75465631709402E-02
 cg2d: Sum(rhs),rhsMax =   6.11623293678143E-10  1.75463755334858E-02
 cg2d: Sum(rhs),rhsMax =   6.11666439720437E-10  1.75461871649984E-02
 cg2d: Sum(rhs),rhsMax =   6.11718634080383E-10  1.75459979708211E-02
 cg2d: Sum(rhs),rhsMax =   6.11755285317983E-10  1.75458078647796E-02
 cg2d: Sum(rhs),rhsMax =   6.11799597094453E-10  1.75456167490418E-02
 cg2d: Sum(rhs),rhsMax =   6.11839037767403E-10  1.75454245259725E-02
 cg2d: Sum(rhs),rhsMax =   6.11882738921210E-10  1.75452310785684E-02
 cg2d: Sum(rhs),rhsMax =   6.11930339733391E-10  1.75450363035259E-02
 cg2d: Sum(rhs),rhsMax =   6.11973624553563E-10  1.75448401039095E-02
 cg2d: Sum(rhs),rhsMax =   6.12025763402357E-10  1.75446423705930E-02
 cg2d: Sum(rhs),rhsMax =   6.12068826177925E-10  1.75444429978132E-02
 cg2d: Sum(rhs),rhsMax =   6.12117204146223E-10  1.75442418806061E-02
 cg2d: Sum(rhs),rhsMax =   6.12149247958271E-10  1.75440389182535E-02
 cg2d: Sum(rhs),rhsMax =   6.12198750027382E-10  1.75438340141166E-02
 cg2d: Sum(rhs),rhsMax =   6.12227796237264E-10  1.75436270703605E-02
 cg2d: Sum(rhs),rhsMax =   6.12286832346598E-10  1.75434179972249E-02
 cg2d: Sum(rhs),rhsMax =   6.12328798776929E-10  1.75432067018809E-02
 cg2d: Sum(rhs),rhsMax =   6.12373318720216E-10  1.75429930967891E-02
 cg2d: Sum(rhs),rhsMax =   6.12418740719711E-10  1.75427771615356E-02
 cg2d: Sum(rhs),rhsMax =   6.12457612403361E-10  1.75425587799116E-02
 cg2d: Sum(rhs),rhsMax =   6.12514539088949E-10  1.75423378960885E-02
 cg2d: Sum(rhs),rhsMax =   6.12563375024244E-10  1.75421144606797E-02
 cg2d: Sum(rhs),rhsMax =   6.12617595541209E-10  1.75418884302294E-02
 cg2d: Sum(rhs),rhsMax =   6.12660130960840E-10  1.75416597595937E-02
 cg2d: Sum(rhs),rhsMax =   6.12713338399296E-10  1.75414284182325E-02
 cg2d: Sum(rhs),rhsMax =   6.12760925333689E-10  1.75411943784904E-02
 cg2d: Sum(rhs),rhsMax =   6.12808193078962E-10  1.75409576263451E-02
 cg2d: Sum(rhs),rhsMax =   6.12851880354981E-10  1.75407181533304E-02
 cg2d: Sum(rhs),rhsMax =   6.12911277286798E-10  1.75404759620718E-02
 cg2d: Sum(rhs),rhsMax =   6.12964429214102E-10  1.75402310626193E-02
 cg2d: Sum(rhs),rhsMax =   6.13011363892468E-10  1.75399834762590E-02
 cg2d: Sum(rhs),rhsMax =   6.13054398912460E-10  1.75397332309744E-02
 cg2d: Sum(rhs),rhsMax =   6.13106135305408E-10  1.75394803657506E-02
 cg2d: Sum(rhs),rhsMax =   6.13146394767838E-10  1.75392249292759E-02
 cg2d: Sum(rhs),rhsMax =   6.13191969422999E-10  1.75389669777403E-02
 cg2d: Sum(rhs),rhsMax =   6.13237946534007E-10  1.75387065780526E-02
 cg2d: Sum(rhs),rhsMax =   6.13302977847674E-10  1.75384438060636E-02
 cg2d: Sum(rhs),rhsMax =   6.13339823374304E-10  1.75381787476478E-02
 cg2d: Sum(rhs),rhsMax =   6.13397069249011E-10  1.75379114974607E-02
 cg2d: Sum(rhs),rhsMax =   6.13451525688369E-10  1.75376421587271E-02
 cg2d: Sum(rhs),rhsMax =   6.13499584467547E-10  1.75373708425409E-02
 cg2d: Sum(rhs),rhsMax =   6.13564213325368E-10  1.75370976705997E-02
 cg2d: Sum(rhs),rhsMax =   6.13620765310685E-10  1.75368227712491E-02
 cg2d: Sum(rhs),rhsMax =   6.13673764582323E-10  1.75365462812075E-02
 cg2d: Sum(rhs),rhsMax =   6.13722864195587E-10  1.75362683440180E-02
 cg2d: Sum(rhs),rhsMax =   6.13775502644742E-10  1.75359891144673E-02
 cg2d: Sum(rhs),rhsMax =   6.13825698603243E-10  1.75357087533772E-02
 cg2d: Sum(rhs),rhsMax =   6.13878267663459E-10  1.75354274196792E-02
 cg2d: Sum(rhs),rhsMax =   6.13918138547831E-10  1.75351452854139E-02
 cg2d: Sum(rhs),rhsMax =   6.13981102071115E-10  1.75348625302655E-02
 cg2d: Sum(rhs),rhsMax =   6.14038958568486E-10  1.75345793295357E-02
 cg2d: Sum(rhs),rhsMax =   6.14093484396783E-10  1.75342958714331E-02
 cg2d: Sum(rhs),rhsMax =   6.14156031586433E-10  1.75340123410976E-02
 cg2d: Sum(rhs),rhsMax =   6.14205422633241E-10  1.75337289324859E-02
 cg2d: Sum(rhs),rhsMax =   6.14258935383027E-10  1.75334458371088E-02
 cg2d: Sum(rhs),rhsMax =   6.14309367263921E-10  1.75331632514036E-02
 cg2d: Sum(rhs),rhsMax =   6.14364559226033E-10  1.75328813701509E-02
 cg2d: Sum(rhs),rhsMax =   6.14419903843810E-10  1.75326003923505E-02
 cg2d: Sum(rhs),rhsMax =   6.14467685067233E-10  1.75323205127993E-02
 cg2d: Sum(rhs),rhsMax =   6.14526776687718E-10  1.75320419270939E-02
 cg2d: Sum(rhs),rhsMax =   6.14575459967348E-10  1.75317648296293E-02
 cg2d: Sum(rhs),rhsMax =   6.14634163009775E-10  1.75314894142620E-02
 cg2d: Sum(rhs),rhsMax =   6.14689021904979E-10  1.75312158651983E-02
 cg2d: Sum(rhs),rhsMax =   6.14730627512827E-10  1.75309443655360E-02
 cg2d: Sum(rhs),rhsMax =   6.14782877383924E-10  1.75306750988392E-02
 cg2d: Sum(rhs),rhsMax =   6.14841524915199E-10  1.75304082509662E-02
 cg2d: Sum(rhs),rhsMax =   6.14894524186838E-10  1.75301439921388E-02
 cg2d: Sum(rhs),rhsMax =   6.14948938992832E-10  1.75298824869548E-02
 cg2d: Sum(rhs),rhsMax =   6.14987338831696E-10  1.75296238918502E-02
 cg2d: Sum(rhs),rhsMax =   6.15041823026630E-10  1.75293683568648E-02
 cg2d: Sum(rhs),rhsMax =   6.15089451594386E-10  1.75291160256154E-02
 cg2d: Sum(rhs),rhsMax =   6.15130238412753E-10  1.75288670413614E-02
 cg2d: Sum(rhs),rhsMax =   6.15190356989537E-10  1.75286215262910E-02
 cg2d: Sum(rhs),rhsMax =   6.15245035473500E-10  1.75283795937423E-02
 cg2d: Sum(rhs),rhsMax =   6.15289333372182E-10  1.75281413527204E-02
 cg2d: Sum(rhs),rhsMax =   6.15339973419893E-10  1.75279069216197E-02
 cg2d: Sum(rhs),rhsMax =   6.15389655900245E-10  1.75276763508758E-02
 cg2d: Sum(rhs),rhsMax =   6.15443335183485E-10  1.75274497389649E-02
 cg2d: Sum(rhs),rhsMax =   6.15500692080495E-10  1.75272271609022E-02
 cg2d: Sum(rhs),rhsMax =   6.15547765536739E-10  1.75270086647515E-02
 cg2d: Sum(rhs),rhsMax =   6.15594603070591E-10  1.75267942882770E-02
 cg2d: Sum(rhs),rhsMax =   6.15626008504400E-10  1.75265840653865E-02
 cg2d: Sum(rhs),rhsMax =   6.15686293614637E-10  1.75263780170598E-02
 cg2d: Sum(rhs),rhsMax =   6.15744025211917E-10  1.75261761503495E-02
 cg2d: Sum(rhs),rhsMax =   6.15805531567482E-10  1.75259784641890E-02
 cg2d: Sum(rhs),rhsMax =   6.15849343743591E-10  1.75257849380306E-02
 cg2d: Sum(rhs),rhsMax =   6.15897652322950E-10  1.75255955463767E-02
(PID.TID 0000.0001)      cg2d_init_res =   1.29697165272352E-04
(PID.TID 0000.0001)      cg2d_iters(min,last) =      -1      39
(PID.TID 0000.0001)      cg2d_last_res =   6.40510544674191E-14
(PID.TID 0000.0001) // =======================================================
(PID.TID 0000.0001) // Begin MONITOR dynamic field statistics
(PID.TID 0000.0001) // =======================================================
(PID.TID 0000.0001) %MON time_tsnumber                =                 15552
(PID.TID 0000.0001) %MON time_secondsf                =   3.8880000000000E+05
(PID.TID 0000.0001) %MON dynstat_eta_max              =   5.3116251789667E-03
(PID.TID 0000.0001) %MON dynstat_eta_min              =  -2.6145701546059E-03
(PID.TID 0000.0001) %MON dynstat_eta_mean             =  -7.2286082691895E-14
(PID.TID 0000.0001) %MON dynstat_eta_sd               =   2.6944009890434E-03
(PID.TID 0000.0001) %MON dynstat_eta_del2             =   2.2549944686337E-05
(PID.TID 0000.0001) %MON dynstat_uvel_max             =   4.6663727679224E-02
(PID.TID 0000.0001) %MON dynstat_uvel_min             =  -3.8256301081296E-02
(PID.TID 0000.0001) %MON dynstat_uvel_mean            =   7.2772970845748E-09
(PID.TID 0000.0001) %MON dynstat_uvel_sd              =   6.2896126168444E-03
(PID.TID 0000.0001) %MON dynstat_uvel_del2            =   1.0265010949125E-04
(PID.TID 0000.0001) %MON dynstat_vvel_max             =   2.2796080943469E-02
(PID.TID 0000.0001) %MON dynstat_vvel_min             =  -3.2398527767571E-02
(PID.TID 0000.0001) %MON dynstat_vvel_mean            =  -8.0919744916897E-03
(PID.TID 0000.0001) %MON dynstat_vvel_sd              =   1.1459609854013E-02
(PID.TID 0000.0001) %MON dynstat_vvel_del2            =   9.2260944059864E-05
(PID.TID 0000.0001) %MON dynstat_wvel_max             =   1.4178193292745E-03
(PID.TID 0000.0001) %MON dynstat_wvel_min             =  -1.0701252272127E-03
(PID.TID 0000.0001) %MON dynstat_wvel_mean            =  -6.9154989972735E-21
(PID.TID 0000.0001) %MON dynstat_wvel_sd              =   1.2500931826855E-04
(PID.TID 0000.0001) %MON dynstat_wvel_del2            =   6.2570208693352E-06
(PID.TID 0000.0001) %MON dynstat_theta_max            =   2.6931451612903E+00
(PID.TID 0000.0001) %MON dynstat_theta_min            =  -5.1086724491366E-01
(PID.TID 0000.0001) %MON dynstat_theta_mean           =   2.2270542544553E+00
(PID.TID 0000.0001) %MON dynstat_theta_sd             =   5.0858800947191E-01
(PID.TID 0000.0001) %MON dynstat_theta_del2           =   1.5571621357762E-03
(PID.TID 0000.0001) %MON dynstat_salt_max             =   3.4699999999999E+01
(PID.TID 0000.0001) %MON dynstat_salt_min             =   3.3018071596064E+01
(PID.TID 0000.0001) %MON dynstat_salt_mean            =   3.4364240256046E+01
(PID.TID 0000.0001) %MON dynstat_salt_sd              =   3.2237127273806E-01
(PID.TID 0000.0001) %MON dynstat_salt_del2            =   1.9902613056647E-04
(PID.TID 0000.0001) %MON advcfl_uvel_max              =   2.3331863839612E-03
(PID.TID 0000.0001) %MON advcfl_vvel_max              =   1.6199263883785E-03
(PID.TID 0000.0001) %MON advcfl_wvel_max              =   6.5186042087878E-04
(PID.TID 0000.0001) %MON advcfl_W_hf_max              =   1.4549009715484E-03
(PID.TID 0000.0001) %MON pe_b_mean                    =   6.0571611876395E-08
(PID.TID 0000.0001) %MON ke_max                       =   1.0195534950357E-03
(PID.TID 0000.0001) %MON ke_mean                      =   1.0822163279609E-04
(PID.TID 0000.0001) %MON ke_vol                       =   3.2921708585402E+10
(PID.TID 0000.0001) // =======================================================
(PID.TID 0000.0001) // End MONITOR dynamic field statistics
(PID.TID 0000.0001) // =======================================================
(PID.TID 0000.0001) // =======================================================
(PID.TID 0000.0001) // Begin OBCS MONITOR field statistics
(PID.TID 0000.0001) // =======================================================
(PID.TID 0000.0001) %MON obc_E_uVel_max               =   0.0000000000000E+00
(PID.TID 0000.0001) %MON obc_E_uVel_min               =   0.0000000000000E+00
(PID.TID 0000.0001) %MON obc_E_uVel_mean              =   0.0000000000000E+00
(PID.TID 0000.0001) %MON obc_E_uVel_sd                =   0.0000000000000E+00
(PID.TID 0000.0001) %MON obc_E_uVel_Int               =   0.0000000000000E+00
(PID.TID 0000.0001) %MON obc_N_vVel_max               =  -3.6115799844846E-05
(PID.TID 0000.0001) %MON obc_N_vVel_min               =  -3.0000000000000E-02
(PID.TID 0000.0001) %MON obc_N_vVel_mean              =  -1.3225455303334E-02
(PID.TID 0000.0001) %MON obc_N_vVel_sd                =   1.1350864292742E-02
(PID.TID 0000.0001) %MON obc_N_vVel_Int               =  -5.9514548865004E+04
(PID.TID 0000.0001) %MON obc_S_vVel_max               =  -3.6115799844846E-05
(PID.TID 0000.0001) %MON obc_S_vVel_min               =  -3.0000000000000E-02
(PID.TID 0000.0001) %MON obc_S_vVel_mean              =  -1.3225455303334E-02
(PID.TID 0000.0001) %MON obc_S_vVel_sd                =   1.1350864292742E-02
(PID.TID 0000.0001) %MON obc_S_vVel_Int               =  -5.9514548865004E+04
(PID.TID 0000.0001) // =======================================================
(PID.TID 0000.0001) // End OBCS MONITOR field statistics
(PID.TID 0000.0001) // =======================================================
 Computing Diagnostic #    26 "THETA   " (list#  1) Parms "SMR     MR      ", Count=     144
 Computing Diagnostic #    27 "SALT    " (list#  1) Parms "SMR     MR      ", Count=     144
 Computing Diagnostic #    30 "UVEL    " (list#  1) Parms "UUR     MR      ", Count=     144
             Vector  Mate for "UVEL    " :  Diagnostic #     31 "VVEL    " exists
 Computing Diagnostic #    32 "WVEL    " (list#  1) Parms "WM      LR      ", Count=     144
 Computing Diagnostic #    31 "VVEL    " (list#  1) Parms "VVR     MR      ", Count=     144
             Vector  Mate for "VVEL    " :  Diagnostic #     30 "UVEL    " exists
 Computing Diagnostic #   197 "BRGfwFlx" (list#  2) Parms "SM      MR      ", Count=     144
 Computing Diagnostic #   198 "BRGhtFlx" (list#  2) Parms "SM      MR      ", Count=     144
 Computing Diagnostic #   199 "BRGmltRt" (list#  2) Parms "SM      MR      ", Count=     144
 Computing Diagnostic #   201 "BRG_TauX" (list#  2) Parms "UU      MR      ", Count=    1728
 Computing Diagnostic #   202 "BRG_TauY" (list#  2) Parms "VV      MR      ", Count=    1728
 Computing Diagnostic #   203 "BRGhFacC" (list#  2) Parms "SM      MR      ", Count=    1728
 cg2d: Sum(rhs),rhsMax =   6.15952108762308E-10  1.75254102462942E-02
 cg2d: Sum(rhs),rhsMax =   6.15990827790291E-10  1.75252289877428E-02
 cg2d: Sum(rhs),rhsMax =   6.16037318379448E-10  1.75250517064928E-02
 cg2d: Sum(rhs),rhsMax =   6.16090636840205E-10  1.75248783273250E-02
 cg2d: Sum(rhs),rhsMax =   6.16142387110941E-10  1.75247087619321E-02
 cg2d: Sum(rhs),rhsMax =   6.16189987923121E-10  1.75245429138470E-02
 cg2d: Sum(rhs),rhsMax =   6.16233675199140E-10  1.75243806762236E-02
 cg2d: Sum(rhs),rhsMax =   6.16286036092539E-10  1.75242219286408E-02
 cg2d: Sum(rhs),rhsMax =   6.16335912861921E-10  1.75240665413378E-02
 cg2d: Sum(rhs),rhsMax =   6.16366180317129E-10  1.75239143771791E-02
 cg2d: Sum(rhs),rhsMax =   6.16417639154321E-10  1.75237652864875E-02
 cg2d: Sum(rhs),rhsMax =   6.16449113977069E-10  1.75236191121370E-02
 cg2d: Sum(rhs),rhsMax =   6.16499004624238E-10  1.75234756905520E-02
 cg2d: Sum(rhs),rhsMax =   6.16541789844050E-10  1.75233348459233E-02
 cg2d: Sum(rhs),rhsMax =   6.16592429891760E-10  1.75231963991323E-02
 cg2d: Sum(rhs),rhsMax =   6.16638115569224E-10  1.75230601632085E-02
 cg2d: Sum(rhs),rhsMax =   6.16691711585737E-10  1.75229259419150E-02
 cg2d: Sum(rhs),rhsMax =   6.16741338554938E-10  1.75227935385958E-02
 cg2d: Sum(rhs),rhsMax =   6.16783027429513E-10  1.75226627487072E-02
 cg2d: Sum(rhs),rhsMax =   6.16836554057087E-10  1.75225333624013E-02
 cg2d: Sum(rhs),rhsMax =   6.16873357950354E-10  1.75224051691888E-02
 cg2d: Sum(rhs),rhsMax =   6.16920667328991E-10  1.75222779531841E-02
 cg2d: Sum(rhs),rhsMax =   6.16947076759189E-10  1.75221514966775E-02
 cg2d: Sum(rhs),rhsMax =   6.16999826230646E-10  1.75220255798966E-02
 cg2d: Sum(rhs),rhsMax =   6.17045664563776E-10  1.75218999831452E-02
 cg2d: Sum(rhs),rhsMax =   6.17103243505390E-10  1.75217744853477E-02
 cg2d: Sum(rhs),rhsMax =   6.17156034610211E-10  1.75216488659878E-02
 cg2d: Sum(rhs),rhsMax =   6.17200721086952E-10  1.75215229048264E-02
 cg2d: Sum(rhs),rhsMax =   6.17237122524372E-10  1.75213963849882E-02
 cg2d: Sum(rhs),rhsMax =   6.17290232818313E-10  1.75212690891670E-02
 cg2d: Sum(rhs),rhsMax =   6.17324663609864E-10  1.75211408054230E-02
 cg2d: Sum(rhs),rhsMax =   6.17372875044708E-10  1.75210113243247E-02
 cg2d: Sum(rhs),rhsMax =   6.17421225257431E-10  1.75208804401601E-02
 cg2d: Sum(rhs),rhsMax =   6.17453851936567E-10  1.75207479531969E-02
 cg2d: Sum(rhs),rhsMax =   6.17499718025272E-10  1.75206136653089E-02
 cg2d: Sum(rhs),rhsMax =   6.17542447733932E-10  1.75204773879054E-02
 cg2d: Sum(rhs),rhsMax =   6.17585996232073E-10  1.75203389391426E-02
 cg2d: Sum(rhs),rhsMax =   6.17633374999649E-10  1.75201981403562E-02
 cg2d: Sum(rhs),rhsMax =   6.17686748971558E-10  1.75200548211449E-02
 cg2d: Sum(rhs),rhsMax =   6.17736556352000E-10  1.75199088228360E-02
 cg2d: Sum(rhs),rhsMax =   6.17780382405897E-10  1.75197599878518E-02
 cg2d: Sum(rhs),rhsMax =   6.17833867400108E-10  1.75196081712955E-02
 cg2d: Sum(rhs),rhsMax =   6.17879719611025E-10  1.75194532370114E-02
 cg2d: Sum(rhs),rhsMax =   6.17935966285010E-10  1.75192950563541E-02
 cg2d: Sum(rhs),rhsMax =   6.17998235918904E-10  1.75191335118420E-02
 cg2d: Sum(rhs),rhsMax =   6.18040382760476E-10  1.75189684912957E-02
 cg2d: Sum(rhs),rhsMax =   6.18090870152521E-10  1.75187998980026E-02
 cg2d: Sum(rhs),rhsMax =   6.18136361540955E-10  1.75186276404254E-02
 cg2d: Sum(rhs),rhsMax =   6.18189652246137E-10  1.75184516390784E-02
 cg2d: Sum(rhs),rhsMax =   6.18234102800486E-10  1.75182718226112E-02
 cg2d: Sum(rhs),rhsMax =   6.18278941932893E-10  1.75180881321519E-02
 cg2d: Sum(rhs),rhsMax =   6.18330872614870E-10  1.75179005182934E-02
 cg2d: Sum(rhs),rhsMax =   6.18369827565246E-10  1.75177089396925E-02
 cg2d: Sum(rhs),rhsMax =   6.18419551678961E-10  1.75175133653777E-02
 cg2d: Sum(rhs),rhsMax =   6.18462503432227E-10  1.75173137769079E-02
 cg2d: Sum(rhs),rhsMax =   6.18510895278312E-10  1.75171101609230E-02
 cg2d: Sum(rhs),rhsMax =   6.18555762166295E-10  1.75169025173310E-02
 cg2d: Sum(rhs),rhsMax =   6.18592510548410E-10  1.75166908509779E-02
 cg2d: Sum(rhs),rhsMax =   6.18639278693323E-10  1.75164751800409E-02
 cg2d: Sum(rhs),rhsMax =   6.18690224052365E-10  1.75162555285797E-02
 cg2d: Sum(rhs),rhsMax =   6.18732357016150E-10  1.75160319331761E-02
 cg2d: Sum(rhs),rhsMax =   6.18791823336906E-10  1.75158044336164E-02
 cg2d: Sum(rhs),rhsMax =   6.18832693422000E-10  1.75155730768015E-02
 cg2d: Sum(rhs),rhsMax =   6.18873841062850E-10  1.75153379225995E-02
 cg2d: Sum(rhs),rhsMax =   6.18917014860720E-10  1.75150990323883E-02
 cg2d: Sum(rhs),rhsMax =   6.18965517729109E-10  1.75148564764355E-02
 cg2d: Sum(rhs),rhsMax =   6.19006651492171E-10  1.75146103277040E-02
 cg2d: Sum(rhs),rhsMax =   6.19053835970718E-10  1.75143606707415E-02
 cg2d: Sum(rhs),rhsMax =   6.19103421306555E-10  1.75141075893446E-02
 cg2d: Sum(rhs),rhsMax =   6.19148399216840E-10  1.75138511745564E-02
 cg2d: Sum(rhs),rhsMax =   6.19186618644463E-10  1.75135915203596E-02
 cg2d: Sum(rhs),rhsMax =   6.19241088961608E-10  1.75133287265712E-02
 cg2d: Sum(rhs),rhsMax =   6.19301859794419E-10  1.75130628903798E-02
 cg2d: Sum(rhs),rhsMax =   6.19363893505920E-10  1.75127941207169E-02
 cg2d: Sum(rhs),rhsMax =   6.19424608827579E-10  1.75125225205040E-02
 cg2d: Sum(rhs),rhsMax =   6.19470100216013E-10  1.75122481944457E-02
 cg2d: Sum(rhs),rhsMax =   6.19520296174514E-10  1.75119712494866E-02
 cg2d: Sum(rhs),rhsMax =   6.19565856951887E-10  1.75116917956028E-02
 cg2d: Sum(rhs),rhsMax =   6.19618231723074E-10  1.75114099405138E-02
 cg2d: Sum(rhs),rhsMax =   6.19664208834081E-10  1.75111257943365E-02
 cg2d: Sum(rhs),rhsMax =   6.19720705308247E-10  1.75108394596454E-02
 cg2d: Sum(rhs),rhsMax =   6.19765877507561E-10  1.75105510443120E-02
 cg2d: Sum(rhs),rhsMax =   6.19815865299245E-10  1.75102606492620E-02
 cg2d: Sum(rhs),rhsMax =   6.19873638529889E-10  1.75099683760168E-02
 cg2d: Sum(rhs),rhsMax =   6.19912357557872E-10  1.75096743219961E-02
 cg2d: Sum(rhs),rhsMax =   6.19945428326218E-10  1.75101264084017E-02
 cg2d: Sum(rhs),rhsMax =   6.19966036841113E-10  1.75109169661072E-02
 cg2d: Sum(rhs),rhsMax =   6.19975432103459E-10  1.75116968712069E-02
 cg2d: Sum(rhs),rhsMax =   6.19989878880567E-10  1.75124561205992E-02
 cg2d: Sum(rhs),rhsMax =   6.20012069463272E-10  1.75131959578025E-02
 cg2d: Sum(rhs),rhsMax =   6.20027779119070E-10  1.75139122938282E-02
 cg2d: Sum(rhs),rhsMax =   6.20034065756947E-10  1.75146006416694E-02
 cg2d: Sum(rhs),rhsMax =   6.20043918986291E-10  1.75152567324122E-02
 cg2d: Sum(rhs),rhsMax =   6.20055479183534E-10  1.75158764725064E-02
 cg2d: Sum(rhs),rhsMax =   6.20069731671613E-10  1.75164559448775E-02
 cg2d: Sum(rhs),rhsMax =   6.20090673253415E-10  1.75169914153821E-02
 cg2d: Sum(rhs),rhsMax =   6.20118165151062E-10  1.75174793509434E-02
 cg2d: Sum(rhs),rhsMax =   6.20150444885503E-10  1.75179164309060E-02
 cg2d: Sum(rhs),rhsMax =   6.20181975219403E-10  1.75182995592874E-02
 cg2d: Sum(rhs),rhsMax =   6.20206150325764E-10  1.75186259095120E-02
 cg2d: Sum(rhs),rhsMax =   6.20230283798762E-10  1.75188927652966E-02
 cg2d: Sum(rhs),rhsMax =   6.20268975071170E-10  1.75190978260378E-02
 cg2d: Sum(rhs),rhsMax =   6.20303489129448E-10  1.75192390019344E-02
 cg2d: Sum(rhs),rhsMax =   6.20343804103030E-10  1.75193144364853E-02
 cg2d: Sum(rhs),rhsMax =   6.20389531413856E-10  1.75193225504114E-02
 cg2d: Sum(rhs),rhsMax =   6.20431470088612E-10  1.75192620503296E-02
 cg2d: Sum(rhs),rhsMax =   6.20476517387836E-10  1.75191319179905E-02
 cg2d: Sum(rhs),rhsMax =   6.20522536132206E-10  1.75189314134996E-02
 cg2d: Sum(rhs),rhsMax =   6.20568638143304E-10  1.75186600745500E-02
 cg2d: Sum(rhs),rhsMax =   6.20617002233814E-10  1.75183177139347E-02
 cg2d: Sum(rhs),rhsMax =   6.20691387176464E-10  1.75179044194592E-02
 cg2d: Sum(rhs),rhsMax =   6.20740875367787E-10  1.75174205521053E-02
 cg2d: Sum(rhs),rhsMax =   6.20793527694730E-10  1.75168667398732E-02
 cg2d: Sum(rhs),rhsMax =   6.20860737821083E-10  1.75162438725239E-02
 cg2d: Sum(rhs),rhsMax =   6.20921425387166E-10  1.75155530977164E-02
 cg2d: Sum(rhs),rhsMax =   6.20984888510812E-10  1.75147958122676E-02
 cg2d: Sum(rhs),rhsMax =   6.21068169115446E-10  1.75139736519788E-02
 cg2d: Sum(rhs),rhsMax =   6.21154724878004E-10  1.75130884860940E-02
 cg2d: Sum(rhs),rhsMax =   6.21226403652031E-10  1.75121424051545E-02
 cg2d: Sum(rhs),rhsMax =   6.21310183857027E-10  1.75111432787819E-02
 cg2d: Sum(rhs),rhsMax =   6.21392812205634E-10  1.75100862086060E-02
 cg2d: Sum(rhs),rhsMax =   6.21475787498937E-10  1.75089774712794E-02
 cg2d: Sum(rhs),rhsMax =   6.21553697399690E-10  1.75078163083966E-02
 cg2d: Sum(rhs),rhsMax =   6.21634757558276E-10  1.75066093365054E-02
 cg2d: Sum(rhs),rhsMax =   6.21721812921194E-10  1.75053560839839E-02
 cg2d: Sum(rhs),rhsMax =   6.21813031620455E-10  1.75040634548066E-02
 cg2d: Sum(rhs),rhsMax =   6.21897103258995E-10  1.75027312351056E-02
 cg2d: Sum(rhs),rhsMax =   6.21977122583495E-10  1.75013665482829E-02
 cg2d: Sum(rhs),rhsMax =   6.22053533683165E-10  1.74999693779747E-02
 cg2d: Sum(rhs),rhsMax =   6.22143225825766E-10  1.74985470090494E-02
 cg2d: Sum(rhs),rhsMax =   6.22244394898885E-10  1.74970995584056E-02
 cg2d: Sum(rhs),rhsMax =   6.22339735301125E-10  1.74956344130723E-02
 cg2d: Sum(rhs),rhsMax =   6.22429677243908E-10  1.74941517636083E-02
 cg2d: Sum(rhs),rhsMax =   6.22524323756757E-10  1.74926590354638E-02
 cg2d: Sum(rhs),rhsMax =   6.22624715673759E-10  1.74911564357155E-02
 cg2d: Sum(rhs),rhsMax =   6.22707982400605E-10  1.74896513690345E-02
 cg2d: Sum(rhs),rhsMax =   6.22801504812642E-10  1.74881439958849E-02
 cg2d: Sum(rhs),rhsMax =   6.22901466518222E-10  1.74866416515028E-02
 cg2d: Sum(rhs),rhsMax =   6.22990312115768E-10  1.74851443890989E-02
 cg2d: Sum(rhs),rhsMax =   6.23088941553718E-10  1.74836594012248E-02
 cg2d: Sum(rhs),rhsMax =   6.23184989723136E-10  1.74821865969930E-02
 cg2d: Sum(rhs),rhsMax =   6.23272586319779E-10  1.74807329789314E-02
 cg2d: Sum(rhs),rhsMax =   6.23366899765720E-10  1.74792982477811E-02
 cg2d: Sum(rhs),rhsMax =   6.23472717897755E-10  1.74778891760357E-02
 Computing Diagnostic #    26 "THETA   " (list#  1) Parms "SMR     MR      ", Count=     144
 Computing Diagnostic #    27 "SALT    " (list#  1) Parms "SMR     MR      ", Count=     144
 Computing Diagnostic #    30 "UVEL    " (list#  1) Parms "UUR     MR      ", Count=     144
             Vector  Mate for "UVEL    " :  Diagnostic #     31 "VVEL    " exists
 Computing Diagnostic #    32 "WVEL    " (list#  1) Parms "WM      LR      ", Count=     144
 Computing Diagnostic #    31 "VVEL    " (list#  1) Parms "VVR     MR      ", Count=     144
             Vector  Mate for "VVEL    " :  Diagnostic #     30 "UVEL    " exists
 Computing Diagnostic #   197 "BRGfwFlx" (list#  2) Parms "SM      MR      ", Count=     144
 Computing Diagnostic #   198 "BRGhtFlx" (list#  2) Parms "SM      MR      ", Count=     144
 Computing Diagnostic #   199 "BRGmltRt" (list#  2) Parms "SM      MR      ", Count=     144
 Computing Diagnostic #   201 "BRG_TauX" (list#  2) Parms "UU      MR      ", Count=    1728
 Computing Diagnostic #   202 "BRG_TauY" (list#  2) Parms "VV      MR      ", Count=    1728
 Computing Diagnostic #   203 "BRGhFacC" (list#  2) Parms "SM      MR      ", Count=    1728
 cg2d: Sum(rhs),rhsMax =   6.23562840251779E-10  1.74765052106092E-02
 cg2d: Sum(rhs),rhsMax =   6.23647744557587E-10  1.74751528498227E-02
 cg2d: Sum(rhs),rhsMax =   6.23736409743891E-10  1.74738313964455E-02
 cg2d: Sum(rhs),rhsMax =   6.23823104284327E-10  1.74725468951858E-02
 cg2d: Sum(rhs),rhsMax =   6.23908869012979E-10  1.74712981738979E-02
 cg2d: Sum(rhs),rhsMax =   6.23996784798742E-10  1.74700910783806E-02
 cg2d: Sum(rhs),rhsMax =   6.24080190303467E-10  1.74689241000867E-02
 cg2d: Sum(rhs),rhsMax =   6.24149204542235E-10  1.74678027182854E-02
 cg2d: Sum(rhs),rhsMax =   6.24216608957617E-10  1.74667250556123E-02
 cg2d: Sum(rhs),rhsMax =   6.24290022455121E-10  1.74656962111494E-02
 cg2d: Sum(rhs),rhsMax =   6.24369611568198E-10  1.74647139275215E-02
 cg2d: Sum(rhs),rhsMax =   6.24441040542045E-10  1.74637829168476E-02
 cg2d: Sum(rhs),rhsMax =   6.24509111091243E-10  1.74629005352533E-02
 cg2d: Sum(rhs),rhsMax =   6.24602314314160E-10  1.74620711042833E-02
 cg2d: Sum(rhs),rhsMax =   6.24663945569814E-10  1.74612915932945E-02
 cg2d: Sum(rhs),rhsMax =   6.24729393217116E-10  1.74605659380110E-02
 cg2d: Sum(rhs),rhsMax =   6.24801821391685E-10  1.74598907319449E-02
 cg2d: Sum(rhs),rhsMax =   6.24865173493028E-10  1.74592695322248E-02
 cg2d: Sum(rhs),rhsMax =   6.24922627534552E-10  1.74586985675035E-02
 cg2d: Sum(rhs),rhsMax =   6.24973600649170E-10  1.74581810365301E-02
 cg2d: Sum(rhs),rhsMax =   6.25032040013629E-10  1.74577128236605E-02
 cg2d: Sum(rhs),rhsMax =   6.25094698225581E-10  1.74572967863537E-02
 cg2d: Sum(rhs),rhsMax =   6.25145463173382E-10  1.74569284892176E-02
 cg2d: Sum(rhs),rhsMax =   6.25198989800957E-10  1.74566104791574E-02
 cg2d: Sum(rhs),rhsMax =   6.25250198837968E-10  1.74563380279712E-02
 cg2d: Sum(rhs),rhsMax =   6.25290430544823E-10  1.74561134001020E-02
 cg2d: Sum(rhs),rhsMax =   6.25324930725313E-10  1.74559316092709E-02
 cg2d: Sum(rhs),rhsMax =   6.25367743700700E-10  1.74557946723522E-02
 cg2d: Sum(rhs),rhsMax =   6.25404283915998E-10  1.74556973794377E-02
 cg2d: Sum(rhs),rhsMax =   6.25439769419422E-10  1.74556415362430E-02
 cg2d: Sum(rhs),rhsMax =   6.25484622429617E-10  1.74556217449188E-02
 cg2d: Sum(rhs),rhsMax =   6.25508589369161E-10  1.74556396429513E-02
 cg2d: Sum(rhs),rhsMax =   6.25543089549652E-10  1.74556896839082E-02
 cg2d: Sum(rhs),rhsMax =   6.25588331137905E-10  1.74557733736956E-02
 cg2d: Sum(rhs),rhsMax =   6.25615600990947E-10  1.74558850594917E-02
 cg2d: Sum(rhs),rhsMax =   6.25644466789588E-10  1.74560261550721E-02
 cg2d: Sum(rhs),rhsMax =   6.25679702492832E-10  1.74561909412357E-02
 cg2d: Sum(rhs),rhsMax =   6.25720933400409E-10  1.74563807820254E-02
 cg2d: Sum(rhs),rhsMax =   6.25759624672817E-10  1.74565899287596E-02
 cg2d: Sum(rhs),rhsMax =   6.25796359177144E-10  1.74568197336263E-02
 cg2d: Sum(rhs),rhsMax =   6.25811666377096E-10  1.74570644604053E-02
 cg2d: Sum(rhs),rhsMax =   6.25838353363051E-10  1.74573254836613E-02
 cg2d: Sum(rhs),rhsMax =   6.25874713167107E-10  1.74575971179707E-02
 cg2d: Sum(rhs),rhsMax =   6.25902996098660E-10  1.74578807996288E-02
 cg2d: Sum(rhs),rhsMax =   6.25932389253236E-10  1.74581709363745E-02
 cg2d: Sum(rhs),rhsMax =   6.25942700449578E-10  1.74584690399515E-02
 cg2d: Sum(rhs),rhsMax =   6.25983417879006E-10  1.74587695968104E-02
 cg2d: Sum(rhs),rhsMax =   6.26025217775883E-10  1.74590742606481E-02
 cg2d: Sum(rhs),rhsMax =   6.26052543140077E-10  1.74593776762521E-02
 cg2d: Sum(rhs),rhsMax =   6.26079674215241E-10  1.74596816318297E-02
 cg2d: Sum(rhs),rhsMax =   6.26106000378712E-10  1.74599809300463E-02
 cg2d: Sum(rhs),rhsMax =   6.26120502666971E-10  1.74602775266117E-02
 cg2d: Sum(rhs),rhsMax =   6.26149077032068E-10  1.74605664024343E-02
 cg2d: Sum(rhs),rhsMax =   6.26178844886915E-10  1.74608496944919E-02
 cg2d: Sum(rhs),rhsMax =   6.26216092869392E-10  1.74611230370247E-02
 cg2d: Sum(rhs),rhsMax =   6.26245666435210E-10  1.74613882936384E-02
 cg2d: Sum(rhs),rhsMax =   6.26272173009923E-10  1.74616408337750E-02
 cg2d: Sum(rhs),rhsMax =   6.26309337725672E-10  1.74618831833326E-02
 cg2d: Sum(rhs),rhsMax =   6.26333318543004E-10  1.74621109223347E-02
 cg2d: Sum(rhs),rhsMax =   6.26369053846609E-10  1.74623267832672E-02
 cg2d: Sum(rhs),rhsMax =   6.26404914050305E-10  1.74625265582427E-02
 cg2d: Sum(rhs),rhsMax =   6.26443660833864E-10  1.74627131866655E-02
 cg2d: Sum(rhs),rhsMax =   6.26475260556703E-10  1.74628826683557E-02
 cg2d: Sum(rhs),rhsMax =   6.26505444745185E-10  1.74630381491289E-02
 cg2d: Sum(rhs),rhsMax =   6.26543414372627E-10  1.74631758308468E-02
 cg2d: Sum(rhs),rhsMax =   6.26576707185578E-10  1.74632990543423E-02
 cg2d: Sum(rhs),rhsMax =   6.26613691490086E-10  1.74634042196749E-02
 cg2d: Sum(rhs),rhsMax =   6.26649149237934E-10  1.74634948479486E-02
 cg2d: Sum(rhs),rhsMax =   6.26699400707587E-10  1.74635675220248E-02
 cg2d: Sum(rhs),rhsMax =   6.26730153885369E-10  1.74636259349275E-02
 cg2d: Sum(rhs),rhsMax =   6.26770968459311E-10  1.74636668364398E-02
 cg2d: Sum(rhs),rhsMax =   6.26808951964541E-10  1.74636940731684E-02
 cg2d: Sum(rhs),rhsMax =   6.26846866080832E-10  1.74637045472719E-02
 cg2d: Sum(rhs),rhsMax =   6.26882046272925E-10  1.74637022389100E-02
 cg2d: Sum(rhs),rhsMax =   6.26923124524836E-10  1.74636841802291E-02
 cg2d: Sum(rhs),rhsMax =   6.26968213457424E-10  1.74636544712979E-02
 cg2d: Sum(rhs),rhsMax =   6.26996787822520E-10  1.74636102526771E-02
 cg2d: Sum(rhs),rhsMax =   6.27031149225132E-10  1.74635557194298E-02
 cg2d: Sum(rhs),rhsMax =   6.27060944835556E-10  1.74634881015384E-02
 cg2d: Sum(rhs),rhsMax =   6.27101301442501E-10  1.74634116673483E-02
 cg2d: Sum(rhs),rhsMax =   6.27153315391205E-10  1.74633237137261E-02
 cg2d: Sum(rhs),rhsMax =   6.27213544990290E-10  1.74632285595080E-02
 cg2d: Sum(rhs),rhsMax =   6.27252708107484E-10  1.74631235481031E-02
 cg2d: Sum(rhs),rhsMax =   6.27301141586933E-10  1.74630130273573E-02
 cg2d: Sum(rhs),rhsMax =   6.27349283632839E-10  1.74628943614073E-02
 cg2d: Sum(rhs),rhsMax =   6.27383478501997E-10  1.74627719106022E-02
 cg2d: Sum(rhs),rhsMax =   6.27432911182169E-10  1.74626430423554E-02
 cg2d: Sum(rhs),rhsMax =   6.27479443404688E-10  1.74625121008588E-02
 cg2d: Sum(rhs),rhsMax =   6.27528390362286E-10  1.74623764402715E-02
 cg2d: Sum(rhs),rhsMax =   6.27569204936229E-10  1.74622403714673E-02
 cg2d: Sum(rhs),rhsMax =   6.27612697923219E-10  1.74621012110976E-02
 cg2d: Sum(rhs),rhsMax =   6.27664503705105E-10  1.74619632246224E-02
 cg2d: Sum(rhs),rhsMax =   6.27711577161350E-10  1.74618236774523E-02
 cg2d: Sum(rhs),rhsMax =   6.27749865977911E-10  1.74616867695124E-02
 cg2d: Sum(rhs),rhsMax =   6.27789750740071E-10  1.74615497016879E-02
 cg2d: Sum(rhs),rhsMax =   6.27832785760063E-10  1.74614165973616E-02
 cg2d: Sum(rhs),rhsMax =   6.27866800217980E-10  1.74612845793257E-02
 cg2d: Sum(rhs),rhsMax =   6.27905741290569E-10  1.74611576814336E-02
 cg2d: Sum(rhs),rhsMax =   6.27969717892363E-10  1.74610329418909E-02
 cg2d: Sum(rhs),rhsMax =   6.28026103344226E-10  1.74609142948954E-02
 cg2d: Sum(rhs),rhsMax =   6.28070345731757E-10  1.74607986808322E-02
 cg2d: Sum(rhs),rhsMax =   6.28115184864164E-10  1.74606899350128E-02
 cg2d: Sum(rhs),rhsMax =   6.28150836901042E-10  1.74605848944087E-02
 cg2d: Sum(rhs),rhsMax =   6.28188071005731E-10  1.74604872879605E-02
 cg2d: Sum(rhs),rhsMax =   6.28231577870508E-10  1.74603938469939E-02
 cg2d: Sum(rhs),rhsMax =   6.28274321456956E-10  1.74603081910117E-02
 cg2d: Sum(rhs),rhsMax =   6.28323518214735E-10  1.74602269420107E-02
 cg2d: Sum(rhs),rhsMax =   6.28370980249038E-10  1.74601536086696E-02
 cg2d: Sum(rhs),rhsMax =   6.28413959757879E-10  1.74600847306800E-02
 cg2d: Sum(rhs),rhsMax =   6.28459562168615E-10  1.74600237135102E-02
 cg2d: Sum(rhs),rhsMax =   6.28502638821971E-10  1.74599669803841E-02
 cg2d: Sum(rhs),rhsMax =   6.28552973558349E-10  1.74599178309265E-02
 cg2d: Sum(rhs),rhsMax =   6.28586696582722E-10  1.74598725975753E-02
 cg2d: Sum(rhs),rhsMax =   6.28630356103166E-10  1.74598344889556E-02
 cg2d: Sum(rhs),rhsMax =   6.28681537384601E-10  1.74597997508755E-02
 cg2d: Sum(rhs),rhsMax =   6.28717633510689E-10  1.74597715051970E-02
 cg2d: Sum(rhs),rhsMax =   6.28751911646575E-10  1.74597459199011E-02
 cg2d: Sum(rhs),rhsMax =   6.28789534329321E-10  1.74597260367834E-02
 cg2d: Sum(rhs),rhsMax =   6.28830765236899E-10  1.74597079582116E-02
 cg2d: Sum(rhs),rhsMax =   6.28859103679602E-10  1.74596946575270E-02
 cg2d: Sum(rhs),rhsMax =   6.28912963374084E-10  1.74596821755545E-02
 cg2d: Sum(rhs),rhsMax =   6.28956053905227E-10  1.74596734323276E-02
 cg2d: Sum(rhs),rhsMax =   6.28995203144633E-10  1.74596644229135E-02
 cg2d: Sum(rhs),rhsMax =   6.29035268318034E-10  1.74596580171468E-02
 cg2d: Sum(rhs),rhsMax =   6.29085283865294E-10  1.74596501759791E-02
 cg2d: Sum(rhs),rhsMax =   6.29147858810519E-10  1.74596437382089E-02
 cg2d: Sum(rhs),rhsMax =   6.29187729694891E-10  1.74596346376612E-02
 cg2d: Sum(rhs),rhsMax =   6.29238203209148E-10  1.74596256931207E-02
 cg2d: Sum(rhs),rhsMax =   6.29292257192660E-10  1.74596128262058E-02
 cg2d: Sum(rhs),rhsMax =   6.29339372282267E-10  1.74595988431872E-02
 cg2d: Sum(rhs),rhsMax =   6.29371055271832E-10  1.74595796683192E-02
 cg2d: Sum(rhs),rhsMax =   6.29408525298913E-10  1.74595581084960E-02
 cg2d: Sum(rhs),rhsMax =   6.29456903267211E-10  1.74595300983176E-02
 cg2d: Sum(rhs),rhsMax =   6.29500701565533E-10  1.74594984539889E-02
 cg2d: Sum(rhs),rhsMax =   6.29540461427602E-10  1.74594591328084E-02
 cg2d: Sum(rhs),rhsMax =   6.29597277090888E-10  1.74594149724117E-02
 cg2d: Sum(rhs),rhsMax =   6.29642990523926E-10  1.74593620061739E-02
 cg2d: Sum(rhs),rhsMax =   6.29689370090780E-10  1.74593029100849E-02
 cg2d: Sum(rhs),rhsMax =   6.29754831615870E-10  1.74592340804842E-02
 cg2d: Sum(rhs),rhsMax =   6.29799684626065E-10  1.74591579013782E-02
 cg2d: Sum(rhs),rhsMax =   6.29842455968088E-10  1.74590710884370E-02
 cg2d: Sum(rhs),rhsMax =   6.29887975112098E-10  1.74589758224941E-02
 cg2d: Sum(rhs),rhsMax =   6.29939544971592E-10  1.74588691550769E-02
 cg2d: Sum(rhs),rhsMax =   6.29986701694563E-10  1.74587530109379E-02
 Computing Diagnostic #    26 "THETA   " (list#  1) Parms "SMR     MR      ", Count=     144
 Computing Diagnostic #    27 "SALT    " (list#  1) Parms "SMR     MR      ", Count=     144
 Computing Diagnostic #    30 "UVEL    " (list#  1) Parms "UUR     MR      ", Count=     144
             Vector  Mate for "UVEL    " :  Diagnostic #     31 "VVEL    " exists
 Computing Diagnostic #    32 "WVEL    " (list#  1) Parms "WM      LR      ", Count=     144
 Computing Diagnostic #    31 "VVEL    " (list#  1) Parms "VVR     MR      ", Count=     144
             Vector  Mate for "VVEL    " :  Diagnostic #     30 "UVEL    " exists
 Computing Diagnostic #   197 "BRGfwFlx" (list#  2) Parms "SM      MR      ", Count=     144
 Computing Diagnostic #   198 "BRGhtFlx" (list#  2) Parms "SM      MR      ", Count=     144
 Computing Diagnostic #   199 "BRGmltRt" (list#  2) Parms "SM      MR      ", Count=     144
 Computing Diagnostic #   201 "BRG_TauX" (list#  2) Parms "UU      MR      ", Count=    1728
 Computing Diagnostic #   202 "BRG_TauY" (list#  2) Parms "VV      MR      ", Count=    1728
 Computing Diagnostic #   203 "BRGhFacC" (list#  2) Parms "SM      MR      ", Count=    1728
 cg2d: Sum(rhs),rhsMax =   6.30023547221192E-10  1.74586247408671E-02
 cg2d: Sum(rhs),rhsMax =   6.30068899831748E-10  1.74584861311761E-02
 cg2d: Sum(rhs),rhsMax =   6.30123411782257E-10  1.74583347959473E-02
 cg2d: Sum(rhs),rhsMax =   6.30164115333898E-10  1.74581723990792E-02
 cg2d: Sum(rhs),rhsMax =   6.30224719633254E-10  1.74579967528593E-02
 cg2d: Sum(rhs),rhsMax =   6.30269753054691E-10  1.74578094509138E-02
 cg2d: Sum(rhs),rhsMax =   6.30308638616128E-10  1.74576085016456E-02
 cg2d: Sum(rhs),rhsMax =   6.30350244223976E-10  1.74573954642608E-02
 cg2d: Sum(rhs),rhsMax =   6.30400551204779E-10  1.74571684753890E-02
 cg2d: Sum(rhs),rhsMax =   6.30455243566530E-10  1.74569290908587E-02
 cg2d: Sum(rhs),rhsMax =   6.30510879617852E-10  1.74566755764492E-02
 cg2d: Sum(rhs),rhsMax =   6.30557051017888E-10  1.74564095084463E-02
 cg2d: Sum(rhs),rhsMax =   6.30605706541942E-10  1.74561292261023E-02
 cg2d: Sum(rhs),rhsMax =   6.30650934252408E-10  1.74558363602638E-02
 cg2d: Sum(rhs),rhsMax =   6.30691318614929E-10  1.74555293117554E-02
 cg2d: Sum(rhs),rhsMax =   6.30742735818757E-10  1.74552097641408E-02
 cg2d: Sum(rhs),rhsMax =   6.30799648626557E-10  1.74548761769968E-02
 cg2d: Sum(rhs),rhsMax =   6.30854285477156E-10  1.74545302853343E-02
 cg2d: Sum(rhs),rhsMax =   6.30905577780894E-10  1.74541705970127E-02
 cg2d: Sum(rhs),rhsMax =   6.30963628567294E-10  1.74537988995051E-02
 cg2d: Sum(rhs),rhsMax =   6.31029381525927E-10  1.74534137447352E-02
 cg2d: Sum(rhs),rhsMax =   6.31086363722666E-10  1.74530169623573E-02
 cg2d: Sum(rhs),rhsMax =   6.31140542606268E-10  1.74526071492862E-02
 cg2d: Sum(rhs),rhsMax =   6.31193194933211E-10  1.74521861717655E-02
 cg2d: Sum(rhs),rhsMax =   6.31263194494913E-10  1.74517526674046E-02
 cg2d: Sum(rhs),rhsMax =   6.31322522037792E-10  1.74513085334733E-02
 cg2d: Sum(rhs),rhsMax =   6.31387567229247E-10  1.74508524360985E-02
 cg2d: Sum(rhs),rhsMax =   6.31444507792622E-10  1.74503863003386E-02
 cg2d: Sum(rhs),rhsMax =   6.31511676285612E-10  1.74499088274955E-02
 cg2d: Sum(rhs),rhsMax =   6.31575194920408E-10  1.74494219580804E-02
 cg2d: Sum(rhs),rhsMax =   6.31632274261662E-10  1.74489244047614E-02
 cg2d: Sum(rhs),rhsMax =   6.31686522534203E-10  1.74484181374141E-02
 cg2d: Sum(rhs),rhsMax =   6.31740285084170E-10  1.74479018940568E-02
 cg2d: Sum(rhs),rhsMax =   6.31798849348719E-10  1.74473776487010E-02
 cg2d: Sum(rhs),rhsMax =   6.31860674893403E-10  1.74468441479823E-02
 cg2d: Sum(rhs),rhsMax =   6.31911953319353E-10  1.74463033761700E-02
 cg2d: Sum(rhs),rhsMax =   6.31965757502684E-10  1.74457540865569E-02
 cg2d: Sum(rhs),rhsMax =   6.32032079450617E-10  1.74451982709762E-02
 cg2d: Sum(rhs),rhsMax =   6.32097152397648E-10  1.74446346835562E-02
 cg2d: Sum(rhs),rhsMax =   6.32157881597095E-10  1.74440653142003E-02
 cg2d: Sum(rhs),rhsMax =   6.32217514451305E-10  1.74434889183315E-02
 cg2d: Sum(rhs),rhsMax =   6.32281796364431E-10  1.74429074811642E-02
 cg2d: Sum(rhs),rhsMax =   6.32333033157018E-10  1.74423197556288E-02
 cg2d: Sum(rhs),rhsMax =   6.32400506961339E-10  1.74417277201017E-02
 cg2d: Sum(rhs),rhsMax =   6.32459973282096E-10  1.74411301222314E-02
 cg2d: Sum(rhs),rhsMax =   6.32531416133730E-10  1.74405289321014E-02
 cg2d: Sum(rhs),rhsMax =   6.32591853899633E-10  1.74399228884286E-02
 cg2d: Sum(rhs),rhsMax =   6.32663893496144E-10  1.74393139493807E-02
 cg2d: Sum(rhs),rhsMax =   6.32729577065838E-10  1.74386874875200E-02
 cg2d: Sum(rhs),rhsMax =   6.32795552069076E-10  1.74379141312085E-02
 cg2d: Sum(rhs),rhsMax =   6.32852575899179E-10  1.74371331030490E-02
 cg2d: Sum(rhs),rhsMax =   6.32916843934517E-10  1.74363542302362E-02
 cg2d: Sum(rhs),rhsMax =   6.32993157889672E-10  1.74355747760266E-02
 cg2d: Sum(rhs),rhsMax =   6.33053040544063E-10  1.74347970958281E-02
 cg2d: Sum(rhs),rhsMax =   6.33126343019264E-10  1.74340205845719E-02
 cg2d: Sum(rhs),rhsMax =   6.33197785870898E-10  1.74332478071513E-02
 cg2d: Sum(rhs),rhsMax =   6.33275334949168E-10  1.74324780832225E-02
 cg2d: Sum(rhs),rhsMax =   6.33349012124640E-10  1.74317139105853E-02
 cg2d: Sum(rhs),rhsMax =   6.33419372508826E-10  1.74309545549793E-02
 cg2d: Sum(rhs),rhsMax =   6.33481447853690E-10  1.74302024465813E-02
 cg2d: Sum(rhs),rhsMax =   6.33542857064739E-10  1.74294567799897E-02
 cg2d: Sum(rhs),rhsMax =   6.33601338062562E-10  1.74287199188391E-02
 cg2d: Sum(rhs),rhsMax =   6.33671629057808E-10  1.74279909812293E-02
 cg2d: Sum(rhs),rhsMax =   6.33735897093146E-10  1.74272722509422E-02
 cg2d: Sum(rhs),rhsMax =   6.33803939886768E-10  1.74265627654832E-02
 cg2d: Sum(rhs),rhsMax =   6.33871566346755E-10  1.74258647259337E-02
 cg2d: Sum(rhs),rhsMax =   6.33959981732879E-10  1.74251770883429E-02
 cg2d: Sum(rhs),rhsMax =   6.34037503055573E-10  1.74245019606832E-02
 cg2d: Sum(rhs),rhsMax =   6.34110874919713E-10  1.74238382126636E-02
 cg2d: Sum(rhs),rhsMax =   6.34176031133471E-10  1.74231878635356E-02
 cg2d: Sum(rhs),rhsMax =   6.34235455820864E-10  1.74225496931668E-02
 cg2d: Sum(rhs),rhsMax =   6.34299945900807E-10  1.74219256274878E-02
 cg2d: Sum(rhs),rhsMax =   6.34375357799755E-10  1.74213143577057E-02
 cg2d: Sum(rhs),rhsMax =   6.34429619950083E-10  1.74207177166244E-02
 cg2d: Sum(rhs),rhsMax =   6.34505573082755E-10  1.74201343055721E-02
 cg2d: Sum(rhs),rhsMax =   6.34552757561302E-10  1.74195658682575E-02
 cg2d: Sum(rhs),rhsMax =   6.34614319428017E-10  1.74190109177039E-02
 cg2d: Sum(rhs),rhsMax =   6.34675020871889E-10  1.74184711085618E-02
 cg2d: Sum(rhs),rhsMax =   6.34730948356754E-10  1.74179448688311E-02
 cg2d: Sum(rhs),rhsMax =   6.34788985265367E-10  1.74174337705838E-02
 cg2d: Sum(rhs),rhsMax =   6.34853183911765E-10  1.74169361595136E-02
 cg2d: Sum(rhs),rhsMax =   6.34905669705255E-10  1.74164535291651E-02
 cg2d: Sum(rhs),rhsMax =   6.34964886225831E-10  1.74159841479358E-02
 cg2d: Sum(rhs),rhsMax =   6.35023075790109E-10  1.74155294357472E-02
 cg2d: Sum(rhs),rhsMax =   6.35088814870954E-10  1.74150875914790E-02
 cg2d: Sum(rhs),rhsMax =   6.35132724191578E-10  1.74146599660099E-02
 cg2d: Sum(rhs),rhsMax =   6.35200794740776E-10  1.74142446953216E-02
 cg2d: Sum(rhs),rhsMax =   6.35267019544195E-10  1.74138430685838E-02
 cg2d: Sum(rhs),rhsMax =   6.35313801566895E-10  1.74134531671826E-02
 cg2d: Sum(rhs),rhsMax =   6.35360819511988E-10  1.74130762221827E-02
 cg2d: Sum(rhs),rhsMax =   6.35414693084257E-10  1.74127102707288E-02
 cg2d: Sum(rhs),rhsMax =   6.35482264033094E-10  1.74123564953512E-02
 cg2d: Sum(rhs),rhsMax =   6.35533611847983E-10  1.74120128919335E-02
 cg2d: Sum(rhs),rhsMax =   6.35590163833299E-10  1.74116806055031E-02
 cg2d: Sum(rhs),rhsMax =   6.35655472702723E-10  1.74113576008736E-02
 cg2d: Sum(rhs),rhsMax =   6.35694122341768E-10  1.74110449921300E-02
 cg2d: Sum(rhs),rhsMax =   6.35750591060358E-10  1.74107407168870E-02
 cg2d: Sum(rhs),rhsMax =   6.35802369086669E-10  1.74104458685445E-02
 cg2d: Sum(rhs),rhsMax =   6.35861460707154E-10  1.74101583729586E-02
 cg2d: Sum(rhs),rhsMax =   6.35924160552470E-10  1.74098793025453E-02
 cg2d: Sum(rhs),rhsMax =   6.35973634866005E-10  1.74096065691083E-02
 cg2d: Sum(rhs),rhsMax =   6.36025315747801E-10  1.74093412481602E-02
 cg2d: Sum(rhs),rhsMax =   6.36088945404900E-10  1.74090812522915E-02
 cg2d: Sum(rhs),rhsMax =   6.36137351128774E-10  1.74088276551912E-02
 cg2d: Sum(rhs),rhsMax =   6.36190350400412E-10  1.74085783722319E-02
 cg2d: Sum(rhs),rhsMax =   6.36239227969071E-10  1.74083344842303E-02
 cg2d: Sum(rhs),rhsMax =   6.36299665734974E-10  1.74080939208396E-02
 cg2d: Sum(rhs),rhsMax =   6.36343588933386E-10  1.74078577754327E-02
 cg2d: Sum(rhs),rhsMax =   6.36401251141727E-10  1.74076239925943E-02
 cg2d: Sum(rhs),rhsMax =   6.36463937109255E-10  1.74073936902453E-02
 cg2d: Sum(rhs),rhsMax =   6.36504710049834E-10  1.74071648410511E-02
 cg2d: Sum(rhs),rhsMax =   6.36539279619264E-10  1.74069385788141E-02
 cg2d: Sum(rhs),rhsMax =   6.36591737657177E-10  1.74067129000924E-02
 cg2d: Sum(rhs),rhsMax =   6.36651065200056E-10  1.74064889674721E-02
 cg2d: Sum(rhs),rhsMax =   6.36689340138830E-10  1.74062648122538E-02
 cg2d: Sum(rhs),rhsMax =   6.36741784298955E-10  1.74060416282141E-02
 cg2d: Sum(rhs),rhsMax =   6.36795546848923E-10  1.74058174819330E-02
 cg2d: Sum(rhs),rhsMax =   6.36844979529094E-10  1.74055936016520E-02
 cg2d: Sum(rhs),rhsMax =   6.36882588334053E-10  1.74053680929051E-02
 cg2d: Sum(rhs),rhsMax =   6.36935823528084E-10  1.74051422202844E-02
 cg2d: Sum(rhs),rhsMax =   6.36993444103062E-10  1.74049141243644E-02
 cg2d: Sum(rhs),rhsMax =   6.37050856511223E-10  1.74046851047653E-02
 cg2d: Sum(rhs),rhsMax =   6.37096778111079E-10  1.74044533443431E-02
 cg2d: Sum(rhs),rhsMax =   6.37136565728724E-10  1.74042201799097E-02
 cg2d: Sum(rhs),rhsMax =   6.37195338160090E-10  1.74039838278641E-02
 cg2d: Sum(rhs),rhsMax =   6.37252722812676E-10  1.74037456643008E-02
 cg2d: Sum(rhs),rhsMax =   6.37298977479439E-10  1.74035039464781E-02
 cg2d: Sum(rhs),rhsMax =   6.37355140886697E-10  1.74032600856875E-02
 cg2d: Sum(rhs),rhsMax =   6.37399022451746E-10  1.74030123750912E-02
 cg2d: Sum(rhs),rhsMax =   6.37440406014989E-10  1.74027622625592E-02
 cg2d: Sum(rhs),rhsMax =   6.37491281985092E-10  1.74025080793408E-02
 cg2d: Sum(rhs),rhsMax =   6.37551830773297E-10  1.74022513027070E-02
 cg2d: Sum(rhs),rhsMax =   6.37605218622994E-10  1.74019903177872E-02
 cg2d: Sum(rhs),rhsMax =   6.37656163982037E-10  1.74017265595663E-02
 cg2d: Sum(rhs),rhsMax =   6.37707359141260E-10  1.74014585734100E-02
 cg2d: Sum(rhs),rhsMax =   6.37765354416509E-10  1.74011876629182E-02
 cg2d: Sum(rhs),rhsMax =   6.37804711822731E-10  1.74009125690911E-02
 cg2d: Sum(rhs),rhsMax =   6.37857794361096E-10  1.74006344670278E-02
 cg2d: Sum(rhs),rhsMax =   6.37906880096573E-10  1.74003522599669E-02
 cg2d: Sum(rhs),rhsMax =   6.37954786220085E-10  1.74000669999072E-02
 cg2d: Sum(rhs),rhsMax =   6.38011227183100E-10  1.73997777625824E-02
 cg2d: Sum(rhs),rhsMax =   6.38057578994378E-10  1.73994854830242E-02
 cg2d: Sum(rhs),rhsMax =   6.38116753881590E-10  1.73991893778232E-02
 cg2d: Sum(rhs),rhsMax =   6.38161370969392E-10  1.73988902679452E-02
 Computing Diagnostic #    26 "THETA   " (list#  1) Parms "SMR     MR      ", Count=     144
 Computing Diagnostic #    27 "SALT    " (list#  1) Parms "SMR     MR      ", Count=     144
 Computing Diagnostic #    30 "UVEL    " (list#  1) Parms "UUR     MR      ", Count=     144
             Vector  Mate for "UVEL    " :  Diagnostic #     31 "VVEL    " exists
 Computing Diagnostic #    32 "WVEL    " (list#  1) Parms "WM      LR      ", Count=     144
 Computing Diagnostic #    31 "VVEL    " (list#  1) Parms "VVR     MR      ", Count=     144
             Vector  Mate for "VVEL    " :  Diagnostic #     30 "UVEL    " exists
 Computing Diagnostic #   197 "BRGfwFlx" (list#  2) Parms "SM      MR      ", Count=     144
 Computing Diagnostic #   198 "BRGhtFlx" (list#  2) Parms "SM      MR      ", Count=     144
 Computing Diagnostic #   199 "BRGmltRt" (list#  2) Parms "SM      MR      ", Count=     144
 Computing Diagnostic #   201 "BRG_TauX" (list#  2) Parms "UU      MR      ", Count=    1728
 Computing Diagnostic #   202 "BRG_TauY" (list#  2) Parms "VV      MR      ", Count=    1728
 Computing Diagnostic #   203 "BRGhFacC" (list#  2) Parms "SM      MR      ", Count=    1728
 cg2d: Sum(rhs),rhsMax =   6.38208916270422E-10  1.73985875193010E-02
 cg2d: Sum(rhs),rhsMax =   6.38262831476055E-10  1.73982818455970E-02
 cg2d: Sum(rhs),rhsMax =   6.38322589230356E-10  1.73979727295344E-02
 cg2d: Sum(rhs),rhsMax =   6.38381278394995E-10  1.73976607741520E-02
 cg2d: Sum(rhs),rhsMax =   6.38430086574715E-10  1.73973456155259E-02
 cg2d: Sum(rhs),rhsMax =   6.38486083448520E-10  1.73970277452254E-02
 cg2d: Sum(rhs),rhsMax =   6.38529576435509E-10  1.73967068792280E-02
 cg2d: Sum(rhs),rhsMax =   6.38575248235185E-10  1.73963834259873E-02
 cg2d: Sum(rhs),rhsMax =   6.38623418036666E-10  1.73960572189597E-02
 cg2d: Sum(rhs),rhsMax =   6.38676153630335E-10  1.73957285671043E-02
 cg2d: Sum(rhs),rhsMax =   6.38724947932268E-10  1.73953973841958E-02
 cg2d: Sum(rhs),rhsMax =   6.38772340577631E-10  1.73950638883115E-02
 cg2d: Sum(rhs),rhsMax =   6.38825214949179E-10  1.73947280939763E-02
 cg2d: Sum(rhs),rhsMax =   6.38867306279600E-10  1.73943901361506E-02
 cg2d: Sum(rhs),rhsMax =   6.38936917263244E-10  1.73940500826099E-02
 cg2d: Sum(rhs),rhsMax =   6.38997216251269E-10  1.73937080319401E-02
 cg2d: Sum(rhs),rhsMax =   6.39051575546112E-10  1.73933640745017E-02
 cg2d: Sum(rhs),rhsMax =   6.39103256427909E-10  1.73930182898127E-02
 cg2d: Sum(rhs),rhsMax =   6.39153160952866E-10  1.73926707525166E-02
 cg2d: Sum(rhs),rhsMax =   6.39207881070192E-10  1.73923215378054E-02
 cg2d: Sum(rhs),rhsMax =   6.39264363666570E-10  1.73919707211341E-02
 cg2d: Sum(rhs),rhsMax =   6.39316280470759E-10  1.73916183732061E-02
 cg2d: Sum(rhs),rhsMax =   6.39341982133779E-10  1.73912645606500E-02
 cg2d: Sum(rhs),rhsMax =   6.39396938173498E-10  1.73909093485152E-02
 cg2d: Sum(rhs),rhsMax =   6.39447203520938E-10  1.73905527981578E-02
 cg2d: Sum(rhs),rhsMax =   6.39499037058400E-10  1.73901949690244E-02
 cg2d: Sum(rhs),rhsMax =   6.39539823876767E-10  1.73898359180705E-02
 cg2d: Sum(rhs),rhsMax =   6.39596972606959E-10  1.73894756978251E-02
 cg2d: Sum(rhs),rhsMax =   6.39643976674265E-10  1.73891143611080E-02
 cg2d: Sum(rhs),rhsMax =   6.39689606840577E-10  1.73887519565336E-02
 cg2d: Sum(rhs),rhsMax =   6.39733530038988E-10  1.73883885324933E-02
 cg2d: Sum(rhs),rhsMax =   6.39795882939609E-10  1.73880241352561E-02
 cg2d: Sum(rhs),rhsMax =   6.39842956395853E-10  1.73876588077158E-02
 cg2d: Sum(rhs),rhsMax =   6.39905739507896E-10  1.73872925958033E-02
 cg2d: Sum(rhs),rhsMax =   6.39958114279082E-10  1.73869255381330E-02
 cg2d: Sum(rhs),rhsMax =   6.40018177344714E-10  1.73865576782819E-02
 cg2d: Sum(rhs),rhsMax =   6.40066014079288E-10  1.73861890550392E-02
 cg2d: Sum(rhs),rhsMax =   6.40114503069888E-10  1.73858197087774E-02
 cg2d: Sum(rhs),rhsMax =   6.40168681953490E-10  1.73854496801362E-02
 cg2d: Sum(rhs),rhsMax =   6.40223693504360E-10  1.73850790065809E-02
 cg2d: Sum(rhs),rhsMax =   6.40277900143538E-10  1.73847077301148E-02
 cg2d: Sum(rhs),rhsMax =   6.40340003243978E-10  1.73843358894731E-02
 cg2d: Sum(rhs),rhsMax =   6.40386008110561E-10  1.73839635409330E-02
 cg2d: Sum(rhs),rhsMax =   6.40450734112896E-10  1.73835907037654E-02
 cg2d: Sum(rhs),rhsMax =   6.40513170280244E-10  1.73832174185677E-02
 cg2d: Sum(rhs),rhsMax =   6.40568403875719E-10  1.73828437369704E-02
 cg2d: Sum(rhs),rhsMax =   6.40630479220583E-10  1.73824697028887E-02
 cg2d: Sum(rhs),rhsMax =   6.40680217212086E-10  1.73823035944272E-02
 cg2d: Sum(rhs),rhsMax =   6.40739475366026E-10  1.73821436275148E-02
 cg2d: Sum(rhs),rhsMax =   6.40781525063083E-10  1.73819783215135E-02
 cg2d: Sum(rhs),rhsMax =   6.40833858200907E-10  1.73818098420935E-02
 cg2d: Sum(rhs),rhsMax =   6.40878961011282E-10  1.73816376934415E-02
 cg2d: Sum(rhs),rhsMax =   6.40925729156194E-10  1.73814610071189E-02
 cg2d: Sum(rhs),rhsMax =   6.40972039334109E-10  1.73812789576463E-02
 cg2d: Sum(rhs),rhsMax =   6.41019251568231E-10  1.73810907594781E-02
 cg2d: Sum(rhs),rhsMax =   6.41070058149396E-10  1.73808956511816E-02
 cg2d: Sum(rhs),rhsMax =   6.41114383803654E-10  1.73806929083675E-02
 cg2d: Sum(rhs),rhsMax =   6.41159653147483E-10  1.73804818351710E-02
 cg2d: Sum(rhs),rhsMax =   6.41200967321787E-10  1.73802617778145E-02
 cg2d: Sum(rhs),rhsMax =   6.41240907595098E-10  1.73800321180108E-02
 cg2d: Sum(rhs),rhsMax =   6.41296488135268E-10  1.73797922779415E-02
 cg2d: Sum(rhs),rhsMax =   6.41355912822661E-10  1.73795417237256E-02
 cg2d: Sum(rhs),rhsMax =   6.41405678569740E-10  1.73792799651567E-02
 cg2d: Sum(rhs),rhsMax =   6.41457789662958E-10  1.73790065578064E-02
 cg2d: Sum(rhs),rhsMax =   6.41501574083492E-10  1.73787211040926E-02
 cg2d: Sum(rhs),rhsMax =   6.41561193059914E-10  1.73784232527190E-02
 cg2d: Sum(rhs),rhsMax =   6.41608197127219E-10  1.73781127061834E-02
 cg2d: Sum(rhs),rhsMax =   6.41655908961702E-10  1.73777892099127E-02
 cg2d: Sum(rhs),rhsMax =   6.41707506576772E-10  1.73774525643286E-02
 cg2d: Sum(rhs),rhsMax =   6.41768499454187E-10  1.73771026162176E-02
 cg2d: Sum(rhs),rhsMax =   6.41828867831151E-10  1.73767392654777E-02
 cg2d: Sum(rhs),rhsMax =   6.41872971440804E-10  1.73763624608810E-02
 cg2d: Sum(rhs),rhsMax =   6.41936642731267E-10  1.73759722010805E-02
 cg2d: Sum(rhs),rhsMax =   6.41990738348142E-10  1.73755685352812E-02
 cg2d: Sum(rhs),rhsMax =   6.42058115007949E-10  1.73751515564917E-02
 cg2d: Sum(rhs),rhsMax =   6.42104674986044E-10  1.73747214296834E-02
 cg2d: Sum(rhs),rhsMax =   6.42158493047162E-10  1.73742783406444E-02
 cg2d: Sum(rhs),rhsMax =   6.42212102941464E-10  1.73738225590626E-02
 cg2d: Sum(rhs),rhsMax =   6.42282074747591E-10  1.73733543650885E-02
 cg2d: Sum(rhs),rhsMax =   6.42332215194941E-10  1.73728740941653E-02
 cg2d: Sum(rhs),rhsMax =   6.42388642280167E-10  1.73723821202081E-02
 cg2d: Sum(rhs),rhsMax =   6.42441794207471E-10  1.73718788546763E-02
 cg2d: Sum(rhs),rhsMax =   6.42509712101003E-10  1.73713647439960E-02
 cg2d: Sum(rhs),rhsMax =   6.42567180020315E-10  1.73708402668108E-02
 cg2d: Sum(rhs),rhsMax =   6.42627742686308E-10  1.73703059350911E-02
 cg2d: Sum(rhs),rhsMax =   6.42689262919660E-10  1.73697622886978E-02
 cg2d: Sum(rhs),rhsMax =   6.42743691603442E-10  1.73692098936171E-02
 cg2d: Sum(rhs),rhsMax =   6.42807890249841E-10  1.73686493396354E-02
 cg2d: Sum(rhs),rhsMax =   6.42864775302066E-10  1.73680812385745E-02
 cg2d: Sum(rhs),rhsMax =   6.42932637684446E-10  1.73675062182462E-02
 cg2d: Sum(rhs),rhsMax =   6.42999209432560E-10  1.73669249286965E-02
 cg2d: Sum(rhs),rhsMax =   6.43066530581216E-10  1.73663380259763E-02
 cg2d: Sum(rhs),rhsMax =   6.43134809297230E-10  1.73657461838036E-02
 cg2d: Sum(rhs),rhsMax =   6.43207334616314E-10  1.73651500829587E-02
 cg2d: Sum(rhs),rhsMax =   6.43280984036210E-10  1.73645504028115E-02
 cg2d: Sum(rhs),rhsMax =   6.43345002271367E-10  1.73639478719735E-02
 cg2d: Sum(rhs),rhsMax =   6.43404995948060E-10  1.73633431849712E-02
 cg2d: Sum(rhs),rhsMax =   6.43479242112832E-10  1.73627369800505E-02
 cg2d: Sum(rhs),rhsMax =   6.43538611289074E-10  1.73621299676602E-02
 cg2d: Sum(rhs),rhsMax =   6.43608055739264E-10  1.73615228437636E-02
 cg2d: Sum(rhs),rhsMax =   6.43686048906744E-10  1.73609162839378E-02
 cg2d: Sum(rhs),rhsMax =   6.43744210715447E-10  1.73603109531955E-02
 cg2d: Sum(rhs),rhsMax =   6.43792782972774E-10  1.73597075064345E-02
 cg2d: Sum(rhs),rhsMax =   6.43860062488066E-10  1.73591065843777E-02
 cg2d: Sum(rhs),rhsMax =   6.43926967303088E-10  1.73585088095161E-02
 cg2d: Sum(rhs),rhsMax =   6.43976483249986E-10  1.73579147878878E-02
 cg2d: Sum(rhs),rhsMax =   6.44043998687671E-10  1.73573251074175E-02
 cg2d: Sum(rhs),rhsMax =   6.44093250956601E-10  1.73567403329260E-02
 cg2d: Sum(rhs),rhsMax =   6.44163736240877E-10  1.73561610113857E-02
 cg2d: Sum(rhs),rhsMax =   6.44235123581360E-10  1.73555876634113E-02
 cg2d: Sum(rhs),rhsMax =   6.44298656093945E-10  1.73550207866979E-02
 cg2d: Sum(rhs),rhsMax =   6.44357955881247E-10  1.73544608570471E-02
 cg2d: Sum(rhs),rhsMax =   6.44431313867599E-10  1.73539083241864E-02
 cg2d: Sum(rhs),rhsMax =   6.44490433243661E-10  1.73533636095404E-02
 cg2d: Sum(rhs),rhsMax =   6.44555991913265E-10  1.73528271113730E-02
 cg2d: Sum(rhs),rhsMax =   6.44610392841471E-10  1.73522992021578E-02
 cg2d: Sum(rhs),rhsMax =   6.44672357164033E-10  1.73517802250995E-02
 cg2d: Sum(rhs),rhsMax =   6.44724953979825E-10  1.73512704981868E-02
 cg2d: Sum(rhs),rhsMax =   6.44798270332814E-10  1.73507703136022E-02
 cg2d: Sum(rhs),rhsMax =   6.44858708098717E-10  1.73502799353928E-02
 cg2d: Sum(rhs),rhsMax =   6.44904976643268E-10  1.73497996055139E-02
 cg2d: Sum(rhs),rhsMax =   6.44968703444881E-10  1.73493295348668E-02
 cg2d: Sum(rhs),rhsMax =   6.45012279698598E-10  1.73488699136788E-02
 cg2d: Sum(rhs),rhsMax =   6.45079087369105E-10  1.73484209071267E-02
 cg2d: Sum(rhs),rhsMax =   6.45144118682772E-10  1.73479826556521E-02
 cg2d: Sum(rhs),rhsMax =   6.45195327719783E-10  1.73475552755869E-02
 cg2d: Sum(rhs),rhsMax =   6.45247993924514E-10  1.73471388636667E-02
 cg2d: Sum(rhs),rhsMax =   6.45304809587799E-10  1.73467334946738E-02
 cg2d: Sum(rhs),rhsMax =   6.45363748552619E-10  1.73463392222296E-02
 cg2d: Sum(rhs),rhsMax =   6.45420814016084E-10  1.73459560805139E-02
 cg2d: Sum(rhs),rhsMax =   6.45471578963885E-10  1.73455840730377E-02
 cg2d: Sum(rhs),rhsMax =   6.45528810960805E-10  1.73452232130827E-02
 cg2d: Sum(rhs),rhsMax =   6.45591427539394E-10  1.73448734886009E-02
 cg2d: Sum(rhs),rhsMax =   6.45648187691528E-10  1.73445348616058E-02
 cg2d: Sum(rhs),rhsMax =   6.45709208324519E-10  1.73442072802054E-02
 cg2d: Sum(rhs),rhsMax =   6.45763928441845E-10  1.73438906820530E-02
 cg2d: Sum(rhs),rhsMax =   6.45813999500255E-10  1.73435849833849E-02
 cg2d: Sum(rhs),rhsMax =   6.45869732696092E-10  1.73432901070147E-02
 cg2d: Sum(rhs),rhsMax =   6.45920289477075E-10  1.73430059631483E-02
 cg2d: Sum(rhs),rhsMax =   6.45964198797699E-10  1.73427324376387E-02
 cg2d: Sum(rhs),rhsMax =   6.46020764660804E-10  1.73424694121060E-02
 cg2d: Sum(rhs),rhsMax =   6.46092596090497E-10  1.73422198657859E-02
 cg2d: Sum(rhs),rhsMax =   6.46134576398616E-10  1.73419779593044E-02
 cg2d: Sum(rhs),rhsMax =   6.46205700061131E-10  1.73417488342143E-02
 Computing Diagnostic #    26 "THETA   " (list#  1) Parms "SMR     MR      ", Count=     144
 Computing Diagnostic #    27 "SALT    " (list#  1) Parms "SMR     MR      ", Count=     144
 Computing Diagnostic #    30 "UVEL    " (list#  1) Parms "UUR     MR      ", Count=     144
             Vector  Mate for "UVEL    " :  Diagnostic #     31 "VVEL    " exists
 Computing Diagnostic #    32 "WVEL    " (list#  1) Parms "WM      LR      ", Count=     144
 Computing Diagnostic #    31 "VVEL    " (list#  1) Parms "VVR     MR      ", Count=     144
             Vector  Mate for "VVEL    " :  Diagnostic #     30 "UVEL    " exists
 Computing Diagnostic #   197 "BRGfwFlx" (list#  2) Parms "SM      MR      ", Count=     144
 Computing Diagnostic #   198 "BRGhtFlx" (list#  2) Parms "SM      MR      ", Count=     144
 Computing Diagnostic #   199 "BRGmltRt" (list#  2) Parms "SM      MR      ", Count=     144
 Computing Diagnostic #   201 "BRG_TauX" (list#  2) Parms "UU      MR      ", Count=    1728
 Computing Diagnostic #   202 "BRG_TauY" (list#  2) Parms "VV      MR      ", Count=    1728
 Computing Diagnostic #   203 "BRGhFacC" (list#  2) Parms "SM      MR      ", Count=    1728
 cg2d: Sum(rhs),rhsMax =   6.46258047076742E-10  1.73415270655556E-02
 cg2d: Sum(rhs),rhsMax =   6.46308631613302E-10  1.73413177587236E-02
 cg2d: Sum(rhs),rhsMax =   6.46359646361283E-10  1.73411154830526E-02
 cg2d: Sum(rhs),rhsMax =   6.46408107596308E-10  1.73409253314308E-02
 cg2d: Sum(rhs),rhsMax =   6.46447173568987E-10  1.73407418666399E-02
 cg2d: Sum(rhs),rhsMax =   6.46497050338368E-10  1.73405701719116E-02
 cg2d: Sum(rhs),rhsMax =   6.46540085358360E-10  1.73404048078602E-02
 cg2d: Sum(rhs),rhsMax =   6.46590669894920E-10  1.73402508438748E-02
 cg2d: Sum(rhs),rhsMax =   6.46636799661593E-10  1.73401028402792E-02
 cg2d: Sum(rhs),rhsMax =   6.46682554727995E-10  1.73399658581111E-02
 cg2d: Sum(rhs),rhsMax =   6.46734110709701E-10  1.73398344557552E-02
 cg2d: Sum(rhs),rhsMax =   6.46781447843914E-10  1.73397136850801E-02
 cg2d: Sum(rhs),rhsMax =   6.46828410277855E-10  1.73395981042210E-02
 cg2d: Sum(rhs),rhsMax =   6.46877440502180E-10  1.73394927571688E-02
 cg2d: Sum(rhs),rhsMax =   6.46927109104745E-10  1.73393922003719E-02
 cg2d: Sum(rhs),rhsMax =   6.46970671480673E-10  1.73393014701293E-02
 cg2d: Sum(rhs),rhsMax =   6.47006143106310E-10  1.73392151230506E-02
 cg2d: Sum(rhs),rhsMax =   6.47035397483009E-10  1.73391381851423E-02
 cg2d: Sum(rhs),rhsMax =   6.47075976134559E-10  1.73390652134886E-02
 cg2d: Sum(rhs),rhsMax =   6.47118428287463E-10  1.73390012257966E-02
 cg2d: Sum(rhs),rhsMax =   6.47164558054136E-10  1.73389407740555E-02
 cg2d: Sum(rhs),rhsMax =   6.47203832193632E-10  1.73388888699294E-02
 cg2d: Sum(rhs),rhsMax =   6.47244965956695E-10  1.73388400604038E-02
 cg2d: Sum(rhs),rhsMax =   6.47295494982103E-10  1.73387993467861E-02
 cg2d: Sum(rhs),rhsMax =   6.47350048565976E-10  1.73387612761138E-02
 cg2d: Sum(rhs),rhsMax =   6.47410208776122E-10  1.73387308344183E-02
 cg2d: Sum(rhs),rhsMax =   6.47448678003926E-10  1.73387025634695E-02
 cg2d: Sum(rhs),rhsMax =   6.47496709027529E-10  1.73386814379068E-02
 cg2d: Sum(rhs),rhsMax =   6.47537232167927E-10  1.73386619932273E-02
 cg2d: Sum(rhs),rhsMax =   6.47589259994419E-10  1.73386491946283E-02
 cg2d: Sum(rhs),rhsMax =   6.47638956352559E-10  1.73386375737288E-02
 cg2d: Sum(rhs),rhsMax =   6.47658204844248E-10  1.73386320864416E-02
 cg2d: Sum(rhs),rhsMax =   6.47710704515525E-10  1.73386272581787E-02
 cg2d: Sum(rhs),rhsMax =   6.47746342674616E-10  1.73386280325798E-02
 cg2d: Sum(rhs),rhsMax =   6.47806974729548E-10  1.73386289328446E-02
 cg2d: Sum(rhs),rhsMax =   6.47858267033286E-10  1.73386202679576E-02
 cg2d: Sum(rhs),rhsMax =   6.47906811535037E-10  1.73385505419557E-02
 cg2d: Sum(rhs),rhsMax =   6.47938230846634E-10  1.73384835249362E-02
 cg2d: Sum(rhs),rhsMax =   6.47983486312675E-10  1.73384169923719E-02
 cg2d: Sum(rhs),rhsMax =   6.48033279815330E-10  1.73383553410352E-02
 cg2d: Sum(rhs),rhsMax =   6.48090373034371E-10  1.73382933690635E-02
 cg2d: Sum(rhs),rhsMax =   6.48137696290796E-10  1.73382363685204E-02
 cg2d: Sum(rhs),rhsMax =   6.48172432393679E-10  1.73381792270595E-02
 cg2d: Sum(rhs),rhsMax =   6.48211304077329E-10  1.73381272046747E-02
 cg2d: Sum(rhs),rhsMax =   6.48246761825177E-10  1.73380751648897E-02
 cg2d: Sum(rhs),rhsMax =   6.48283676740746E-10  1.73380283395665E-02
 cg2d: Sum(rhs),rhsMax =   6.48321382690220E-10  1.73379815789992E-02
 cg2d: Sum(rhs),rhsMax =   6.48367748379286E-10  1.73379400928030E-02
 cg2d: Sum(rhs),rhsMax =   6.48407605385870E-10  1.73378987024233E-02
 cg2d: Sum(rhs),rhsMax =   6.48450099172138E-10  1.73378625776675E-02
 cg2d: Sum(rhs),rhsMax =   6.48499129396463E-10  1.73378265114739E-02
 cg2d: Sum(rhs),rhsMax =   6.48543593828599E-10  1.73377956444473E-02
 cg2d: Sum(rhs),rhsMax =   6.48582465512249E-10  1.73377647420481E-02
 cg2d: Sum(rhs),rhsMax =   6.48620407384115E-10  1.73377389123733E-02
 cg2d: Sum(rhs),rhsMax =   6.48653714074854E-10  1.73377128953795E-02
 cg2d: Sum(rhs),rhsMax =   6.48710127282293E-10  1.73376917626217E-02
 cg2d: Sum(rhs),rhsMax =   6.48749567955242E-10  1.73376702277330E-02
 cg2d: Sum(rhs),rhsMax =   6.48790604573790E-10  1.73376533272912E-02
 cg2d: Sum(rhs),rhsMax =   6.48828699101323E-10  1.73376357500251E-02
 cg2d: Sum(rhs),rhsMax =   6.48880948972419E-10  1.73376224958981E-02
 cg2d: Sum(rhs),rhsMax =   6.48919695755978E-10  1.73376082269207E-02
 cg2d: Sum(rhs),rhsMax =   6.48958706217506E-10  1.73375979137469E-02
 cg2d: Sum(rhs),rhsMax =   6.49012163456142E-10  1.73375861931696E-02
 cg2d: Sum(rhs),rhsMax =   6.49044581968461E-10  1.73375780036929E-02
 cg2d: Sum(rhs),rhsMax =   6.49082787518296E-10  1.73375679627857E-02
 cg2d: Sum(rhs),rhsMax =   6.49125905805015E-10  1.73375609808962E-02
 cg2d: Sum(rhs),rhsMax =   6.49170023292456E-10  1.73375516554342E-02
 cg2d: Sum(rhs),rhsMax =   6.49200540547845E-10  1.73375448755076E-02
 cg2d: Sum(rhs),rhsMax =   6.49242673511630E-10  1.73375352234783E-02
 cg2d: Sum(rhs),rhsMax =   6.49288914300605E-10  1.73375275621939E-02
 cg2d: Sum(rhs),rhsMax =   6.49335391011974E-10  1.73375164724393E-02
 cg2d: Sum(rhs),rhsMax =   6.49370682226369E-10  1.73375067820048E-02
 cg2d: Sum(rhs),rhsMax =   6.49414674813720E-10  1.73374931413695E-02
 cg2d: Sum(rhs),rhsMax =   6.49451575851501E-10  1.73374801486612E-02
 cg2d: Sum(rhs),rhsMax =   6.49497969296142E-10  1.73374627448090E-02
 cg2d: Sum(rhs),rhsMax =   6.49532580498935E-10  1.73374453270744E-02
 cg2d: Sum(rhs),rhsMax =   6.49582637679558E-10  1.73374229285663E-02
 cg2d: Sum(rhs),rhsMax =   6.49610323866234E-10  1.73373997684202E-02
 cg2d: Sum(rhs),rhsMax =   6.49661241469701E-10  1.73373711427950E-02
 cg2d: Sum(rhs),rhsMax =   6.49704012811725E-10  1.73373410959292E-02
 cg2d: Sum(rhs),rhsMax =   6.49751821790723E-10  1.73373049939263E-02
 cg2d: Sum(rhs),rhsMax =   6.49791026541280E-10  1.73372667981723E-02
 cg2d: Sum(rhs),rhsMax =   6.49846246258967E-10  1.73372220645048E-02
 cg2d: Sum(rhs),rhsMax =   6.49878359459954E-10  1.73371745959882E-02
 cg2d: Sum(rhs),rhsMax =   6.49909875916066E-10  1.73371200809986E-02
 cg2d: Sum(rhs),rhsMax =   6.49947776154569E-10  1.73370623467125E-02
 cg2d: Sum(rhs),rhsMax =   6.49995127166569E-10  1.73369972296748E-02
 cg2d: Sum(rhs),rhsMax =   6.50038009530896E-10  1.73369283302021E-02
 cg2d: Sum(rhs),rhsMax =   6.50075174246645E-10  1.73368515543918E-02
 cg2d: Sum(rhs),rhsMax =   6.50106107835668E-10  1.73367704114063E-02
 cg2d: Sum(rhs),rhsMax =   6.50144632574623E-10  1.73366809941033E-02
 cg2d: Sum(rhs),rhsMax =   6.50197187757051E-10  1.73365867159617E-02
 cg2d: Sum(rhs),rhsMax =   6.50236406385396E-10  1.73364837515881E-02
 cg2d: Sum(rhs),rhsMax =   6.50279524672115E-10  1.73363754187058E-02
 cg2d: Sum(rhs),rhsMax =   6.50320255979331E-10  1.73362539452152E-02
 cg2d: Sum(rhs),rhsMax =   6.50368314758509E-10  1.73361265753184E-02
 cg2d: Sum(rhs),rhsMax =   6.50425532877641E-10  1.73359900213901E-02
 cg2d: Sum(rhs),rhsMax =   6.50473050423095E-10  1.73358473495833E-02
 cg2d: Sum(rhs),rhsMax =   6.50521289613515E-10  1.73356952851846E-02
 cg2d: Sum(rhs),rhsMax =   6.50575995853053E-10  1.73355368189173E-02
 cg2d: Sum(rhs),rhsMax =   6.50626857945369E-10  1.73353688217847E-02
 cg2d: Sum(rhs),rhsMax =   6.50676124092087E-10  1.73351941311914E-02
 cg2d: Sum(rhs),rhsMax =   6.50716883154878E-10  1.73350098865579E-02
 cg2d: Sum(rhs),rhsMax =   6.50764914178481E-10  1.73348187485357E-02
 cg2d: Sum(rhs),rhsMax =   6.50813694602626E-10  1.73346180405791E-02
 cg2d: Sum(rhs),rhsMax =   6.50866333051781E-10  1.73344102275239E-02
 cg2d: Sum(rhs),rhsMax =   6.50918721700755E-10  1.73341929447317E-02
 cg2d: Sum(rhs),rhsMax =   6.50962131421018E-10  1.73339684350674E-02
 cg2d: Sum(rhs),rhsMax =   6.51011355934372E-10  1.73337345669670E-02
 cg2d: Sum(rhs),rhsMax =   6.51049547606419E-10  1.73334933301572E-02
 cg2d: Sum(rhs),rhsMax =   6.51097620263386E-10  1.73332429593904E-02
 cg2d: Sum(rhs),rhsMax =   6.51138559737419E-10  1.73329851706054E-02
 cg2d: Sum(rhs),rhsMax =   6.51189366318583E-10  1.73327184797572E-02
 cg2d: Sum(rhs),rhsMax =   6.51238230009454E-10  1.73324443006182E-02
 cg2d: Sum(rhs),rhsMax =   6.51290743558519E-10  1.73321615615027E-02
 cg2d: Sum(rhs),rhsMax =   6.51351028668756E-10  1.73318713528370E-02
 cg2d: Sum(rhs),rhsMax =   6.51393730621841E-10  1.73315729270729E-02
 cg2d: Sum(rhs),rhsMax =   6.51442538801561E-10  1.73312670306763E-02
 cg2d: Sum(rhs),rhsMax =   6.51479120650222E-10  1.73309533630450E-02
 cg2d: Sum(rhs),rhsMax =   6.51535894680144E-10  1.73306323116422E-02
 cg2d: Sum(rhs),rhsMax =   6.51584564081986E-10  1.73303039272142E-02
 cg2d: Sum(rhs),rhsMax =   6.51637674375927E-10  1.73299684052312E-02
 cg2d: Sum(rhs),rhsMax =   6.51699125220340E-10  1.73296258994960E-02
 cg2d: Sum(rhs),rhsMax =   6.51757009473286E-10  1.73292765780138E-02
 cg2d: Sum(rhs),rhsMax =   6.51812118168671E-10  1.73289206142356E-02
 cg2d: Sum(rhs),rhsMax =   6.51862980260987E-10  1.73285581864916E-02
 cg2d: Sum(rhs),rhsMax =   6.51921641670050E-10  1.73281894817222E-02
 cg2d: Sum(rhs),rhsMax =   6.51963968922864E-10  1.73278146981675E-02
 cg2d: Sum(rhs),rhsMax =   6.52033052550571E-10  1.73274340354385E-02
 cg2d: Sum(rhs),rhsMax =   6.52080639484964E-10  1.73270476970915E-02
 cg2d: Sum(rhs),rhsMax =   6.52138995582696E-10  1.73266558914785E-02
 cg2d: Sum(rhs),rhsMax =   6.52187165384177E-10  1.73262588307302E-02
 cg2d: Sum(rhs),rhsMax =   6.52233211884123E-10  1.73258567312503E-02
 cg2d: Sum(rhs),rhsMax =   6.52285975233369E-10  1.73254498140015E-02
 cg2d: Sum(rhs),rhsMax =   6.52337239781531E-10  1.73250382995205E-02
 cg2d: Sum(rhs),rhsMax =   6.52406295653662E-10  1.73246224132100E-02
 cg2d: Sum(rhs),rhsMax =   6.52466580763900E-10  1.73242023800040E-02
 cg2d: Sum(rhs),rhsMax =   6.52519510646599E-10  1.73237784265414E-02
 cg2d: Sum(rhs),rhsMax =   6.52575590787130E-10  1.73233507810711E-02
 cg2d: Sum(rhs),rhsMax =   6.52638748599443E-10  1.73229196712294E-02
 cg2d: Sum(rhs),rhsMax =   6.52702641934511E-10  1.73224853218447E-02
 cg2d: Sum(rhs),rhsMax =   6.52753365248948E-10  1.73220479579542E-02
 cg2d: Sum(rhs),rhsMax =   6.52815801416295E-10  1.73216078051121E-02
 cg2d: Sum(rhs),rhsMax =   6.52876808171499E-10  1.73211650839695E-02
 Computing Diagnostic #    26 "THETA   " (list#  1) Parms "SMR     MR      ", Count=     144
 Computing Diagnostic #    27 "SALT    " (list#  1) Parms "SMR     MR      ", Count=     144
 Computing Diagnostic #    30 "UVEL    " (list#  1) Parms "UUR     MR      ", Count=     144
             Vector  Mate for "UVEL    " :  Diagnostic #     31 "VVEL    " exists
 Computing Diagnostic #    32 "WVEL    " (list#  1) Parms "WM      LR      ", Count=     144
 Computing Diagnostic #    31 "VVEL    " (list#  1) Parms "VVR     MR      ", Count=     144
             Vector  Mate for "VVEL    " :  Diagnostic #     30 "UVEL    " exists
 Computing Diagnostic #   197 "BRGfwFlx" (list#  2) Parms "SM      MR      ", Count=     144
 Computing Diagnostic #   198 "BRGhtFlx" (list#  2) Parms "SM      MR      ", Count=     144
 Computing Diagnostic #   199 "BRGmltRt" (list#  2) Parms "SM      MR      ", Count=     144
 Computing Diagnostic #   201 "BRG_TauX" (list#  2) Parms "UU      MR      ", Count=    1728
 Computing Diagnostic #   202 "BRG_TauY" (list#  2) Parms "VV      MR      ", Count=    1728
 Computing Diagnostic #   203 "BRGhFacC" (list#  2) Parms "SM      MR      ", Count=    1728
 cg2d: Sum(rhs),rhsMax =   6.52939480261239E-10  1.73207200121033E-02
 cg2d: Sum(rhs),rhsMax =   6.52988177418656E-10  1.73202728057715E-02
 cg2d: Sum(rhs),rhsMax =   6.53042467324561E-10  1.73198236767556E-02
 cg2d: Sum(rhs),rhsMax =   6.53093343294664E-10  1.73193728320310E-02
 cg2d: Sum(rhs),rhsMax =   6.53159984431717E-10  1.73189204736707E-02
 cg2d: Sum(rhs),rhsMax =   6.53222698154821E-10  1.73184668015419E-02
 cg2d: Sum(rhs),rhsMax =   6.53268134032103E-10  1.73180120064793E-02
 cg2d: Sum(rhs),rhsMax =   6.53319814913900E-10  1.73175562673558E-02
 cg2d: Sum(rhs),rhsMax =   6.53371551306847E-10  1.73170997711402E-02
 cg2d: Sum(rhs),rhsMax =   6.53438927966654E-10  1.73166426880765E-02
 cg2d: Sum(rhs),rhsMax =   6.53496368130391E-10  1.73161851830907E-02
 cg2d: Sum(rhs),rhsMax =   6.53556361807084E-10  1.73157274098831E-02
 cg2d: Sum(rhs),rhsMax =   6.53625098490096E-10  1.73152695191487E-02
 cg2d: Sum(rhs),rhsMax =   6.53686202389814E-10  1.73148116529090E-02
 cg2d: Sum(rhs),rhsMax =   6.53741893952287E-10  1.73143539422417E-02
 cg2d: Sum(rhs),rhsMax =   6.53794865468349E-10  1.73138965163254E-02
 cg2d: Sum(rhs),rhsMax =   6.53865517286079E-10  1.73134394894614E-02
 cg2d: Sum(rhs),rhsMax =   6.53930132266112E-10  1.73129829698714E-02
 cg2d: Sum(rhs),rhsMax =   6.53980564147005E-10  1.73125270582464E-02
 cg2d: Sum(rhs),rhsMax =   6.54037907166227E-10  1.73120718447407E-02
 cg2d: Sum(rhs),rhsMax =   6.54101411923236E-10  1.73116174116251E-02
 cg2d: Sum(rhs),rhsMax =   6.54152926271578E-10  1.73111638305286E-02
 cg2d: Sum(rhs),rhsMax =   6.54209533768046E-10  1.73107111642886E-02
 cg2d: Sum(rhs),rhsMax =   6.54267071076298E-10  1.73102594713360E-02
 cg2d: Sum(rhs),rhsMax =   6.54322568349741E-10  1.73098087948874E-02
 cg2d: Sum(rhs),rhsMax =   6.54378370934516E-10  1.73093591724810E-02
 cg2d: Sum(rhs),rhsMax =   6.54425527657487E-10  1.73089106348544E-02
 cg2d: Sum(rhs),rhsMax =   6.54466314475854E-10  1.73084632053443E-02
 cg2d: Sum(rhs),rhsMax =   6.54524545673496E-10  1.73080168941688E-02
 cg2d: Sum(rhs),rhsMax =   6.54595738724950E-10  1.73075717098691E-02
 cg2d: Sum(rhs),rhsMax =   6.54643714237402E-10  1.73071276520281E-02
 cg2d: Sum(rhs),rhsMax =   6.54707191238835E-10  1.73066847123686E-02
 cg2d: Sum(rhs),rhsMax =   6.54775345054759E-10  1.73062428793384E-02
 cg2d: Sum(rhs),rhsMax =   6.54839266145402E-10  1.73058021315991E-02
 cg2d: Sum(rhs),rhsMax =   6.54907669761506E-10  1.73053624462826E-02
 cg2d: Sum(rhs),rhsMax =   6.54968093649622E-10  1.73049237950282E-02
 cg2d: Sum(rhs),rhsMax =   6.55038578933897E-10  1.73044861438485E-02
 cg2d: Sum(rhs),rhsMax =   6.55100071411674E-10  1.73040494558595E-02
 cg2d: Sum(rhs),rhsMax =   6.55149767769814E-10  1.73036136914903E-02
 cg2d: Sum(rhs),rhsMax =   6.55217963219101E-10  1.73031788082711E-02
 cg2d: Sum(rhs),rhsMax =   6.55271864546947E-10  1.73027447652048E-02
 cg2d: Sum(rhs),rhsMax =   6.55322934806080E-10  1.73023115128883E-02
 cg2d: Sum(rhs),rhsMax =   6.55380152925211E-10  1.73018789948551E-02
 cg2d: Sum(rhs),rhsMax =   6.55435317131747E-10  1.73014471801461E-02
 cg2d: Sum(rhs),rhsMax =   6.55489829082256E-10  1.73010160206631E-02
 cg2d: Sum(rhs),rhsMax =   6.55552778727753E-10  1.73005854664850E-02
 cg2d: Sum(rhs),rhsMax =   6.55598034193794E-10  1.73001554763800E-02
 cg2d: Sum(rhs),rhsMax =   6.55662565907100E-10  1.72997260072915E-02
 cg2d: Sum(rhs),rhsMax =   6.55724377573996E-10  1.72992970217475E-02
 cg2d: Sum(rhs),rhsMax =   6.55788132131185E-10  1.72988692674443E-02
 cg2d: Sum(rhs),rhsMax =   6.55848347852483E-10  1.72984448699893E-02
 cg2d: Sum(rhs),rhsMax =   6.55909798696896E-10  1.72980180238429E-02
 cg2d: Sum(rhs),rhsMax =   6.55962562046142E-10  1.72975944265419E-02
 cg2d: Sum(rhs),rhsMax =   6.56027690504324E-10  1.72971683322320E-02
 cg2d: Sum(rhs),rhsMax =   6.56082854710860E-10  1.72967454142032E-02
 cg2d: Sum(rhs),rhsMax =   6.56140114463355E-10  1.72963199462856E-02
 cg2d: Sum(rhs),rhsMax =   6.56203813509393E-10  1.72958976111822E-02
 cg2d: Sum(rhs),rhsMax =   6.56258450359992E-10  1.72954726989332E-02
 cg2d: Sum(rhs),rhsMax =   6.56316681557634E-10  1.72950508996411E-02
 cg2d: Sum(rhs),rhsMax =   6.56367696305615E-10  1.72946265209634E-02
 cg2d: Sum(rhs),rhsMax =   6.56419765765470E-10  1.72942052631193E-02
 cg2d: Sum(rhs),rhsMax =   6.56480939054127E-10  1.72937814449529E-02
 cg2d: Sum(rhs),rhsMax =   6.56524584696783E-10  1.72933607762562E-02
 cg2d: Sum(rhs),rhsMax =   6.56592211156770E-10  1.72929376060241E-02
 cg2d: Sum(rhs),rhsMax =   6.56638882157168E-10  1.72925176606810E-02
 cg2d: Sum(rhs),rhsMax =   6.56693005529618E-10  1.72920953010945E-02
 cg2d: Sum(rhs),rhsMax =   6.56743603943966E-10  1.72916762535445E-02
 cg2d: Sum(rhs),rhsMax =   6.56800544507341E-10  1.72912548972279E-02
 cg2d: Sum(rhs),rhsMax =   6.56854168279430E-10  1.72908369717060E-02
 cg2d: Sum(rhs),rhsMax =   6.56900936424343E-10  1.72904168726117E-02
 cg2d: Sum(rhs),rhsMax =   6.56956072875303E-10  1.72900003497902E-02
 cg2d: Sum(rhs),rhsMax =   6.57008045190643E-10  1.72895818127269E-02
 cg2d: Sum(rhs),rhsMax =   6.57063611853026E-10  1.72891670176436E-02
 cg2d: Sum(rhs),rhsMax =   6.57120372005160E-10  1.72887503917273E-02
 cg2d: Sum(rhs),rhsMax =   6.57182516738963E-10  1.72883376946058E-02
 cg2d: Sum(rhs),rhsMax =   6.57230242451234E-10  1.72879233633162E-02
 cg2d: Sum(rhs),rhsMax =   6.57294649264450E-10  1.72875131641375E-02
 cg2d: Sum(rhs),rhsMax =   6.57346704846518E-10  1.72871015424464E-02
 cg2d: Sum(rhs),rhsMax =   6.57400855974544E-10  1.72866942638222E-02
 cg2d: Sum(rhs),rhsMax =   6.57459184316700E-10  1.72862857834976E-02
 cg2d: Sum(rhs),rhsMax =   6.57504731216285E-10  1.72858818659191E-02
 cg2d: Sum(rhs),rhsMax =   6.57561449735056E-10  1.72854769707586E-02
 cg2d: Sum(rhs),rhsMax =   6.57622345467956E-10  1.72850768569288E-02
 cg2d: Sum(rhs),rhsMax =   6.57683130178555E-10  1.72846759865794E-02
 cg2d: Sum(rhs),rhsMax =   6.57741805465406E-10  1.72842801153019E-02
 cg2d: Sum(rhs),rhsMax =   6.57806017989593E-10  1.72838837031265E-02
 cg2d: Sum(rhs),rhsMax =   6.57868912123938E-10  1.72834924953574E-02
 cg2d: Sum(rhs),rhsMax =   6.57930890324288E-10  1.72831009531768E-02
 cg2d: Sum(rhs),rhsMax =   6.57986276575429E-10  1.72827148072298E-02
 cg2d: Sum(rhs),rhsMax =   6.58032031641831E-10  1.72823285103112E-02
 cg2d: Sum(rhs),rhsMax =   6.58087112581640E-10  1.72819477868874E-02
 cg2d: Sum(rhs),rhsMax =   6.58152282673186E-10  1.72815670821851E-02
 cg2d: Sum(rhs),rhsMax =   6.58211318782520E-10  1.72811920984199E-02
 cg2d: Sum(rhs),rhsMax =   6.58261861685716E-10  1.72808172738693E-02
 cg2d: Sum(rhs),rhsMax =   6.58318524693335E-10  1.72804482926180E-02
 cg2d: Sum(rhs),rhsMax =   6.58372384387818E-10  1.72800795853634E-02
 cg2d: Sum(rhs),rhsMax =   6.58420762356116E-10  1.72797168170389E-02
 cg2d: Sum(rhs),rhsMax =   6.58467447234301E-10  1.72793544018607E-02
 cg2d: Sum(rhs),rhsMax =   6.58527399277631E-10  1.72789979881610E-02
 cg2d: Sum(rhs),rhsMax =   6.58583243495769E-10  1.72786419764483E-02
 cg2d: Sum(rhs),rhsMax =   6.58638504846820E-10  1.72782919913431E-02
 cg2d: Sum(rhs),rhsMax =   6.58690393895434E-10  1.72779424217978E-02
 cg2d: Sum(rhs),rhsMax =   6.58745877291089E-10  1.72775988749657E-02
 cg2d: Sum(rhs),rhsMax =   6.58796947550222E-10  1.72772557223694E-02
 cg2d: Sum(rhs),rhsMax =   6.58851931345517E-10  1.72769185504447E-02
 cg2d: Sum(rhs),rhsMax =   6.58913507090020E-10  1.72765817201701E-02
 cg2d: Sum(rhs),rhsMax =   6.58966173294750E-10  1.72762507948197E-02
 cg2d: Sum(rhs),rhsMax =   6.59027610261376E-10  1.72759201237914E-02
 cg2d: Sum(rhs),rhsMax =   6.59070298336673E-10  1.72755952549122E-02
 cg2d: Sum(rhs),rhsMax =   6.59116636270163E-10  1.72752705248565E-02
 cg2d: Sum(rhs),rhsMax =   6.59169455130559E-10  1.72749514614931E-02
 cg2d: Sum(rhs),rhsMax =   6.59218943321882E-10  1.72746323960692E-02
 cg2d: Sum(rhs),rhsMax =   6.59256010893117E-10  1.72743188414691E-02
 cg2d: Sum(rhs),rhsMax =   6.59308080352972E-10  1.72740051199049E-02
 cg2d: Sum(rhs),rhsMax =   6.59367366262487E-10  1.72736967316647E-02
 cg2d: Sum(rhs),rhsMax =   6.59413773584916E-10  1.72733879955681E-02
 cg2d: Sum(rhs),rhsMax =   6.59474211350819E-10  1.72730844006279E-02
 cg2d: Sum(rhs),rhsMax =   6.59525198343225E-10  1.72727802644010E-02
 cg2d: Sum(rhs),rhsMax =   6.59577101269626E-10  1.72724810661967E-02
 cg2d: Sum(rhs),rhsMax =   6.59644200373677E-10  1.72721811286526E-02
 cg2d: Sum(rhs),rhsMax =   6.59707871664139E-10  1.72718859242208E-02
 cg2d: Sum(rhs),rhsMax =   6.59761079102594E-10  1.72715897787933E-02
 cg2d: Sum(rhs),rhsMax =   6.59814342052201E-10  1.72712981658017E-02
 cg2d: Sum(rhs),rhsMax =   6.59867646635171E-10  1.72710054158366E-02
 cg2d: Sum(rhs),rhsMax =   6.59921950418862E-10  1.72707170044308E-02
 cg2d: Sum(rhs),rhsMax =   6.59978099948333E-10  1.72704272723334E-02
 cg2d: Sum(rhs),rhsMax =   6.60017707154736E-10  1.72701417001583E-02
 cg2d: Sum(rhs),rhsMax =   6.60060880952607E-10  1.72698546399437E-02
 cg2d: Sum(rhs),rhsMax =   6.60120111350970E-10  1.72695715795600E-02
 cg2d: Sum(rhs),rhsMax =   6.60173360422789E-10  1.72692868883175E-02
 cg2d: Sum(rhs),rhsMax =   6.60219115489191E-10  1.72690060617358E-02
 cg2d: Sum(rhs),rhsMax =   6.60258320239748E-10  1.72687234883298E-02
 cg2d: Sum(rhs),rhsMax =   6.60317897582807E-10  1.72684446745793E-02
 cg2d: Sum(rhs),rhsMax =   6.60370008676026E-10  1.72681640288980E-02
 cg2d: Sum(rhs),rhsMax =   6.60413904118862E-10  1.72678870707067E-02
 cg2d: Sum(rhs),rhsMax =   6.60465113155873E-10  1.72676082308433E-02
 cg2d: Sum(rhs),rhsMax =   6.60525287243807E-10  1.72673330448966E-02
 cg2d: Sum(rhs),rhsMax =   6.60580104505648E-10  1.72670559625503E-02
 cg2d: Sum(rhs),rhsMax =   6.60630244952998E-10  1.72667825367416E-02
 cg2d: Sum(rhs),rhsMax =   6.60677887398542E-10  1.72665072416630E-02
 cg2d: Sum(rhs),rhsMax =   6.60731969137629E-10  1.72662356445285E-02
 cg2d: Sum(rhs),rhsMax =   6.60784524320057E-10  1.72659622438559E-02
 cg2d: Sum(rhs),rhsMax =   6.60840146493591E-10  1.72656926221649E-02
 cg2d: Sum(rhs),rhsMax =   6.60894186599315E-10  1.72654212991279E-02
(PID.TID 0000.0001)      cg2d_init_res =   9.36543132148965E-05
(PID.TID 0000.0001)      cg2d_iters(min,last) =      -1      39
(PID.TID 0000.0001)      cg2d_last_res =   6.12867254640169E-14
(PID.TID 0000.0001) // =======================================================
(PID.TID 0000.0001) // Begin MONITOR dynamic field statistics
(PID.TID 0000.0001) // =======================================================
(PID.TID 0000.0001) %MON time_tsnumber                =                 16416
(PID.TID 0000.0001) %MON time_secondsf                =   4.1040000000000E+05
(PID.TID 0000.0001) %MON dynstat_eta_max              =   5.2597555655524E-03
(PID.TID 0000.0001) %MON dynstat_eta_min              =  -2.5939909627609E-03
(PID.TID 0000.0001) %MON dynstat_eta_mean             =  -7.6414095147259E-14
(PID.TID 0000.0001) %MON dynstat_eta_sd               =   2.6682766942926E-03
(PID.TID 0000.0001) %MON dynstat_eta_del2             =   2.2287671545712E-05
(PID.TID 0000.0001) %MON dynstat_uvel_max             =   4.6312762011485E-02
(PID.TID 0000.0001) %MON dynstat_uvel_min             =  -3.9161603228350E-02
(PID.TID 0000.0001) %MON dynstat_uvel_mean            =   7.3108035239774E-09
(PID.TID 0000.0001) %MON dynstat_uvel_sd              =   6.3295368754167E-03
(PID.TID 0000.0001) %MON dynstat_uvel_del2            =   1.0248290882988E-04
(PID.TID 0000.0001) %MON dynstat_vvel_max             =   2.2889133854375E-02
(PID.TID 0000.0001) %MON dynstat_vvel_min             =  -3.2338181151476E-02
(PID.TID 0000.0001) %MON dynstat_vvel_mean            =  -8.0919744964738E-03
(PID.TID 0000.0001) %MON dynstat_vvel_sd              =   1.1472609612981E-02
(PID.TID 0000.0001) %MON dynstat_vvel_del2            =   9.2076826084517E-05
(PID.TID 0000.0001) %MON dynstat_wvel_max             =   1.4221404750581E-03
(PID.TID 0000.0001) %MON dynstat_wvel_min             =  -1.0720520227718E-03
(PID.TID 0000.0001) %MON dynstat_wvel_mean            =  -1.1662879529717E-21
(PID.TID 0000.0001) %MON dynstat_wvel_sd              =   1.2523906965521E-04
(PID.TID 0000.0001) %MON dynstat_wvel_del2            =   6.2973894919213E-06
(PID.TID 0000.0001) %MON dynstat_theta_max            =   2.6931451612903E+00
(PID.TID 0000.0001) %MON dynstat_theta_min            =  -5.3362784966381E-01
(PID.TID 0000.0001) %MON dynstat_theta_mean           =   2.2262297576615E+00
(PID.TID 0000.0001) %MON dynstat_theta_sd             =   5.1113131564976E-01
(PID.TID 0000.0001) %MON dynstat_theta_del2           =   1.5687042026382E-03
(PID.TID 0000.0001) %MON dynstat_salt_max             =   3.4699999999999E+01
(PID.TID 0000.0001) %MON dynstat_salt_min             =   3.3019912529234E+01
(PID.TID 0000.0001) %MON dynstat_salt_mean            =   3.4364205191245E+01
(PID.TID 0000.0001) %MON dynstat_salt_sd              =   3.2240247327636E-01
(PID.TID 0000.0001) %MON dynstat_salt_del2            =   1.9830975556540E-04
(PID.TID 0000.0001) %MON advcfl_uvel_max              =   2.3156381005742E-03
(PID.TID 0000.0001) %MON advcfl_vvel_max              =   1.6169090575738E-03
(PID.TID 0000.0001) %MON advcfl_wvel_max              =   6.5280521549631E-04
(PID.TID 0000.0001) %MON advcfl_W_hf_max              =   1.3907491240758E-03
(PID.TID 0000.0001) %MON pe_b_mean                    =   5.9402729145125E-08
(PID.TID 0000.0001) %MON ke_max                       =   1.0023960739705E-03
(PID.TID 0000.0001) %MON ke_mean                      =   1.0862209090724E-04
(PID.TID 0000.0001) %MON ke_vol                       =   3.2921708585402E+10
(PID.TID 0000.0001) // =======================================================
(PID.TID 0000.0001) // End MONITOR dynamic field statistics
(PID.TID 0000.0001) // =======================================================
(PID.TID 0000.0001) // =======================================================
(PID.TID 0000.0001) // Begin OBCS MONITOR field statistics
(PID.TID 0000.0001) // =======================================================
(PID.TID 0000.0001) %MON obc_E_uVel_max               =   0.0000000000000E+00
(PID.TID 0000.0001) %MON obc_E_uVel_min               =   0.0000000000000E+00
(PID.TID 0000.0001) %MON obc_E_uVel_mean              =   0.0000000000000E+00
(PID.TID 0000.0001) %MON obc_E_uVel_sd                =   0.0000000000000E+00
(PID.TID 0000.0001) %MON obc_E_uVel_Int               =   0.0000000000000E+00
(PID.TID 0000.0001) %MON obc_N_vVel_max               =  -3.6115799844846E-05
(PID.TID 0000.0001) %MON obc_N_vVel_min               =  -3.0000000000000E-02
(PID.TID 0000.0001) %MON obc_N_vVel_mean              =  -1.3225455303334E-02
(PID.TID 0000.0001) %MON obc_N_vVel_sd                =   1.1350864292742E-02
(PID.TID 0000.0001) %MON obc_N_vVel_Int               =  -5.9514548865004E+04
(PID.TID 0000.0001) %MON obc_S_vVel_max               =  -3.6115799844846E-05
(PID.TID 0000.0001) %MON obc_S_vVel_min               =  -3.0000000000000E-02
(PID.TID 0000.0001) %MON obc_S_vVel_mean              =  -1.3225455303334E-02
(PID.TID 0000.0001) %MON obc_S_vVel_sd                =   1.1350864292742E-02
(PID.TID 0000.0001) %MON obc_S_vVel_Int               =  -5.9514548865004E+04
(PID.TID 0000.0001) // =======================================================
(PID.TID 0000.0001) // End OBCS MONITOR field statistics
(PID.TID 0000.0001) // =======================================================
 Computing Diagnostic #    26 "THETA   " (list#  1) Parms "SMR     MR      ", Count=     144
 Computing Diagnostic #    27 "SALT    " (list#  1) Parms "SMR     MR      ", Count=     144
 Computing Diagnostic #    30 "UVEL    " (list#  1) Parms "UUR     MR      ", Count=     144
             Vector  Mate for "UVEL    " :  Diagnostic #     31 "VVEL    " exists
 Computing Diagnostic #    32 "WVEL    " (list#  1) Parms "WM      LR      ", Count=     144
 Computing Diagnostic #    31 "VVEL    " (list#  1) Parms "VVR     MR      ", Count=     144
             Vector  Mate for "VVEL    " :  Diagnostic #     30 "UVEL    " exists
 Computing Diagnostic #   197 "BRGfwFlx" (list#  2) Parms "SM      MR      ", Count=     144
 Computing Diagnostic #   198 "BRGhtFlx" (list#  2) Parms "SM      MR      ", Count=     144
 Computing Diagnostic #   199 "BRGmltRt" (list#  2) Parms "SM      MR      ", Count=     144
 Computing Diagnostic #   201 "BRG_TauX" (list#  2) Parms "UU      MR      ", Count=    1728
 Computing Diagnostic #   202 "BRG_TauY" (list#  2) Parms "VV      MR      ", Count=    1728
 Computing Diagnostic #   203 "BRGhFacC" (list#  2) Parms "SM      MR      ", Count=    1728
 cg2d: Sum(rhs),rhsMax =   6.60935389751316E-10  1.72651538726079E-02
 cg2d: Sum(rhs),rhsMax =   6.60986584910539E-10  1.72648848900577E-02
 cg2d: Sum(rhs),rhsMax =   6.61035462479198E-10  1.72646199592459E-02
 cg2d: Sum(rhs),rhsMax =   6.61083049413591E-10  1.72643536411820E-02
 cg2d: Sum(rhs),rhsMax =   6.61134813562114E-10  1.72640915582671E-02
 cg2d: Sum(rhs),rhsMax =   6.61174809346576E-10  1.72638282923982E-02
 cg2d: Sum(rhs),rhsMax =   6.61234275667333E-10  1.72635694763812E-02
 cg2d: Sum(rhs),rhsMax =   6.61278101721230E-10  1.72633097072496E-02
 cg2d: Sum(rhs),rhsMax =   6.61333099394312E-10  1.72630546247645E-02
 cg2d: Sum(rhs),rhsMax =   6.61377813626629E-10  1.72627988372981E-02
 cg2d: Sum(rhs),rhsMax =   6.61439333859981E-10  1.72625479894614E-02
 cg2d: Sum(rhs),rhsMax =   6.61494428677578E-10  1.72622967009948E-02
 cg2d: Sum(rhs),rhsMax =   6.61547788771699E-10  1.72620506146943E-02
 cg2d: Sum(rhs),rhsMax =   6.61610974339588E-10  1.72618043564513E-02
 cg2d: Sum(rhs),rhsMax =   6.61673688062692E-10  1.72615635697515E-02
 cg2d: Sum(rhs),rhsMax =   6.61718013716950E-10  1.72613228804949E-02
 cg2d: Sum(rhs),rhsMax =   6.61776855537255E-10  1.72610879232184E-02
 cg2d: Sum(rhs),rhsMax =   6.61824234304831E-10  1.72608533263324E-02
 cg2d: Sum(rhs),rhsMax =   6.61871030205319E-10  1.72606247114334E-02
 cg2d: Sum(rhs),rhsMax =   6.61926485845399E-10  1.72603967040810E-02
 cg2d: Sum(rhs),rhsMax =   6.61969312698574E-10  1.72601749105583E-02
 cg2d: Sum(rhs),rhsMax =   6.62021062969309E-10  1.72599539463249E-02
 cg2d: Sum(rhs),rhsMax =   6.62071591994717E-10  1.72597394015619E-02
 cg2d: Sum(rhs),rhsMax =   6.62124036154843E-10  1.72595258795813E-02
 cg2d: Sum(rhs),rhsMax =   6.62182489397090E-10  1.72593189469961E-02
 cg2d: Sum(rhs),rhsMax =   6.62243995752654E-10  1.72591131933757E-02
 cg2d: Sum(rhs),rhsMax =   6.62291985142893E-10  1.72589141611055E-02
 cg2d: Sum(rhs),rhsMax =   6.62339891266406E-10  1.72587164215686E-02
 cg2d: Sum(rhs),rhsMax =   6.62394833428337E-10  1.72585254888584E-02
 cg2d: Sum(rhs),rhsMax =   6.62431498543725E-10  1.72583359116850E-02
 cg2d: Sum(rhs),rhsMax =   6.62474644586020E-10  1.72581531779079E-02
 cg2d: Sum(rhs),rhsMax =   6.62526741801450E-10  1.72579718107208E-02
 cg2d: Sum(rhs),rhsMax =   6.62568458431601E-10  1.72577972689276E-02
 cg2d: Sum(rhs),rhsMax =   6.62625732061883E-10  1.72576240522949E-02
 cg2d: Sum(rhs),rhsMax =   6.62678731333521E-10  1.72574575845901E-02
 cg2d: Sum(rhs),rhsMax =   6.62720003874462E-10  1.72572923394863E-02
 cg2d: Sum(rhs),rhsMax =   6.62769450432421E-10  1.72571337102564E-02
 cg2d: Sum(rhs),rhsMax =   6.62806462492505E-10  1.72569761469615E-02
 cg2d: Sum(rhs),rhsMax =   6.62862764677641E-10  1.72568250069143E-02
 cg2d: Sum(rhs),rhsMax =   6.62917665206209E-10  1.72566747152577E-02
 cg2d: Sum(rhs),rhsMax =   6.62961491260106E-10  1.72565305993623E-02
 cg2d: Sum(rhs),rhsMax =   6.63000682132875E-10  1.72563870579828E-02
 cg2d: Sum(rhs),rhsMax =   6.63050878091376E-10  1.72562681971333E-02
 cg2d: Sum(rhs),rhsMax =   6.63092067365589E-10  1.72561815857700E-02
 cg2d: Sum(rhs),rhsMax =   6.63132770917230E-10  1.72560995562547E-02
 cg2d: Sum(rhs),rhsMax =   6.63177790460878E-10  1.72560159923522E-02
 cg2d: Sum(rhs),rhsMax =   6.63220367513873E-10  1.72559357710490E-02
 cg2d: Sum(rhs),rhsMax =   6.63265664613277E-10  1.72558527622444E-02
 cg2d: Sum(rhs),rhsMax =   6.63304050574354E-10  1.72557717728014E-02
 cg2d: Sum(rhs),rhsMax =   6.63342117346311E-10  1.72556867533613E-02
 cg2d: Sum(rhs),rhsMax =   6.63383389887251E-10  1.72556025425673E-02
 cg2d: Sum(rhs),rhsMax =   6.63439914116992E-10  1.72555131192681E-02
 cg2d: Sum(rhs),rhsMax =   6.63481672380506E-10  1.72554233578431E-02
 cg2d: Sum(rhs),rhsMax =   6.63522278787632E-10  1.72553272812187E-02
 cg2d: Sum(rhs),rhsMax =   6.63577179316199E-10  1.72552298110796E-02
 cg2d: Sum(rhs),rhsMax =   6.63632343522735E-10  1.72551250250431E-02
 cg2d: Sum(rhs),rhsMax =   6.63680901902275E-10  1.72550178990217E-02
 cg2d: Sum(rhs),rhsMax =   6.63716220872246E-10  1.72549025767981E-02
 cg2d: Sum(rhs),rhsMax =   6.63754759488988E-10  1.72547840947254E-02
 cg2d: Sum(rhs),rhsMax =   6.63807175893538E-10  1.72546566741342E-02
 cg2d: Sum(rhs),rhsMax =   6.63854235471995E-10  1.72545254181177E-02
 cg2d: Sum(rhs),rhsMax =   6.63900268094153E-10  1.72543846259812E-02
 cg2d: Sum(rhs),rhsMax =   6.63947105628004E-10  1.72542394774471E-02
 cg2d: Sum(rhs),rhsMax =   6.64002422490206E-10  1.72540843543967E-02
 cg2d: Sum(rhs),rhsMax =   6.64031440944512E-10  1.72539245137625E-02
 cg2d: Sum(rhs),rhsMax =   6.64094307323282E-10  1.72537544246601E-02
 cg2d: Sum(rhs),rhsMax =   6.64143948170270E-10  1.72535794218120E-02
 cg2d: Sum(rhs),rhsMax =   6.64187135845928E-10  1.72533940622688E-02
 cg2d: Sum(rhs),rhsMax =   6.64234320324475E-10  1.72532037585260E-02
 cg2d: Sum(rhs),rhsMax =   6.64296895269700E-10  1.72530031556470E-02
 cg2d: Sum(rhs),rhsMax =   6.64345717327208E-10  1.72527977458787E-02
 cg2d: Sum(rhs),rhsMax =   6.64399049665754E-10  1.72525822555893E-02
 cg2d: Sum(rhs),rhsMax =   6.64451493825879E-10  1.72523622529557E-02
 cg2d: Sum(rhs),rhsMax =   6.64489172019778E-10  1.72521325456541E-02
 cg2d: Sum(rhs),rhsMax =   6.64541296990784E-10  1.72518987747871E-02
 cg2d: Sum(rhs),rhsMax =   6.64582625042875E-10  1.72516558228795E-02
 cg2d: Sum(rhs),rhsMax =   6.64635638192301E-10  1.72514093948869E-02
 cg2d: Sum(rhs),rhsMax =   6.64686250484436E-10  1.72511544443779E-02
 cg2d: Sum(rhs),rhsMax =   6.64733990074495E-10  1.72508967349660E-02
 cg2d: Sum(rhs),rhsMax =   6.64792790261437E-10  1.72506312826084E-02
 cg2d: Sum(rhs),rhsMax =   6.64858113008648E-10  1.72503639002044E-02
 cg2d: Sum(rhs),rhsMax =   6.64899954538889E-10  1.72500896560118E-02
 cg2d: Sum(rhs),rhsMax =   6.64948152095945E-10  1.72498144069374E-02
 cg2d: Sum(rhs),rhsMax =   6.65005342459501E-10  1.72495332694948E-02
 cg2d: Sum(rhs),rhsMax =   6.65067820260212E-10  1.72492521267105E-02
 cg2d: Sum(rhs),rhsMax =   6.65124413878893E-10  1.72489661208025E-02
 cg2d: Sum(rhs),rhsMax =   6.65176080882901E-10  1.72486811581199E-02
 cg2d: Sum(rhs),rhsMax =   6.65216631778875E-10  1.72483924139110E-02
 cg2d: Sum(rhs),rhsMax =   6.65271338018414E-10  1.72481057942989E-02
 cg2d: Sum(rhs),rhsMax =   6.65326557736101E-10  1.72478165706898E-02
 cg2d: Sum(rhs),rhsMax =   6.65366511887200E-10  1.72475304270133E-02
 cg2d: Sum(rhs),rhsMax =   6.65416902134730E-10  1.72472429257819E-02
 cg2d: Sum(rhs),rhsMax =   6.65457994264429E-10  1.72469594400447E-02
 cg2d: Sum(rhs),rhsMax =   6.65510729858099E-10  1.72466758846186E-02
 cg2d: Sum(rhs),rhsMax =   6.65566213253754E-10  1.72463973046431E-02
 cg2d: Sum(rhs),rhsMax =   6.65619517836724E-10  1.72461198719524E-02
 cg2d: Sum(rhs),rhsMax =   6.65663038579289E-10  1.72458482449190E-02
 cg2d: Sum(rhs),rhsMax =   6.65715510494991E-10  1.72455789137146E-02
 cg2d: Sum(rhs),rhsMax =   6.65774005370601E-10  1.72453161404345E-02
 cg2d: Sum(rhs),rhsMax =   6.65834595792170E-10  1.72450567307538E-02
 cg2d: Sum(rhs),rhsMax =   6.65879920647150E-10  1.72448045315512E-02
 cg2d: Sum(rhs),rhsMax =   6.65931115806373E-10  1.72445566727705E-02
 cg2d: Sum(rhs),rhsMax =   6.65975705138599E-10  1.72443165721659E-02
 cg2d: Sum(rhs),rhsMax =   6.66033422858092E-10  1.72440816652441E-02
 cg2d: Sum(rhs),rhsMax =   6.66083771472259E-10  1.72438549373998E-02
 cg2d: Sum(rhs),rhsMax =   6.66132093929406E-10  1.72436341334358E-02
 cg2d: Sum(rhs),rhsMax =   6.66177862873596E-10  1.72434218011942E-02
 cg2d: Sum(rhs),rhsMax =   6.66236329993630E-10  1.72432159754510E-02
 cg2d: Sum(rhs),rhsMax =   6.66279253991320E-10  1.72430187760472E-02
 cg2d: Sum(rhs),rhsMax =   6.66327520937315E-10  1.72428285124873E-02
 cg2d: Sum(rhs),rhsMax =   6.66375135627284E-10  1.72426468904865E-02
 cg2d: Sum(rhs),rhsMax =   6.66420710282445E-10  1.72424724692811E-02
 cg2d: Sum(rhs),rhsMax =   6.66464078369344E-10  1.72423065635380E-02
 cg2d: Sum(rhs),rhsMax =   6.66509819557959E-10  1.72421479557663E-02
 cg2d: Sum(rhs),rhsMax =   6.66558655493255E-10  1.72419976026482E-02
 cg2d: Sum(rhs),rhsMax =   6.66592225861962E-10  1.72418544706668E-02
 cg2d: Sum(rhs),rhsMax =   6.66641672419921E-10  1.72417191991048E-02
 cg2d: Sum(rhs),rhsMax =   6.66687302586233E-10  1.72415909046803E-02
 cg2d: Sum(rhs),rhsMax =   6.66733127041574E-10  1.72414699478478E-02
 cg2d: Sum(rhs),rhsMax =   6.66777355551318E-10  1.72413555597704E-02
 cg2d: Sum(rhs),rhsMax =   6.66822624895147E-10  1.72412478709219E-02
 cg2d: Sum(rhs),rhsMax =   6.66863134157758E-10  1.72411461820116E-02
 cg2d: Sum(rhs),rhsMax =   6.66912178259871E-10  1.72410504493350E-02
 cg2d: Sum(rhs),rhsMax =   6.66969021678732E-10  1.72409599989781E-02
 cg2d: Sum(rhs),rhsMax =   6.67020438882560E-10  1.72408746712977E-02
 cg2d: Sum(rhs),rhsMax =   6.67071675675146E-10  1.72407937723780E-02
 cg2d: Sum(rhs),rhsMax =   6.67111171859247E-10  1.72407170842448E-02
 cg2d: Sum(rhs),rhsMax =   6.67151917044251E-10  1.72406438633360E-02
 cg2d: Sum(rhs),rhsMax =   6.67206026538913E-10  1.72405738507140E-02
 cg2d: Sum(rhs),rhsMax =   6.67245925178861E-10  1.72405062700682E-02
 cg2d: Sum(rhs),rhsMax =   6.67294844380883E-10  1.72404408265080E-02
 cg2d: Sum(rhs),rhsMax =   6.67339156157354E-10  1.72403767151656E-02
 cg2d: Sum(rhs),rhsMax =   6.67383967534185E-10  1.72403136195857E-02
 cg2d: Sum(rhs),rhsMax =   6.67429375655892E-10  1.72402507165685E-02
 cg2d: Sum(rhs),rhsMax =   6.67459365555345E-10  1.72401876759323E-02
 cg2d: Sum(rhs),rhsMax =   6.67500957285405E-10  1.72401236648233E-02
 cg2d: Sum(rhs),rhsMax =   6.67548100130588E-10  1.72400583515775E-02
 cg2d: Sum(rhs),rhsMax =   6.67577451651802E-10  1.72399909033404E-02
 cg2d: Sum(rhs),rhsMax =   6.67614949434459E-10  1.72399209932819E-02
 cg2d: Sum(rhs),rhsMax =   6.67653848873684E-10  1.72398478033576E-02
 cg2d: Sum(rhs),rhsMax =   6.67704114221124E-10  1.72397710217162E-02
 cg2d: Sum(rhs),rhsMax =   6.67747523941387E-10  1.72396898476629E-02
 cg2d: Sum(rhs),rhsMax =   6.67795679865080E-10  1.72396039974216E-02
 cg2d: Sum(rhs),rhsMax =   6.67858476854910E-10  1.72395127015983E-02
 Computing Diagnostic #    26 "THETA   " (list#  1) Parms "SMR     MR      ", Count=     144
 Computing Diagnostic #    27 "SALT    " (list#  1) Parms "SMR     MR      ", Count=     144
 Computing Diagnostic #    30 "UVEL    " (list#  1) Parms "UUR     MR      ", Count=     144
             Vector  Mate for "UVEL    " :  Diagnostic #     31 "VVEL    " exists
 Computing Diagnostic #    32 "WVEL    " (list#  1) Parms "WM      LR      ", Count=     144
 Computing Diagnostic #    31 "VVEL    " (list#  1) Parms "VVR     MR      ", Count=     144
             Vector  Mate for "VVEL    " :  Diagnostic #     30 "UVEL    " exists
 Computing Diagnostic #   197 "BRGfwFlx" (list#  2) Parms "SM      MR      ", Count=     144
 Computing Diagnostic #   198 "BRGhtFlx" (list#  2) Parms "SM      MR      ", Count=     144
 Computing Diagnostic #   199 "BRGmltRt" (list#  2) Parms "SM      MR      ", Count=     144
 Computing Diagnostic #   201 "BRG_TauX" (list#  2) Parms "UU      MR      ", Count=    1728
 Computing Diagnostic #   202 "BRG_TauY" (list#  2) Parms "VV      MR      ", Count=    1728
 Computing Diagnostic #   203 "BRGhFacC" (list#  2) Parms "SM      MR      ", Count=    1728
 cg2d: Sum(rhs),rhsMax =   6.67897098738379E-10  1.72394157061389E-02
 cg2d: Sum(rhs),rhsMax =   6.67943630960899E-10  1.72393122816832E-02
 cg2d: Sum(rhs),rhsMax =   6.67989843994299E-10  1.72392022172230E-02
 cg2d: Sum(rhs),rhsMax =   6.68039706885892E-10  1.72390848268919E-02
 cg2d: Sum(rhs),rhsMax =   6.68086835853288E-10  1.72389599516137E-02
 cg2d: Sum(rhs),rhsMax =   6.68133937065107E-10  1.72388269565977E-02
 cg2d: Sum(rhs),rhsMax =   6.68189545360853E-10  1.72386857369567E-02
 cg2d: Sum(rhs),rhsMax =   6.68246388779714E-10  1.72385357187933E-02
 cg2d: Sum(rhs),rhsMax =   6.68283442473161E-10  1.72383768569442E-02
 cg2d: Sum(rhs),rhsMax =   6.68322078234418E-10  1.72382086407130E-02
 cg2d: Sum(rhs),rhsMax =   6.68367888811972E-10  1.72380310879307E-02
 cg2d: Sum(rhs),rhsMax =   6.68408273174492E-10  1.72378437562555E-02
 cg2d: Sum(rhs),rhsMax =   6.68469807285632E-10  1.72376467317419E-02
 cg2d: Sum(rhs),rhsMax =   6.68507915690952E-10  1.72374396407265E-02
 cg2d: Sum(rhs),rhsMax =   6.68546051851848E-10  1.72372226383674E-02
 cg2d: Sum(rhs),rhsMax =   6.68589308916445E-10  1.72369954191106E-02
 cg2d: Sum(rhs),rhsMax =   6.68650648738556E-10  1.72367582112789E-02
 cg2d: Sum(rhs),rhsMax =   6.68709684847890E-10  1.72365107782493E-02
 cg2d: Sum(rhs),rhsMax =   6.68750402277318E-10  1.72362534270716E-02
 cg2d: Sum(rhs),rhsMax =   6.68804275849588E-10  1.72359859614957E-02
 cg2d: Sum(rhs),rhsMax =   6.68854013841091E-10  1.72357087648119E-02
 cg2d: Sum(rhs),rhsMax =   6.68891192434629E-10  1.72354217444307E-02
 cg2d: Sum(rhs),rhsMax =   6.68946120718772E-10  1.72351253191430E-02
 cg2d: Sum(rhs),rhsMax =   6.68992292118809E-10  1.72348194522915E-02
 cg2d: Sum(rhs),rhsMax =   6.69045666090717E-10  1.72345046283217E-02
 cg2d: Sum(rhs),rhsMax =   6.69094335492559E-10  1.72341808707883E-02
 cg2d: Sum(rhs),rhsMax =   6.69144670228938E-10  1.72338487194970E-02
 cg2d: Sum(rhs),rhsMax =   6.69200236891321E-10  1.72335082496983E-02
 cg2d: Sum(rhs),rhsMax =   6.69240690642781E-10  1.72331600510264E-02
 cg2d: Sum(rhs),rhsMax =   6.69301433720015E-10  1.72328042440782E-02
 cg2d: Sum(rhs),rhsMax =   6.69354863203075E-10  1.72324414602710E-02
 cg2d: Sum(rhs),rhsMax =   6.69413344200898E-10  1.72320718600885E-02
 cg2d: Sum(rhs),rhsMax =   6.69475933023911E-10  1.72316961109746E-02
 cg2d: Sum(rhs),rhsMax =   6.69534483410672E-10  1.72313144023800E-02
 cg2d: Sum(rhs),rhsMax =   6.69593269719826E-10  1.72309274296055E-02
 cg2d: Sum(rhs),rhsMax =   6.69648100859455E-10  1.72305354067761E-02
 cg2d: Sum(rhs),rhsMax =   6.69701322175698E-10  1.72301390459562E-02
 cg2d: Sum(rhs),rhsMax =   6.69750740978081E-10  1.72297385768642E-02
 cg2d: Sum(rhs),rhsMax =   6.69807362352337E-10  1.72293347255566E-02
 cg2d: Sum(rhs),rhsMax =   6.69856836665872E-10  1.72289277228077E-02
 cg2d: Sum(rhs),rhsMax =   6.69923269636108E-10  1.72285182992739E-02
 cg2d: Sum(rhs),rhsMax =   6.69969510425084E-10  1.72281066862783E-02
 cg2d: Sum(rhs),rhsMax =   6.70027491822545E-10  1.72276936044264E-02
 cg2d: Sum(rhs),rhsMax =   6.70086180987184E-10  1.72272792777715E-02
 cg2d: Sum(rhs),rhsMax =   6.70139263525549E-10  1.72268644124144E-02
 cg2d: Sum(rhs),rhsMax =   6.70195010599173E-10  1.72264492136793E-02
 cg2d: Sum(rhs),rhsMax =   6.70247884970721E-10  1.72260343674729E-02
 cg2d: Sum(rhs),rhsMax =   6.70293154314550E-10  1.72256200522737E-02
 cg2d: Sum(rhs),rhsMax =   6.70347735653998E-10  1.72252069280420E-02
 cg2d: Sum(rhs),rhsMax =   6.70409242009562E-10  1.72247951411370E-02
 cg2d: Sum(rhs),rhsMax =   6.70467528718355E-10  1.72243853120510E-02
 cg2d: Sum(rhs),rhsMax =   6.70527425250533E-10  1.72239775515202E-02
 cg2d: Sum(rhs),rhsMax =   6.70583713557882E-10  1.72235724394984E-02
 cg2d: Sum(rhs),rhsMax =   6.70633104604690E-10  1.72231700401128E-02
 cg2d: Sum(rhs),rhsMax =   6.70696401194881E-10  1.72227708892478E-02
 cg2d: Sum(rhs),rhsMax =   6.70751731934871E-10  1.72223750101454E-02
 cg2d: Sum(rhs),rhsMax =   6.70810240688269E-10  1.72219828823474E-02
 cg2d: Sum(rhs),rhsMax =   6.70862088103519E-10  1.72215944746212E-02
 cg2d: Sum(rhs),rhsMax =   6.70916211475969E-10  1.72212102182128E-02
 cg2d: Sum(rhs),rhsMax =   6.70972014060744E-10  1.72208300251592E-02
 cg2d: Sum(rhs),rhsMax =   6.71022029608004E-10  1.72204542751304E-02
 cg2d: Sum(rhs),rhsMax =   6.71079622427406E-10  1.72200828221693E-02
 cg2d: Sum(rhs),rhsMax =   6.71129596341302E-10  1.72197159884313E-02
 cg2d: Sum(rhs),rhsMax =   6.71180694356011E-10  1.72193535773895E-02
 cg2d: Sum(rhs),rhsMax =   6.71235747540244E-10  1.72189958528698E-02
 cg2d: Sum(rhs),rhsMax =   6.71285901865382E-10  1.72186425605973E-02
 cg2d: Sum(rhs),rhsMax =   6.71344813074626E-10  1.72182939108295E-02
 cg2d: Sum(rhs),rhsMax =   6.71397049067934E-10  1.72179495982710E-02
 cg2d: Sum(rhs),rhsMax =   6.71455557821332E-10  1.72176097786909E-02
 cg2d: Sum(rhs),rhsMax =   6.71508681993060E-10  1.72172740942797E-02
 cg2d: Sum(rhs),rhsMax =   6.71565483778558E-10  1.72169426485899E-02
 cg2d: Sum(rhs),rhsMax =   6.71628683224235E-10  1.72166150371156E-02
 cg2d: Sum(rhs),rhsMax =   6.71678906938311E-10  1.72162913200825E-02
 cg2d: Sum(rhs),rhsMax =   6.71741787194868E-10  1.72159710451795E-02
 cg2d: Sum(rhs),rhsMax =   6.71789984751925E-10  1.72156542299212E-02
 cg2d: Sum(rhs),rhsMax =   6.71846217548122E-10  1.72153399900699E-02
 cg2d: Sum(rhs),rhsMax =   6.71903477300617E-10  1.72150281190455E-02
 cg2d: Sum(rhs),rhsMax =   6.71959404785483E-10  1.72147181006638E-02
 cg2d: Sum(rhs),rhsMax =   6.72015637581680E-10  1.72144098964876E-02
 cg2d: Sum(rhs),rhsMax =   6.72078559471601E-10  1.72141029722271E-02
 cg2d: Sum(rhs),rhsMax =   6.72127992151772E-10  1.72137972776691E-02
 cg2d: Sum(rhs),rhsMax =   6.72174885196775E-10  1.72134922717539E-02
 cg2d: Sum(rhs),rhsMax =   6.72221639463899E-10  1.72131878937378E-02
 cg2d: Sum(rhs),rhsMax =   6.72275193847049E-10  1.72128835976617E-02
 cg2d: Sum(rhs),rhsMax =   6.72326652684241E-10  1.72125793258739E-02
 cg2d: Sum(rhs),rhsMax =   6.72384675715065E-10  1.72122745325710E-02
 cg2d: Sum(rhs),rhsMax =   6.72444044891307E-10  1.72119691625681E-02
 cg2d: Sum(rhs),rhsMax =   6.72500971576895E-10  1.72116626801284E-02
 cg2d: Sum(rhs),rhsMax =   6.72567973536431E-10  1.72113550380054E-02
 cg2d: Sum(rhs),rhsMax =   6.72624761444141E-10  1.72110457123784E-02
 cg2d: Sum(rhs),rhsMax =   6.72680855462460E-10  1.72107346697298E-02
 cg2d: Sum(rhs),rhsMax =   6.72727554218433E-10  1.72104214028544E-02
 cg2d: Sum(rhs),rhsMax =   6.72778416310749E-10  1.72101058982391E-02
 cg2d: Sum(rhs),rhsMax =   6.72839575721618E-10  1.72097876650878E-02
 cg2d: Sum(rhs),rhsMax =   6.72893046838041E-10  1.72094667150929E-02
 cg2d: Sum(rhs),rhsMax =   6.72937539025753E-10  1.72091425812133E-02
 cg2d: Sum(rhs),rhsMax =   6.72994660000370E-10  1.72088152967533E-02
 cg2d: Sum(rhs),rhsMax =   6.73059025180223E-10  1.72084844242117E-02
 cg2d: Sum(rhs),rhsMax =   6.73100838954888E-10  1.72081500206704E-02
 cg2d: Sum(rhs),rhsMax =   6.73160902020520E-10  1.72078116785085E-02
 cg2d: Sum(rhs),rhsMax =   6.73214636814912E-10  1.72074694856569E-02
 cg2d: Sum(rhs),rhsMax =   6.73274283546910E-10  1.72071230609805E-02
 cg2d: Sum(rhs),rhsMax =   6.73335803780262E-10  1.72067725243148E-02
 cg2d: Sum(rhs),rhsMax =   6.73381669868967E-10  1.72064175261931E-02
 cg2d: Sum(rhs),rhsMax =   6.73449060406561E-10  1.72060582150905E-02
 cg2d: Sum(rhs),rhsMax =   6.73503960935129E-10  1.72056942727017E-02
 cg2d: Sum(rhs),rhsMax =   6.73546662888214E-10  1.72053258778515E-02
 cg2d: Sum(rhs),rhsMax =   6.73608183121566E-10  1.72049527436712E-02
 cg2d: Sum(rhs),rhsMax =   6.73662445271894E-10  1.72045750796897E-02
 cg2d: Sum(rhs),rhsMax =   6.73725172872786E-10  1.72041926261072E-02
 cg2d: Sum(rhs),rhsMax =   6.73783487337154E-10  1.72038056234849E-02
 cg2d: Sum(rhs),rhsMax =   6.73829658737191E-10  1.72034138424723E-02
 cg2d: Sum(rhs),rhsMax =   6.73898714609322E-10  1.72030175473776E-02
 cg2d: Sum(rhs),rhsMax =   6.73949215879155E-10  1.72026165379767E-02
 cg2d: Sum(rhs),rhsMax =   6.73995179112374E-10  1.72022111047670E-02
 cg2d: Sum(rhs),rhsMax =   6.74055172789068E-10  1.72018010728811E-02
 cg2d: Sum(rhs),rhsMax =   6.74123326604992E-10  1.72013867553947E-02
 cg2d: Sum(rhs),rhsMax =   6.74191827365611E-10  1.72009680004950E-02
 cg2d: Sum(rhs),rhsMax =   6.74245242970883E-10  1.72005451422859E-02
 cg2d: Sum(rhs),rhsMax =   6.74305875025816E-10  1.72001180518856E-02
 cg2d: Sum(rhs),rhsMax =   6.74370059794427E-10  1.71996870835832E-02
 cg2d: Sum(rhs),rhsMax =   6.74428179969766E-10  1.71992521242130E-02
 cg2d: Sum(rhs),rhsMax =   6.74477862450118E-10  1.71988135449496E-02
 cg2d: Sum(rhs),rhsMax =   6.74535940992094E-10  1.71983712479012E-02
 cg2d: Sum(rhs),rhsMax =   6.74588065963100E-10  1.71979256203430E-02
 cg2d: Sum(rhs),rhsMax =   6.74642272602277E-10  1.71974765761616E-02
 cg2d: Sum(rhs),rhsMax =   6.74685918244933E-10  1.71970245163755E-02
 cg2d: Sum(rhs),rhsMax =   6.74749797702212E-10  1.71965693653464E-02
 cg2d: Sum(rhs),rhsMax =   6.74798689148659E-10  1.71961115304911E-02
 cg2d: Sum(rhs),rhsMax =   6.74867536853974E-10  1.71956509484689E-02
 cg2d: Sum(rhs),rhsMax =   6.74937675193554E-10  1.71951880341955E-02
 cg2d: Sum(rhs),rhsMax =   6.74993588800632E-10  1.71947227279669E-02
 cg2d: Sum(rhs),rhsMax =   6.75049835474617E-10  1.71942554482689E-02
 cg2d: Sum(rhs),rhsMax =   6.75115810477855E-10  1.71937861430175E-02
 cg2d: Sum(rhs),rhsMax =   6.75174402497980E-10  1.71933152358340E-02
 cg2d: Sum(rhs),rhsMax =   6.75216937917611E-10  1.71928426728068E-02
 cg2d: Sum(rhs),rhsMax =   6.75282121886944E-10  1.71923688804851E-02
 cg2d: Sum(rhs),rhsMax =   6.75348152401334E-10  1.71918938074532E-02
 cg2d: Sum(rhs),rhsMax =   6.75403441507960E-10  1.71914178774079E-02
 cg2d: Sum(rhs),rhsMax =   6.75463726618197E-10  1.71909410395469E-02
 cg2d: Sum(rhs),rhsMax =   6.75512382142252E-10  1.71904637156596E-02
 cg2d: Sum(rhs),rhsMax =   6.75580730247205E-10  1.71899858540685E-02
 cg2d: Sum(rhs),rhsMax =   6.75636491198617E-10  1.71895078741967E-02
 cg2d: Sum(rhs),rhsMax =   6.75696554264249E-10  1.71890297205286E-02
 Computing Diagnostic #    26 "THETA   " (list#  1) Parms "SMR     MR      ", Count=     144
 Computing Diagnostic #    27 "SALT    " (list#  1) Parms "SMR     MR      ", Count=     144
 Computing Diagnostic #    30 "UVEL    " (list#  1) Parms "UUR     MR      ", Count=     144
             Vector  Mate for "UVEL    " :  Diagnostic #     31 "VVEL    " exists
 Computing Diagnostic #    32 "WVEL    " (list#  1) Parms "WM      LR      ", Count=     144
 Computing Diagnostic #    31 "VVEL    " (list#  1) Parms "VVR     MR      ", Count=     144
             Vector  Mate for "VVEL    " :  Diagnostic #     30 "UVEL    " exists
 Computing Diagnostic #   197 "BRGfwFlx" (list#  2) Parms "SM      MR      ", Count=     144
 Computing Diagnostic #   198 "BRGhtFlx" (list#  2) Parms "SM      MR      ", Count=     144
 Computing Diagnostic #   199 "BRGmltRt" (list#  2) Parms "SM      MR      ", Count=     144
 Computing Diagnostic #   201 "BRG_TauX" (list#  2) Parms "UU      MR      ", Count=    1728
 Computing Diagnostic #   202 "BRG_TauY" (list#  2) Parms "VV      MR      ", Count=    1728
 Computing Diagnostic #   203 "BRGhFacC" (list#  2) Parms "SM      MR      ", Count=    1728
 cg2d: Sum(rhs),rhsMax =   6.75759823098865E-10  1.71885518080656E-02
 cg2d: Sum(rhs),rhsMax =   6.75816999584633E-10  1.71880740781008E-02
 cg2d: Sum(rhs),rhsMax =   6.75880587608368E-10  1.71875969420837E-02
 cg2d: Sum(rhs),rhsMax =   6.75946895678514E-10  1.71871203349197E-02
 cg2d: Sum(rhs),rhsMax =   6.76016340128704E-10  1.71866446658255E-02
 cg2d: Sum(rhs),rhsMax =   6.76064801363729E-10  1.71861698637978E-02
 cg2d: Sum(rhs),rhsMax =   6.76125821996720E-10  1.71856963293469E-02
 cg2d: Sum(rhs),rhsMax =   6.76180250680503E-10  1.71852239897891E-02
 cg2d: Sum(rhs),rhsMax =   6.76231293184060E-10  1.71847532392554E-02
 cg2d: Sum(rhs),rhsMax =   6.76286082690325E-10  1.71842839962000E-02
 cg2d: Sum(rhs),rhsMax =   6.76349823369726E-10  1.71838166505587E-02
 cg2d: Sum(rhs),rhsMax =   6.76413036693191E-10  1.71833511117236E-02
 cg2d: Sum(rhs),rhsMax =   6.76472253213767E-10  1.71828877644734E-02
 cg2d: Sum(rhs),rhsMax =   6.76544070765672E-10  1.71824265141725E-02
 cg2d: Sum(rhs),rhsMax =   6.76592420978395E-10  1.71819677335869E-02
 cg2d: Sum(rhs),rhsMax =   6.76654468567683E-10  1.71815113242418E-02
 cg2d: Sum(rhs),rhsMax =   6.76716099823338E-10  1.71810576521186E-02
 cg2d: Sum(rhs),rhsMax =   6.76773179164591E-10  1.71806066070491E-02
 cg2d: Sum(rhs),rhsMax =   6.76824596368419E-10  1.71801585499157E-02
 cg2d: Sum(rhs),rhsMax =   6.76876332761367E-10  1.71797133652776E-02
 cg2d: Sum(rhs),rhsMax =   6.76931816157023E-10  1.71792714022707E-02
 cg2d: Sum(rhs),rhsMax =   6.76980027591867E-10  1.71788325350995E-02
 cg2d: Sum(rhs),rhsMax =   6.77036662843911E-10  1.71783971099196E-02
 cg2d: Sum(rhs),rhsMax =   6.77094144641011E-10  1.71779649891313E-02
 cg2d: Sum(rhs),rhsMax =   6.77149322725334E-10  1.71775365083520E-02
 cg2d: Sum(rhs),rhsMax =   6.77211647870379E-10  1.71771115239368E-02
 cg2d: Sum(rhs),rhsMax =   6.77267353310640E-10  1.71766903590872E-02
 cg2d: Sum(rhs),rhsMax =   6.77331218890131E-10  1.71762728615604E-02
 cg2d: Sum(rhs),rhsMax =   6.77380512792425E-10  1.71758593443195E-02
 cg2d: Sum(rhs),rhsMax =   6.77430875284379E-10  1.71754496447706E-02
 cg2d: Sum(rhs),rhsMax =   6.77476047483694E-10  1.71750440648738E-02
 cg2d: Sum(rhs),rhsMax =   6.77538039561831E-10  1.71746424284125E-02
 cg2d: Sum(rhs),rhsMax =   6.77592412734462E-10  1.71742450289945E-02
 cg2d: Sum(rhs),rhsMax =   6.77653197445061E-10  1.71738516794318E-02
 cg2d: Sum(rhs),rhsMax =   6.77712386210061E-10  1.71734626572527E-02
 cg2d: Sum(rhs),rhsMax =   6.77777209356911E-10  1.71730777657031E-02
 cg2d: Sum(rhs),rhsMax =   6.77833109086201E-10  1.71726972676004E-02
 cg2d: Sum(rhs),rhsMax =   6.77879280486238E-10  1.71723209550183E-02
 cg2d: Sum(rhs),rhsMax =   6.77934999804286E-10  1.71719490791084E-02
 cg2d: Sum(rhs),rhsMax =   6.77995881659399E-10  1.71715814134343E-02
 cg2d: Sum(rhs),rhsMax =   6.78061301551125E-10  1.71712181987375E-02
 cg2d: Sum(rhs),rhsMax =   6.78111497509626E-10  1.71708591942009E-02
 cg2d: Sum(rhs),rhsMax =   6.78165773537742E-10  1.71705046248734E-02
 cg2d: Sum(rhs),rhsMax =   6.78214207017191E-10  1.71701542383364E-02
 cg2d: Sum(rhs),rhsMax =   6.78278183618986E-10  1.71698082431931E-02
 cg2d: Sum(rhs),rhsMax =   6.78324216241144E-10  1.71694663735679E-02
 cg2d: Sum(rhs),rhsMax =   6.78370651319149E-10  1.71691288236182E-02
 cg2d: Sum(rhs),rhsMax =   6.78434322609611E-10  1.71687953119397E-02
 cg2d: Sum(rhs),rhsMax =   6.78492595440616E-10  1.71684660191971E-02
 cg2d: Sum(rhs),rhsMax =   6.78555850397444E-10  1.71681406483836E-02
 cg2d: Sum(rhs),rhsMax =   6.78606754123123E-10  1.71678193675952E-02
 cg2d: Sum(rhs),rhsMax =   6.78663333864016E-10  1.71675018661939E-02
 cg2d: Sum(rhs),rhsMax =   6.78729877856554E-10  1.71671882978871E-02
 cg2d: Sum(rhs),rhsMax =   6.78789496832977E-10  1.71668783388543E-02
 cg2d: Sum(rhs),rhsMax =   6.78840775258926E-10  1.71665721285515E-02
 cg2d: Sum(rhs),rhsMax =   6.78899603201444E-10  1.71662693319892E-02
 cg2d: Sum(rhs),rhsMax =   6.78958528288476E-10  1.71659700776820E-02
 cg2d: Sum(rhs),rhsMax =   6.78993875014022E-10  1.71656740165765E-02
 cg2d: Sum(rhs),rhsMax =   6.79057532426697E-10  1.71653812683207E-02
 cg2d: Sum(rhs),rhsMax =   6.79127254432643E-10  1.71650914753877E-02
 cg2d: Sum(rhs),rhsMax =   6.79181100249338E-10  1.71648047430494E-02
 cg2d: Sum(rhs),rhsMax =   6.79220221733168E-10  1.71645207068933E-02
 cg2d: Sum(rhs),rhsMax =   6.79277495363451E-10  1.71642394666354E-02
 cg2d: Sum(rhs),rhsMax =   6.79322861851794E-10  1.71639606492492E-02
 cg2d: Sum(rhs),rhsMax =   6.79378941992326E-10  1.71636843482342E-02
 cg2d: Sum(rhs),rhsMax =   6.79438838524504E-10  1.71634101851027E-02
 cg2d: Sum(rhs),rhsMax =   6.79493808442011E-10  1.71631382467629E-02
 cg2d: Sum(rhs),rhsMax =   6.79551651061594E-10  1.71628681561021E-02
 cg2d: Sum(rhs),rhsMax =   6.79600556385829E-10  1.71625999962450E-02
 cg2d: Sum(rhs),rhsMax =   6.79650086210515E-10  1.71623333869463E-02
 cg2d: Sum(rhs),rhsMax =   6.79693482052990E-10  1.71620684104158E-02
 cg2d: Sum(rhs),rhsMax =   6.79754086352347E-10  1.71618046896810E-02
 cg2d: Sum(rhs),rhsMax =   6.79802658609674E-10  1.71615423089146E-02
 cg2d: Sum(rhs),rhsMax =   6.79848274898198E-10  1.71612808925103E-02
 cg2d: Sum(rhs),rhsMax =   6.79890393984195E-10  1.71610205301661E-02
 cg2d: Sum(rhs),rhsMax =   6.79934428204909E-10  1.71607608492547E-02
 cg2d: Sum(rhs),rhsMax =   6.79974521133886E-10  1.71605019470970E-02
 cg2d: Sum(rhs),rhsMax =   6.80029046962183E-10  1.71602434597378E-02
 cg2d: Sum(rhs),rhsMax =   6.80080797232918E-10  1.71599854912711E-02
 cg2d: Sum(rhs),rhsMax =   6.80140249675887E-10  1.71597276865701E-02
 cg2d: Sum(rhs),rhsMax =   6.80196024505086E-10  1.71594701590358E-02
 cg2d: Sum(rhs),rhsMax =   6.80245040851624E-10  1.71592125669392E-02
 cg2d: Sum(rhs),rhsMax =   6.80292294719109E-10  1.71589550337616E-02
 cg2d: Sum(rhs),rhsMax =   6.80353121063071E-10  1.71586972627111E-02
 cg2d: Sum(rhs),rhsMax =   6.80391604168662E-10  1.71584394094291E-02
 cg2d: Sum(rhs),rhsMax =   6.80438025368879E-10  1.71581811581011E-02
 cg2d: Sum(rhs),rhsMax =   6.80485695569999E-10  1.71579226608581E-02
 cg2d: Sum(rhs),rhsMax =   6.80540720998657E-10  1.71576636154141E-02
 cg2d: Sum(rhs),rhsMax =   6.80596884405915E-10  1.71574041906254E-02
 cg2d: Sum(rhs),rhsMax =   6.80638226335795E-10  1.71571441005370E-02
 cg2d: Sum(rhs),rhsMax =   6.80691294996372E-10  1.71568835300243E-02
 cg2d: Sum(rhs),rhsMax =   6.80738340697040E-10  1.71566222078533E-02
 cg2d: Sum(rhs),rhsMax =   6.80781278572518E-10  1.71563603352521E-02
 cg2d: Sum(rhs),rhsMax =   6.80840162026186E-10  1.71560976611073E-02
 cg2d: Sum(rhs),rhsMax =   6.80888637138999E-10  1.71558344006553E-02
 cg2d: Sum(rhs),rhsMax =   6.80937750630051E-10  1.71555703213652E-02
 cg2d: Sum(rhs),rhsMax =   6.80987405354827E-10  1.71553056545543E-02
 cg2d: Sum(rhs),rhsMax =   6.81042375272334E-10  1.71550401830083E-02
 cg2d: Sum(rhs),rhsMax =   6.81097400700992E-10  1.71547741580633E-02
 cg2d: Sum(rhs),rhsMax =   6.81142628411457E-10  1.71545073776593E-02
 cg2d: Sum(rhs),rhsMax =   6.81182624195920E-10  1.71542401070150E-02
 cg2d: Sum(rhs),rhsMax =   6.81231446253427E-10  1.71539721628792E-02
 cg2d: Sum(rhs),rhsMax =   6.81293244042536E-10  1.71537038234558E-02
 cg2d: Sum(rhs),rhsMax =   6.81344231034942E-10  1.71534349190957E-02
 cg2d: Sum(rhs),rhsMax =   6.81400907920349E-10  1.71531657448876E-02
 cg2d: Sum(rhs),rhsMax =   6.81456335804853E-10  1.71528961409568E-02
 cg2d: Sum(rhs),rhsMax =   6.81516648670666E-10  1.71526264154446E-02
 cg2d: Sum(rhs),rhsMax =   6.81567954852191E-10  1.71523564219028E-02
 cg2d: Sum(rhs),rhsMax =   6.81618539388751E-10  1.71520864783107E-02
 cg2d: Sum(rhs),rhsMax =   6.81664544255334E-10  1.71518164489198E-02
 cg2d: Sum(rhs),rhsMax =   6.81716225137130E-10  1.71515466576729E-02
 cg2d: Sum(rhs),rhsMax =   6.81782755251881E-10  1.71512769780858E-02
 cg2d: Sum(rhs),rhsMax =   6.81828413173768E-10  1.71510077426785E-02
 cg2d: Sum(rhs),rhsMax =   6.81875431118861E-10  1.71507388277226E-02
 cg2d: Sum(rhs),rhsMax =   6.81941433877675E-10  1.71504706065309E-02
 cg2d: Sum(rhs),rhsMax =   6.81994974383038E-10  1.71502029594481E-02
 cg2d: Sum(rhs),rhsMax =   6.82041742527950E-10  1.71499362258755E-02
 cg2d: Sum(rhs),rhsMax =   6.82103276639090E-10  1.71496702880120E-02
 cg2d: Sum(rhs),rhsMax =   6.82144341013213E-10  1.71494054829782E-02
 cg2d: Sum(rhs),rhsMax =   6.82187945022505E-10  1.71491416921239E-02
 cg2d: Sum(rhs),rhsMax =   6.82240985927507E-10  1.71488792513298E-02
 cg2d: Sum(rhs),rhsMax =   6.82301742882530E-10  1.71486180386398E-02
 cg2d: Sum(rhs),rhsMax =   6.82356032788434E-10  1.71483583927724E-02
 cg2d: Sum(rhs),rhsMax =   6.82400094764724E-10  1.71481001322399E-02
 cg2d: Sum(rhs),rhsMax =   6.82465722823267E-10  1.71478436278173E-02
 cg2d: Sum(rhs),rhsMax =   6.82518486172512E-10  1.71475887259501E-02
 cg2d: Sum(rhs),rhsMax =   6.82571846266633E-10  1.71473357314276E-02
 cg2d: Sum(rhs),rhsMax =   6.82622819381251E-10  1.71470844975841E-02
 cg2d: Sum(rhs),rhsMax =   6.82676137842009E-10  1.71468353306351E-02
 cg2d: Sum(rhs),rhsMax =   6.82726195022632E-10  1.71465880750323E-02
 cg2d: Sum(rhs),rhsMax =   6.82772893778605E-10  1.71463430296979E-02
 cg2d: Sum(rhs),rhsMax =   6.82822937081440E-10  1.71461000322939E-02
 cg2d: Sum(rhs),rhsMax =   6.82883957714431E-10  1.71458593706913E-02
 cg2d: Sum(rhs),rhsMax =   6.82941467267106E-10  1.71456208751842E-02
 cg2d: Sum(rhs),rhsMax =   6.82990095035585E-10  1.71453848259396E-02
 cg2d: Sum(rhs),rhsMax =   6.83042233884379E-10  1.71451510445488E-02
 cg2d: Sum(rhs),rhsMax =   6.83077511220986E-10  1.71449198012744E-02
 cg2d: Sum(rhs),rhsMax =   6.83133091761157E-10  1.71446909075398E-02
 cg2d: Sum(rhs),rhsMax =   6.83184370187107E-10  1.71444646243883E-02
 cg2d: Sum(rhs),rhsMax =   6.83231526910077E-10  1.71442407554821E-02
 cg2d: Sum(rhs),rhsMax =   6.83282014302122E-10  1.71440195492911E-02
 cg2d: Sum(rhs),rhsMax =   6.83321343952770E-10  1.71438007994840E-02
 cg2d: Sum(rhs),rhsMax =   6.83374842824769E-10  1.71435847465132E-02
 cg2d: Sum(rhs),rhsMax =   6.83423095892977E-10  1.71433711699847E-02
 Computing Diagnostic #    26 "THETA   " (list#  1) Parms "SMR     MR      ", Count=     144
 Computing Diagnostic #    27 "SALT    " (list#  1) Parms "SMR     MR      ", Count=     144
 Computing Diagnostic #    30 "UVEL    " (list#  1) Parms "UUR     MR      ", Count=     144
             Vector  Mate for "UVEL    " :  Diagnostic #     31 "VVEL    " exists
 Computing Diagnostic #    32 "WVEL    " (list#  1) Parms "WM      LR      ", Count=     144
 Computing Diagnostic #    31 "VVEL    " (list#  1) Parms "VVR     MR      ", Count=     144
             Vector  Mate for "VVEL    " :  Diagnostic #     30 "UVEL    " exists
 Computing Diagnostic #   197 "BRGfwFlx" (list#  2) Parms "SM      MR      ", Count=     144
 Computing Diagnostic #   198 "BRGhtFlx" (list#  2) Parms "SM      MR      ", Count=     144
 Computing Diagnostic #   199 "BRGmltRt" (list#  2) Parms "SM      MR      ", Count=     144
 Computing Diagnostic #   201 "BRG_TauX" (list#  2) Parms "UU      MR      ", Count=    1728
 Computing Diagnostic #   202 "BRG_TauY" (list#  2) Parms "VV      MR      ", Count=    1728
 Computing Diagnostic #   203 "BRGhFacC" (list#  2) Parms "SM      MR      ", Count=    1728
 cg2d: Sum(rhs),rhsMax =   6.83469128515135E-10  1.71431602992607E-02
 cg2d: Sum(rhs),rhsMax =   6.83524320477247E-10  1.71429519060062E-02
 cg2d: Sum(rhs),rhsMax =   6.83578652016514E-10  1.71427462055016E-02
 cg2d: Sum(rhs),rhsMax =   6.83631748432667E-10  1.71425429580500E-02
 cg2d: Sum(rhs),rhsMax =   6.83681167235051E-10  1.71423423678947E-02
 cg2d: Sum(rhs),rhsMax =   6.83734388551294E-10  1.71421441822409E-02
 cg2d: Sum(rhs),rhsMax =   6.83781253840721E-10  1.71419485952860E-02
 cg2d: Sum(rhs),rhsMax =   6.83831394288070E-10  1.71417553389900E-02
 cg2d: Sum(rhs),rhsMax =   6.83878773055646E-10  1.71415645948018E-02
 cg2d: Sum(rhs),rhsMax =   6.83925305278166E-10  1.71413760825420E-02
 cg2d: Sum(rhs),rhsMax =   6.83962622649581E-10  1.71411899699302E-02
 cg2d: Sum(rhs),rhsMax =   6.84008114038015E-10  1.71410059647173E-02
 cg2d: Sum(rhs),rhsMax =   6.84049580867985E-10  1.71408242192298E-02
 cg2d: Sum(rhs),rhsMax =   6.84094628167209E-10  1.71406444287455E-02
 cg2d: Sum(rhs),rhsMax =   6.84150541774287E-10  1.71404667293181E-02
 cg2d: Sum(rhs),rhsMax =   6.84184667254506E-10  1.71402908039671E-02
 cg2d: Sum(rhs),rhsMax =   6.84215559210166E-10  1.71401167758806E-02
 cg2d: Sum(rhs),rhsMax =   6.84267142947448E-10  1.71399443109655E-02
 cg2d: Sum(rhs),rhsMax =   6.84325041078182E-10  1.71397735208401E-02
 cg2d: Sum(rhs),rhsMax =   6.84373724357812E-10  1.71396040575517E-02
 cg2d: Sum(rhs),rhsMax =   6.84425571773062E-10  1.71394360165029E-02
 cg2d: Sum(rhs),rhsMax =   6.84479806167815E-10  1.71392690386288E-02
 cg2d: Sum(rhs),rhsMax =   6.84525824912185E-10  1.71391032061074E-02
 cg2d: Sum(rhs),rhsMax =   6.84564585573533E-10  1.71389381458970E-02
 cg2d: Sum(rhs),rhsMax =   6.84612852519528E-10  1.71387739284852E-02
 cg2d: Sum(rhs),rhsMax =   6.84663811756359E-10  1.71386101679822E-02
 cg2d: Sum(rhs),rhsMax =   6.84711773391022E-10  1.71384469250209E-02
 cg2d: Sum(rhs),rhsMax =   6.84750131596523E-10  1.71382838037895E-02
 cg2d: Sum(rhs),rhsMax =   6.84809209339221E-10  1.71381208510307E-02
 cg2d: Sum(rhs),rhsMax =   6.84847387133480E-10  1.71379576648338E-02
 cg2d: Sum(rhs),rhsMax =   6.84893378122275E-10  1.71377942856919E-02
 cg2d: Sum(rhs),rhsMax =   6.84942963458113E-10  1.71376302993638E-02
 cg2d: Sum(rhs),rhsMax =   6.84990036914357E-10  1.71374657443737E-02
 cg2d: Sum(rhs),rhsMax =   6.85034362568615E-10  1.71373002000644E-02
 cg2d: Sum(rhs),rhsMax =   6.85083767493211E-10  1.71371336995522E-02
 cg2d: Sum(rhs),rhsMax =   6.85125622901239E-10  1.71369658228581E-02
 cg2d: Sum(rhs),rhsMax =   6.85172377168364E-10  1.71367966002118E-02
 cg2d: Sum(rhs),rhsMax =   6.85216758333773E-10  1.71366256114691E-02
 cg2d: Sum(rhs),rhsMax =   6.85272366629519E-10  1.71364528873700E-02
 cg2d: Sum(rhs),rhsMax =   6.85300677316647E-10  1.71362780131495E-02
 cg2d: Sum(rhs),rhsMax =   6.85351803086931E-10  1.71361010234957E-02
 cg2d: Sum(rhs),rhsMax =   6.85390064147917E-10  1.71359215085701E-02
 cg2d: Sum(rhs),rhsMax =   6.85442896886101E-10  1.71357395129132E-02
 cg2d: Sum(rhs),rhsMax =   6.85505444075751E-10  1.71355546354922E-02
 cg2d: Sum(rhs),rhsMax =   6.85553933066352E-10  1.71353669303105E-02
 cg2d: Sum(rhs),rhsMax =   6.85615508810855E-10  1.71351760118525E-02
 cg2d: Sum(rhs),rhsMax =   6.85664483524029E-10  1.71349819474599E-02
 cg2d: Sum(rhs),rhsMax =   6.85720868975892E-10  1.71347843648787E-02
 cg2d: Sum(rhs),rhsMax =   6.85768400399134E-10  1.71345833515355E-02
 cg2d: Sum(rhs),rhsMax =   6.85822718060614E-10  1.71343785551638E-02
 cg2d: Sum(rhs),rhsMax =   6.85866224925391E-10  1.71341700822938E-02
 cg2d: Sum(rhs),rhsMax =   6.85917295184524E-10  1.71339576033719E-02
 cg2d: Sum(rhs),rhsMax =   6.85964160473951E-10  1.71337412481674E-02
 cg2d: Sum(rhs),rhsMax =   6.86004961170106E-10  1.71335207135433E-02
 cg2d: Sum(rhs),rhsMax =   6.86062623378447E-10  1.71332961526762E-02
 cg2d: Sum(rhs),rhsMax =   6.86114276504668E-10  1.71330672909040E-02
 cg2d: Sum(rhs),rhsMax =   6.86171591768314E-10  1.71328343115180E-02
 cg2d: Sum(rhs),rhsMax =   6.86223092238869E-10  1.71325969663517E-02
 cg2d: Sum(rhs),rhsMax =   6.86274009842336E-10  1.71323554708753E-02
 cg2d: Sum(rhs),rhsMax =   6.86308870845309E-10  1.71321096075448E-02
 cg2d: Sum(rhs),rhsMax =   6.86351073198033E-10  1.71318596229780E-02
 cg2d: Sum(rhs),rhsMax =   6.86400811189536E-10  1.71316053313045E-02
 cg2d: Sum(rhs),rhsMax =   6.86454032505779E-10  1.71313470109305E-02
 cg2d: Sum(rhs),rhsMax =   6.86507822811322E-10  1.71310845075512E-02
 cg2d: Sum(rhs),rhsMax =   6.86572423913567E-10  1.71308181323113E-02
 cg2d: Sum(rhs),rhsMax =   6.86618650824755E-10  1.71305477654702E-02
 cg2d: Sum(rhs),rhsMax =   6.86680115546956E-10  1.71302737452902E-02
 cg2d: Sum(rhs),rhsMax =   6.86730200483154E-10  1.71299959859536E-02
 cg2d: Sum(rhs),rhsMax =   6.86786183479171E-10  1.71297148560434E-02
 cg2d: Sum(rhs),rhsMax =   6.86834852881013E-10  1.71294302985680E-02
 cg2d: Sum(rhs),rhsMax =   6.86894943702221E-10  1.71291427100546E-02
 cg2d: Sum(rhs),rhsMax =   6.86955020645641E-10  1.71288520614146E-02
 cg2d: Sum(rhs),rhsMax =   6.87001705523826E-10  1.71285587745221E-02
 cg2d: Sum(rhs),rhsMax =   6.87066667448555E-10  1.71282628437271E-02
 cg2d: Sum(rhs),rhsMax =   6.87119403042225E-10  1.71279647136662E-02
 cg2d: Sum(rhs),rhsMax =   6.87170348401267E-10  1.71276643986700E-02
 cg2d: Sum(rhs),rhsMax =   6.87208331906497E-10  1.71273623641206E-02
 cg2d: Sum(rhs),rhsMax =   6.87257639686578E-10  1.71270586403112E-02
 cg2d: Sum(rhs),rhsMax =   6.87316356606793E-10  1.71267537061880E-02
 cg2d: Sum(rhs),rhsMax =   6.87357476492068E-10  1.71264476068490E-02
 cg2d: Sum(rhs),rhsMax =   6.87425338874448E-10  1.71261408284374E-02
 cg2d: Sum(rhs),rhsMax =   6.87485998684956E-10  1.71258334246709E-02
 cg2d: Sum(rhs),rhsMax =   6.87547199729188E-10  1.71255258883033E-02
 cg2d: Sum(rhs),rhsMax =   6.87614090666422E-10  1.71252182725157E-02
 cg2d: Sum(rhs),rhsMax =   6.87664966636525E-10  1.71249110707417E-02
 cg2d: Sum(rhs),rhsMax =   6.87714635239089E-10  1.71246043343369E-02
 cg2d: Sum(rhs),rhsMax =   6.87765233653437E-10  1.71242985487775E-02
 cg2d: Sum(rhs),rhsMax =   6.87816581468326E-10  1.71239937554455E-02
 cg2d: Sum(rhs),rhsMax =   6.87870066462537E-10  1.71236904331945E-02
 cg2d: Sum(rhs),rhsMax =   6.87916029695756E-10  1.71233886041872E-02
 cg2d: Sum(rhs),rhsMax =   6.87969459178817E-10  1.71230887292916E-02
 cg2d: Sum(rhs),rhsMax =   6.88009288429825E-10  1.71227908162752E-02
 cg2d: Sum(rhs),rhsMax =   6.88067172682771E-10  1.71224952974908E-02
 cg2d: Sum(rhs),rhsMax =   6.88116091884794E-10  1.71222021577613E-02
 cg2d: Sum(rhs),rhsMax =   6.88169021767493E-10  1.71219118025168E-02
 cg2d: Sum(rhs),rhsMax =   6.88217871580576E-10  1.71216241848696E-02
 cg2d: Sum(rhs),rhsMax =   6.88274603977135E-10  1.71213396781255E-02
 cg2d: Sum(rhs),rhsMax =   6.88337678522721E-10  1.71210582020452E-02
 cg2d: Sum(rhs),rhsMax =   6.88380338842443E-10  1.71207800897752E-02
 cg2d: Sum(rhs),rhsMax =   6.88430493167580E-10  1.71205052249578E-02
 cg2d: Sum(rhs),rhsMax =   6.88498744128019E-10  1.71202339068298E-02
 cg2d: Sum(rhs),rhsMax =   6.88549259275639E-10  1.71199659699887E-02
 cg2d: Sum(rhs),rhsMax =   6.88611848098653E-10  1.71197016698738E-02
 cg2d: Sum(rhs),rhsMax =   6.88667470272186E-10  1.71194407976837E-02
 cg2d: Sum(rhs),rhsMax =   6.88719165031770E-10  1.71191835666103E-02
 cg2d: Sum(rhs),rhsMax =   6.88775925183904E-10  1.71189297254809E-02
 cg2d: Sum(rhs),rhsMax =   6.88833476369943E-10  1.71186794369736E-02
 cg2d: Sum(rhs),rhsMax =   6.88886600541672E-10  1.71184323958986E-02
 cg2d: Sum(rhs),rhsMax =   6.88935561377058E-10  1.71181887296488E-02
 cg2d: Sum(rhs),rhsMax =   6.88988199826213E-10  1.71179480976098E-02
 cg2d: Sum(rhs),rhsMax =   6.89032136902412E-10  1.71177105738801E-02
 cg2d: Sum(rhs),rhsMax =   6.89086052108046E-10  1.71174757663468E-02
 cg2d: Sum(rhs),rhsMax =   6.89131723907721E-10  1.71172437051142E-02
 cg2d: Sum(rhs),rhsMax =   6.89187859559404E-10  1.71170139619604E-02
 cg2d: Sum(rhs),rhsMax =   6.89240331475105E-10  1.71167865242265E-02
 cg2d: Sum(rhs),rhsMax =   6.89282714239070E-10  1.71165609262696E-02
 cg2d: Sum(rhs),rhsMax =   6.89336518422401E-10  1.71163371196520E-02
 cg2d: Sum(rhs),rhsMax =   6.89387213981263E-10  1.71161146053622E-02
 cg2d: Sum(rhs),rhsMax =   6.89424128896832E-10  1.71158933045929E-02
 cg2d: Sum(rhs),rhsMax =   6.89472187676010E-10  1.71156726835170E-02
 cg2d: Sum(rhs),rhsMax =   6.89515361473880E-10  1.71154526341551E-02
 cg2d: Sum(rhs),rhsMax =   6.89570636702719E-10  1.71152326073472E-02
 cg2d: Sum(rhs),rhsMax =   6.89623580463206E-10  1.71150124760191E-02
 cg2d: Sum(rhs),rhsMax =   6.89669349407396E-10  1.71147916675066E-02
 cg2d: Sum(rhs),rhsMax =   6.89711412982241E-10  1.71145700399163E-02
 cg2d: Sum(rhs),rhsMax =   6.89758319905032E-10  1.71143470111148E-02
 cg2d: Sum(rhs),rhsMax =   6.89798398956221E-10  1.71141224328864E-02
 cg2d: Sum(rhs),rhsMax =   6.89850856994134E-10  1.71138957190246E-02
 cg2d: Sum(rhs),rhsMax =   6.89903231765321E-10  1.71136667229321E-02
 cg2d: Sum(rhs),rhsMax =   6.89953441601610E-10  1.71134348622173E-02
 cg2d: Sum(rhs),rhsMax =   6.90008536419207E-10  1.71131999953613E-02
 cg2d: Sum(rhs),rhsMax =   6.90061605079784E-10  1.71129615549185E-02
 cg2d: Sum(rhs),rhsMax =   6.90122112234626E-10  1.71127194125230E-02
 cg2d: Sum(rhs),rhsMax =   6.90168408534753E-10  1.71124730172448E-02
 cg2d: Sum(rhs),rhsMax =   6.90220658405849E-10  1.71122222665500E-02
 cg2d: Sum(rhs),rhsMax =   6.90277404680195E-10  1.71119666357125E-02
 cg2d: Sum(rhs),rhsMax =   6.90324797325559E-10  1.71117060480846E-02
 cg2d: Sum(rhs),rhsMax =   6.90372897738101E-10  1.71114400123938E-02
 cg2d: Sum(rhs),rhsMax =   6.90414989068522E-10  1.71111684882680E-02
 cg2d: Sum(rhs),rhsMax =   6.90479659559706E-10  1.71108910223332E-02
 cg2d: Sum(rhs),rhsMax =   6.90538598524526E-10  1.71106076137034E-02
 cg2d: Sum(rhs),rhsMax =   6.90587281804156E-10  1.71103178550023E-02
 cg2d: Sum(rhs),rhsMax =   6.90638310429925E-10  1.71100217924273E-02
 cg2d: Sum(rhs),rhsMax =   6.90687548821067E-10  1.71097190628503E-02
 Computing Diagnostic #    26 "THETA   " (list#  1) Parms "SMR     MR      ", Count=     144
 Computing Diagnostic #    27 "SALT    " (list#  1) Parms "SMR     MR      ", Count=     144
 Computing Diagnostic #    30 "UVEL    " (list#  1) Parms "UUR     MR      ", Count=     144
             Vector  Mate for "UVEL    " :  Diagnostic #     31 "VVEL    " exists
 Computing Diagnostic #    32 "WVEL    " (list#  1) Parms "WM      LR      ", Count=     144
 Computing Diagnostic #    31 "VVEL    " (list#  1) Parms "VVR     MR      ", Count=     144
             Vector  Mate for "VVEL    " :  Diagnostic #     30 "UVEL    " exists
 Computing Diagnostic #   197 "BRGfwFlx" (list#  2) Parms "SM      MR      ", Count=     144
 Computing Diagnostic #   198 "BRGhtFlx" (list#  2) Parms "SM      MR      ", Count=     144
 Computing Diagnostic #   199 "BRGmltRt" (list#  2) Parms "SM      MR      ", Count=     144
 Computing Diagnostic #   201 "BRG_TauX" (list#  2) Parms "UU      MR      ", Count=    1728
 Computing Diagnostic #   202 "BRG_TauY" (list#  2) Parms "VV      MR      ", Count=    1728
 Computing Diagnostic #   203 "BRGhFacC" (list#  2) Parms "SM      MR      ", Count=    1728
 cg2d: Sum(rhs),rhsMax =   6.90743406916994E-10  1.71094097639786E-02
 cg2d: Sum(rhs),rhsMax =   6.90793020008407E-10  1.71090935875409E-02
 cg2d: Sum(rhs),rhsMax =   6.90839108141716E-10  1.71087706813971E-02
 cg2d: Sum(rhs),rhsMax =   6.90889290222430E-10  1.71084407922139E-02
 cg2d: Sum(rhs),rhsMax =   6.90933643632263E-10  1.71081041249179E-02
 cg2d: Sum(rhs),rhsMax =   6.91000326402680E-10  1.71077604790505E-02
 cg2d: Sum(rhs),rhsMax =   6.91056642465604E-10  1.71074101157798E-02
 cg2d: Sum(rhs),rhsMax =   6.91107421291193E-10  1.71070528974500E-02
 cg2d: Sum(rhs),rhsMax =   6.91156160081974E-10  1.71066891364265E-02
 cg2d: Sum(rhs),rhsMax =   6.91210921832663E-10  1.71063187459959E-02
 cg2d: Sum(rhs),rhsMax =   6.91269139152517E-10  1.71059420982091E-02
 cg2d: Sum(rhs),rhsMax =   6.91340693026454E-10  1.71055591610778E-02
 cg2d: Sum(rhs),rhsMax =   6.91397591956466E-10  1.71051703566264E-02
 cg2d: Sum(rhs),rhsMax =   6.91460777524355E-10  1.71047757016351E-02
 cg2d: Sum(rhs),rhsMax =   6.91517232365157E-10  1.71043756665103E-02
 cg2d: Sum(rhs),rhsMax =   6.91582832668125E-10  1.71039703171656E-02
 cg2d: Sum(rhs),rhsMax =   6.91640744676647E-10  1.71035601679069E-02
 cg2d: Sum(rhs),rhsMax =   6.91702500832392E-10  1.71031453209036E-02
 cg2d: Sum(rhs),rhsMax =   6.91770238314682E-10  1.71027263278188E-02
 cg2d: Sum(rhs),rhsMax =   6.91831161803158E-10  1.71023033296723E-02
 cg2d: Sum(rhs),rhsMax =   6.91883356163103E-10  1.71018769336527E-02
 cg2d: Sum(rhs),rhsMax =   6.91942461661377E-10  1.71014472800326E-02
 cg2d: Sum(rhs),rhsMax =   6.92001289603894E-10  1.71010149254254E-02
 cg2d: Sum(rhs),rhsMax =   6.92055676654313E-10  1.71005801238396E-02
 cg2d: Sum(rhs),rhsMax =   6.92118320988477E-10  1.71001435102526E-02
 cg2d: Sum(rhs),rhsMax =   6.92175358696367E-10  1.70997052686884E-02
 cg2d: Sum(rhs),rhsMax =   6.92233118049224E-10  1.70992660232126E-02
 cg2d: Sum(rhs),rhsMax =   6.92300120008760E-10  1.70988259850761E-02
 cg2d: Sum(rhs),rhsMax =   6.92354104603332E-10  1.70983857911162E-02
 cg2d: Sum(rhs),rhsMax =   6.92411725178310E-10  1.70979456492916E-02
 cg2d: Sum(rhs),rhsMax =   6.92463850149316E-10  1.70975061848770E-02
 cg2d: Sum(rhs),rhsMax =   6.92530019441584E-10  1.70970675988230E-02
 cg2d: Sum(rhs),rhsMax =   6.92587265316291E-10  1.70966305007209E-02
 cg2d: Sum(rhs),rhsMax =   6.92635088173077E-10  1.70961950585021E-02
 cg2d: Sum(rhs),rhsMax =   6.92696025539341E-10  1.70957618549934E-02
 cg2d: Sum(rhs),rhsMax =   6.92763152398967E-10  1.70953310399845E-02
 cg2d: Sum(rhs),rhsMax =   6.92815374514488E-10  1.70949031691741E-02
 cg2d: Sum(rhs),rhsMax =   6.92879864594431E-10  1.70944783569196E-02
 cg2d: Sum(rhs),rhsMax =   6.92926452328102E-10  1.70940571262860E-02
 cg2d: Sum(rhs),rhsMax =   6.92985724359829E-10  1.70936395497681E-02
 cg2d: Sum(rhs),rhsMax =   6.93050589140043E-10  1.70932261084008E-02
 cg2d: Sum(rhs),rhsMax =   6.93099341808612E-10  1.70928168309136E-02
 cg2d: Sum(rhs),rhsMax =   6.93155879916141E-10  1.70924121686493E-02
 cg2d: Sum(rhs),rhsMax =   6.93218316083488E-10  1.70920119972469E-02
 cg2d: Sum(rhs),rhsMax =   6.93277338315035E-10  1.70916167828159E-02
 cg2d: Sum(rhs),rhsMax =   6.93333529477869E-10  1.70912264954194E-02
 cg2d: Sum(rhs),rhsMax =   6.93384752392667E-10  1.70908414225367E-02
 cg2d: Sum(rhs),rhsMax =   6.93445800781234E-10  1.70904614167544E-02
 cg2d: Sum(rhs),rhsMax =   6.93507265503435E-10  1.70900867492110E-02
 cg2d: Sum(rhs),rhsMax =   6.93571186594077E-10  1.70897172442083E-02
 cg2d: Sum(rhs),rhsMax =   6.93614943259035E-10  1.70893531148785E-02
 cg2d: Sum(rhs),rhsMax =   6.93689730657532E-10  1.70889941208460E-02
 cg2d: Sum(rhs),rhsMax =   6.93746282642849E-10  1.70886404180443E-02
 cg2d: Sum(rhs),rhsMax =   6.93807497564869E-10  1.70882917083147E-02
 cg2d: Sum(rhs),rhsMax =   6.93870419454790E-10  1.70879480892145E-02
 cg2d: Sum(rhs),rhsMax =   6.93923404848640E-10  1.70876092072209E-02
 cg2d: Sum(rhs),rhsMax =   6.93977000865154E-10  1.70872751099400E-02
 cg2d: Sum(rhs),rhsMax =   6.94022075919953E-10  1.70869453969176E-02
 cg2d: Sum(rhs),rhsMax =   6.94083276964186E-10  1.70866200682896E-02
 cg2d: Sum(rhs),rhsMax =   6.94135846024402E-10  1.70864441883149E-02
 cg2d: Sum(rhs),rhsMax =   6.94185431360239E-10  1.70863464831524E-02
 cg2d: Sum(rhs),rhsMax =   6.94222110353415E-10  1.70862499970952E-02
 cg2d: Sum(rhs),rhsMax =   6.94257096256479E-10  1.70861526857434E-02
 cg2d: Sum(rhs),rhsMax =   6.94306154236379E-10  1.70860548570810E-02
 cg2d: Sum(rhs),rhsMax =   6.94356766528514E-10  1.70859560600364E-02
 cg2d: Sum(rhs),rhsMax =   6.94400634215775E-10  1.70858553110438E-02
 cg2d: Sum(rhs),rhsMax =   6.94445348448092E-10  1.70857520763318E-02
 cg2d: Sum(rhs),rhsMax =   6.94494156627812E-10  1.70856454156391E-02
 cg2d: Sum(rhs),rhsMax =   6.94533139333764E-10  1.70855348253929E-02
 cg2d: Sum(rhs),rhsMax =   6.94583932037141E-10  1.70854193976999E-02
 cg2d: Sum(rhs),rhsMax =   6.94616891783184E-10  1.70852986652148E-02
 cg2d: Sum(rhs),rhsMax =   6.94669211043220E-10  1.70851717567630E-02
 cg2d: Sum(rhs),rhsMax =   6.94708748860684E-10  1.70850382468261E-02
 cg2d: Sum(rhs),rhsMax =   6.94751672858374E-10  1.70848973086320E-02
 cg2d: Sum(rhs),rhsMax =   6.94795970757056E-10  1.70847485654918E-02
 cg2d: Sum(rhs),rhsMax =   6.94849289217814E-10  1.70845912396325E-02
 cg2d: Sum(rhs),rhsMax =   6.94891172381418E-10  1.70844250045321E-02
 cg2d: Sum(rhs),rhsMax =   6.94953344870797E-10  1.70842491393059E-02
 cg2d: Sum(rhs),rhsMax =   6.95000335060314E-10  1.70840633736704E-02
 cg2d: Sum(rhs),rhsMax =   6.95039206743964E-10  1.70838670459373E-02
 cg2d: Sum(rhs),rhsMax =   6.95101295966616E-10  1.70836564555627E-02
 cg2d: Sum(rhs),rhsMax =   6.95141819107015E-10  1.70834292117380E-02
 cg2d: Sum(rhs),rhsMax =   6.95199467437568E-10  1.70831849784790E-02
 cg2d: Sum(rhs),rhsMax =   6.95246291093632E-10  1.70829230924573E-02
 cg2d: Sum(rhs),rhsMax =   6.95299914865721E-10  1.70826433560803E-02
 cg2d: Sum(rhs),rhsMax =   6.95355203972348E-10  1.70823452188715E-02
 cg2d: Sum(rhs),rhsMax =   6.95416113583036E-10  1.70820286249370E-02
 cg2d: Sum(rhs),rhsMax =   6.95470403488940E-10  1.70816931687137E-02
 cg2d: Sum(rhs),rhsMax =   6.95535462558183E-10  1.70813389402689E-02
 cg2d: Sum(rhs),rhsMax =   6.95582619281154E-10  1.70809656788624E-02
 cg2d: Sum(rhs),rhsMax =   6.95628901703493E-10  1.70805736204461E-02
 cg2d: Sum(rhs),rhsMax =   6.95682650375673E-10  1.70801626517277E-02
 cg2d: Sum(rhs),rhsMax =   6.95746182888257E-10  1.70797331464166E-02
 cg2d: Sum(rhs),rhsMax =   6.95804455719262E-10  1.70792851332426E-02
 cg2d: Sum(rhs),rhsMax =   6.95847407472527E-10  1.70788191261291E-02
 cg2d: Sum(rhs),rhsMax =   6.95905819081410E-10  1.70783352864552E-02
 cg2d: Sum(rhs),rhsMax =   6.95969240571692E-10  1.70778342570411E-02
 cg2d: Sum(rhs),rhsMax =   6.96028942814841E-10  1.70773163254637E-02
 cg2d: Sum(rhs),rhsMax =   6.96108379272253E-10  1.70767822587505E-02
 cg2d: Sum(rhs),rhsMax =   6.96165264324478E-10  1.70762324610221E-02
 cg2d: Sum(rhs),rhsMax =   6.96234209174307E-10  1.70756678059584E-02
 cg2d: Sum(rhs),rhsMax =   6.96288804391543E-10  1.70750888003255E-02
 cg2d: Sum(rhs),rhsMax =   6.96358873342184E-10  1.70744964162275E-02
 cg2d: Sum(rhs),rhsMax =   6.96428498203616E-10  1.70738912499918E-02
 cg2d: Sum(rhs),rhsMax =   6.96502397423693E-10  1.70732743568898E-02
 cg2d: Sum(rhs),rhsMax =   6.96566276880972E-10  1.70726464084912E-02
 cg2d: Sum(rhs),rhsMax =   6.96638066677302E-10  1.70720085249507E-02
 cg2d: Sum(rhs),rhsMax =   6.96718988058009E-10  1.70713614361001E-02
 cg2d: Sum(rhs),rhsMax =   6.96780425024635E-10  1.70707063143727E-02
 cg2d: Sum(rhs),rhsMax =   6.96840751768235E-10  1.70700439300803E-02
 cg2d: Sum(rhs),rhsMax =   6.96915497533368E-10  1.70693754869496E-02
 cg2d: Sum(rhs),rhsMax =   6.96990090642835E-10  1.70687017834310E-02
 cg2d: Sum(rhs),rhsMax =   6.97065891119841E-10  1.70680240381501E-02
 cg2d: Sum(rhs),rhsMax =   6.97138985428225E-10  1.70673430549595E-02
 cg2d: Sum(rhs),rhsMax =   6.97196467225325E-10  1.70666600526129E-02
 cg2d: Sum(rhs),rhsMax =   6.97263871640708E-10  1.70659758245627E-02
 cg2d: Sum(rhs),rhsMax =   6.97317537046160E-10  1.70652915723083E-02
 cg2d: Sum(rhs),rhsMax =   6.97381929981589E-10  1.70646080638444E-02
 cg2d: Sum(rhs),rhsMax =   6.97456550846631E-10  1.70639264647178E-02
 cg2d: Sum(rhs),rhsMax =   6.97543411920520E-10  1.70632475018851E-02
 cg2d: Sum(rhs),rhsMax =   6.97600019416988E-10  1.70625722931503E-02
 cg2d: Sum(rhs),rhsMax =   6.97660457182891E-10  1.70619015090777E-02
 cg2d: Sum(rhs),rhsMax =   6.97741614485992E-10  1.70612362012851E-02
 cg2d: Sum(rhs),rhsMax =   6.97807533978079E-10  1.70605769724208E-02
 cg2d: Sum(rhs),rhsMax =   6.97872135080324E-10  1.70599248018001E-02
 cg2d: Sum(rhs),rhsMax =   6.97940802374397E-10  1.70592802084502E-02
 cg2d: Sum(rhs),rhsMax =   6.98011010102917E-10  1.70586440833279E-02
 cg2d: Sum(rhs),rhsMax =   6.98075805494192E-10  1.70580168568361E-02
 cg2d: Sum(rhs),rhsMax =   6.98135119159282E-10  1.70573993242277E-02
 cg2d: Sum(rhs),rhsMax =   6.98199539850286E-10  1.70567918183844E-02
 cg2d: Sum(rhs),rhsMax =   6.98266347520793E-10  1.70561950301308E-02
 cg2d: Sum(rhs),rhsMax =   6.98329200021774E-10  1.70556091865272E-02
 cg2d: Sum(rhs),rhsMax =   6.98396479537067E-10  1.70550348739001E-02
 cg2d: Sum(rhs),rhsMax =   6.98469657112177E-10  1.70544722086025E-02
 cg2d: Sum(rhs),rhsMax =   6.98520602471220E-10  1.70539216670689E-02
 cg2d: Sum(rhs),rhsMax =   6.98570271073784E-10  1.70533832548578E-02
 cg2d: Sum(rhs),rhsMax =   6.98631444362441E-10  1.70528573341791E-02
 cg2d: Sum(rhs),rhsMax =   6.98685109767894E-10  1.70523438026242E-02
 cg2d: Sum(rhs),rhsMax =   6.98756122408106E-10  1.70518429118743E-02
 cg2d: Sum(rhs),rhsMax =   6.98817753663761E-10  1.70513544484824E-02
 cg2d: Sum(rhs),rhsMax =   6.98863633630253E-10  1.70508785584971E-02
 cg2d: Sum(rhs),rhsMax =   6.98927707376562E-10  1.70504149237407E-02
 cg2d: Sum(rhs),rhsMax =   6.98983135261066E-10  1.70499635864268E-02
 cg2d: Sum(rhs),rhsMax =   6.99041588503313E-10  1.70495241297530E-02
 Computing Diagnostic #    26 "THETA   " (list#  1) Parms "SMR     MR      ", Count=     144
 Computing Diagnostic #    27 "SALT    " (list#  1) Parms "SMR     MR      ", Count=     144
 Computing Diagnostic #    30 "UVEL    " (list#  1) Parms "UUR     MR      ", Count=     144
             Vector  Mate for "UVEL    " :  Diagnostic #     31 "VVEL    " exists
 Computing Diagnostic #    32 "WVEL    " (list#  1) Parms "WM      LR      ", Count=     144
 Computing Diagnostic #    31 "VVEL    " (list#  1) Parms "VVR     MR      ", Count=     144
             Vector  Mate for "VVEL    " :  Diagnostic #     30 "UVEL    " exists
 Computing Diagnostic #   197 "BRGfwFlx" (list#  2) Parms "SM      MR      ", Count=     144
 Computing Diagnostic #   198 "BRGhtFlx" (list#  2) Parms "SM      MR      ", Count=     144
 Computing Diagnostic #   199 "BRGmltRt" (list#  2) Parms "SM      MR      ", Count=     144
 Computing Diagnostic #   201 "BRG_TauX" (list#  2) Parms "UU      MR      ", Count=    1728
 Computing Diagnostic #   202 "BRG_TauY" (list#  2) Parms "VV      MR      ", Count=    1728
 Computing Diagnostic #   203 "BRGhFacC" (list#  2) Parms "SM      MR      ", Count=    1728
 cg2d: Sum(rhs),rhsMax =   6.99094823697344E-10  1.70490964985563E-02
 cg2d: Sum(rhs),rhsMax =   6.99153290817378E-10  1.70486801821868E-02
 cg2d: Sum(rhs),rhsMax =   6.99215629840211E-10  1.70482750421254E-02
 cg2d: Sum(rhs),rhsMax =   6.99276053728326E-10  1.70478804856774E-02
 cg2d: Sum(rhs),rhsMax =   6.99348856603166E-10  1.70474962903211E-02
 cg2d: Sum(rhs),rhsMax =   6.99401564441260E-10  1.70471217937633E-02
 cg2d: Sum(rhs),rhsMax =   6.99472493814746E-10  1.70467567056266E-02
 cg2d: Sum(rhs),rhsMax =   6.99527380465526E-10  1.70464002984022E-02
 cg2d: Sum(rhs),rhsMax =   6.99576119256307E-10  1.70460522305127E-02
 cg2d: Sum(rhs),rhsMax =   6.99614685628624E-10  1.70457117197333E-02
 cg2d: Sum(rhs),rhsMax =   6.99671570680849E-10  1.70453783810804E-02
 cg2d: Sum(rhs),rhsMax =   6.99730676179122E-10  1.70450513974905E-02
 cg2d: Sum(rhs),rhsMax =   6.99783106461460E-10  1.70447303483308E-02
 cg2d: Sum(rhs),rhsMax =   6.99832053419058E-10  1.70444143941539E-02
 cg2d: Sum(rhs),rhsMax =   6.99898028422297E-10  1.70441030958309E-02
 cg2d: Sum(rhs),rhsMax =   6.99949653792942E-10  1.70437956001074E-02
 cg2d: Sum(rhs),rhsMax =   7.00008495613247E-10  1.70434914639098E-02
 cg2d: Sum(rhs),rhsMax =   7.00039304302180E-10  1.70431898337738E-02
 cg2d: Sum(rhs),rhsMax =   7.00091332128672E-10  1.70428902733428E-02
 cg2d: Sum(rhs),rhsMax =   7.00140834197782E-10  1.70425919431459E-02
 cg2d: Sum(rhs),rhsMax =   7.00190808111678E-10  1.70422944239499E-02
 cg2d: Sum(rhs),rhsMax =   7.00235591732934E-10  1.70419969014437E-02
 cg2d: Sum(rhs),rhsMax =   7.00287314248094E-10  1.70416989865348E-02
 cg2d: Sum(rhs),rhsMax =   7.00336219572328E-10  1.70413999016223E-02
 cg2d: Sum(rhs),rhsMax =   7.00390120900174E-10  1.70410992983517E-02
 cg2d: Sum(rhs),rhsMax =   7.00446922685671E-10  1.70407964439860E-02
 cg2d: Sum(rhs),rhsMax =   7.00486377236409E-10  1.70404910400329E-02
 cg2d: Sum(rhs),rhsMax =   7.00545427223531E-10  1.70401824074293E-02
 cg2d: Sum(rhs),rhsMax =   7.00606683778915E-10  1.70398703075127E-02
 cg2d: Sum(rhs),rhsMax =   7.00653840501886E-10  1.70395541238877E-02
 cg2d: Sum(rhs),rhsMax =   7.00708296941244E-10  1.70392336840409E-02
 cg2d: Sum(rhs),rhsMax =   7.00760935390399E-10  1.70389084346850E-02
 cg2d: Sum(rhs),rhsMax =   7.00821761734360E-10  1.70385782755301E-02
 cg2d: Sum(rhs),rhsMax =   7.00868640901575E-10  1.70382427696742E-02
 cg2d: Sum(rhs),rhsMax =   7.00932298314250E-10  1.70379019283752E-02
 cg2d: Sum(rhs),rhsMax =   7.00987809465481E-10  1.70375553556872E-02
 cg2d: Sum(rhs),rhsMax =   7.01052840779148E-10  1.70372030981646E-02
 cg2d: Sum(rhs),rhsMax =   7.01110530743065E-10  1.70368448367517E-02
 cg2d: Sum(rhs),rhsMax =   7.01168983985312E-10  1.70364806967228E-02
 cg2d: Sum(rhs),rhsMax =   7.01220345677989E-10  1.70361104367441E-02
 cg2d: Sum(rhs),rhsMax =   7.01282226733824E-10  1.70357342587715E-02
 cg2d: Sum(rhs),rhsMax =   7.01342664499727E-10  1.70353519981269E-02
 cg2d: Sum(rhs),rhsMax =   7.01398827906985E-10  1.70349638527521E-02
 cg2d: Sum(rhs),rhsMax =   7.01453520268736E-10  1.70345696268184E-02
 cg2d: Sum(rhs),rhsMax =   7.01508712230847E-10  1.70341696708318E-02
 cg2d: Sum(rhs),rhsMax =   7.01566083005645E-10  1.70337639695063E-02
 cg2d: Sum(rhs),rhsMax =   7.01630364918771E-10  1.70333529409332E-02
 cg2d: Sum(rhs),rhsMax =   7.01682906223411E-10  1.70329366338668E-02
 cg2d: Sum(rhs),rhsMax =   7.01747771003625E-10  1.70325155340182E-02
 cg2d: Sum(rhs),rhsMax =   7.01807209568805E-10  1.70320897509405E-02
 cg2d: Sum(rhs),rhsMax =   7.01868035912767E-10  1.70316598251630E-02
 cg2d: Sum(rhs),rhsMax =   7.01927460600160E-10  1.70312260145725E-02
 cg2d: Sum(rhs),rhsMax =   7.01979488426652E-10  1.70307889570361E-02
 cg2d: Sum(rhs),rhsMax =   7.02043548295173E-10  1.70303488615879E-02
 cg2d: Sum(rhs),rhsMax =   7.02105248939766E-10  1.70299063593645E-02
 cg2d: Sum(rhs),rhsMax =   7.02153918341608E-10  1.70294616954131E-02
 cg2d: Sum(rhs),rhsMax =   7.02229704940827E-10  1.70290155354267E-02
 cg2d: Sum(rhs),rhsMax =   7.02289129628220E-10  1.70285681509235E-02
 cg2d: Sum(rhs),rhsMax =   7.02342184411009E-10  1.70281202277197E-02
 cg2d: Sum(rhs),rhsMax =   7.02406036112713E-10  1.70276720591085E-02
 cg2d: Sum(rhs),rhsMax =   7.02456856571665E-10  1.70272243435253E-02
 cg2d: Sum(rhs),rhsMax =   7.02527785945151E-10  1.70267773821152E-02
 cg2d: Sum(rhs),rhsMax =   7.02598867974302E-10  1.70263318773589E-02
 cg2d: Sum(rhs),rhsMax =   7.02661748230859E-10  1.70258881301348E-02
 cg2d: Sum(rhs),rhsMax =   7.02713540134958E-10  1.70254468374016E-02
 cg2d: Sum(rhs),rhsMax =   7.02775240779552E-10  1.70250082898775E-02
 cg2d: Sum(rhs),rhsMax =   7.02827102072590E-10  1.70245731716886E-02
 cg2d: Sum(rhs),rhsMax =   7.02892771764496E-10  1.70241417511965E-02
 cg2d: Sum(rhs),rhsMax =   7.02950142539294E-10  1.70237146901093E-02
 cg2d: Sum(rhs),rhsMax =   7.03012301150885E-10  1.70232922306116E-02
 cg2d: Sum(rhs),rhsMax =   7.03065355933674E-10  1.70228750057366E-02
 cg2d: Sum(rhs),rhsMax =   7.03119173994793E-10  1.70224632207864E-02
 cg2d: Sum(rhs),rhsMax =   7.03173450022909E-10  1.70220574620376E-02
 cg2d: Sum(rhs),rhsMax =   7.03221078590666E-10  1.70216578952043E-02
 cg2d: Sum(rhs),rhsMax =   7.03277783231648E-10  1.70212650655575E-02
 cg2d: Sum(rhs),rhsMax =   7.03330532703106E-10  1.70208790884026E-02
 cg2d: Sum(rhs),rhsMax =   7.03388763900747E-10  1.70205004575588E-02
 cg2d: Sum(rhs),rhsMax =   7.03433519766428E-10  1.70201292321129E-02
 cg2d: Sum(rhs),rhsMax =   7.03496483289712E-10  1.70197658475117E-02
 cg2d: Sum(rhs),rhsMax =   7.03543001634443E-10  1.70194103062263E-02
 cg2d: Sum(rhs),rhsMax =   7.03592240025586E-10  1.70190629797916E-02
 cg2d: Sum(rhs),rhsMax =   7.03645849919887E-10  1.70187238094628E-02
 cg2d: Sum(rhs),rhsMax =   7.03699890025611E-10  1.70183931066959E-02
 cg2d: Sum(rhs),rhsMax =   7.03752570108129E-10  1.70180707436570E-02
 cg2d: Sum(rhs),rhsMax =   7.03814187485996E-10  1.70177569609920E-02
 cg2d: Sum(rhs),rhsMax =   7.03867644724632E-10  1.70174515684658E-02
 cg2d: Sum(rhs),rhsMax =   7.03923488942770E-10  1.70171547406010E-02
 cg2d: Sum(rhs),rhsMax =   7.03969799120685E-10  1.70168662226713E-02
 cg2d: Sum(rhs),rhsMax =   7.04015470920361E-10  1.70165861213466E-02
 cg2d: Sum(rhs),rhsMax =   7.04074049062697E-10  1.70163141156088E-02
 cg2d: Sum(rhs),rhsMax =   7.04119221262012E-10  1.70160502455477E-02
 cg2d: Sum(rhs),rhsMax =   7.04180089239337E-10  1.70157941257976E-02
 cg2d: Sum(rhs),rhsMax =   7.04228453329847E-10  1.70155457293332E-02
 cg2d: Sum(rhs),rhsMax =   7.04286698405276E-10  1.70153046118484E-02
 cg2d: Sum(rhs),rhsMax =   7.04336255985538E-10  1.70150706940293E-02
 cg2d: Sum(rhs),rhsMax =   7.04381872274062E-10  1.70148434650422E-02
 cg2d: Sum(rhs),rhsMax =   7.04431929454685E-10  1.70146227905990E-02
 cg2d: Sum(rhs),rhsMax =   7.04478808621900E-10  1.70144081123173E-02
 cg2d: Sum(rhs),rhsMax =   7.04528962947037E-10  1.70141992471544E-02
 cg2d: Sum(rhs),rhsMax =   7.04589608879758E-10  1.70139955869469E-02
 cg2d: Sum(rhs),rhsMax =   7.04641303639342E-10  1.70137969012204E-02
 cg2d: Sum(rhs),rhsMax =   7.04692484920777E-10  1.70136025428506E-02
 cg2d: Sum(rhs),rhsMax =   7.04739627765960E-10  1.70134122462951E-02
 cg2d: Sum(rhs),rhsMax =   7.04770519721620E-10  1.70132253287490E-02
 cg2d: Sum(rhs),rhsMax =   7.04814456797820E-10  1.70130414983110E-02
 cg2d: Sum(rhs),rhsMax =   7.04858130196051E-10  1.70128600523840E-02
 cg2d: Sum(rhs),rhsMax =   7.04907687776313E-10  1.70126806585612E-02
 cg2d: Sum(rhs),rhsMax =   7.04945768426057E-10  1.70125025791299E-02
 cg2d: Sum(rhs),rhsMax =   7.04994174149931E-10  1.70123254769208E-02
 cg2d: Sum(rhs),rhsMax =   7.05032837666764E-10  1.70121486147125E-02
 cg2d: Sum(rhs),rhsMax =   7.05078287421834E-10  1.70119716492476E-02
 cg2d: Sum(rhs),rhsMax =   7.05140362766699E-10  1.70117938379857E-02
 cg2d: Sum(rhs),rhsMax =   7.05188504812604E-10  1.70116056177985E-02
 cg2d: Sum(rhs),rhsMax =   7.05233732523070E-10  1.70114066717481E-02
 cg2d: Sum(rhs),rhsMax =   7.05280389645679E-10  1.70112056847276E-02
 cg2d: Sum(rhs),rhsMax =   7.05326949623775E-10  1.70110019911243E-02
 cg2d: Sum(rhs),rhsMax =   7.05382641186247E-10  1.70107953078638E-02
 cg2d: Sum(rhs),rhsMax =   7.05439498482896E-10  1.70105850168630E-02
 cg2d: Sum(rhs),rhsMax =   7.05480965312866E-10  1.70103708904668E-02
 cg2d: Sum(rhs),rhsMax =   7.05518393706583E-10  1.70101523142302E-02
 cg2d: Sum(rhs),rhsMax =   7.05569866421563E-10  1.70099290879926E-02
 cg2d: Sum(rhs),rhsMax =   7.05607849926793E-10  1.70097006307222E-02
 cg2d: Sum(rhs),rhsMax =   7.05662125954909E-10  1.70094667785439E-02
 cg2d: Sum(rhs),rhsMax =   7.05712308035622E-10  1.70092269855671E-02
 cg2d: Sum(rhs),rhsMax =   7.05763988917418E-10  1.70089811262286E-02
 cg2d: Sum(rhs),rhsMax =   7.05804345524363E-10  1.70087286986317E-02
 cg2d: Sum(rhs),rhsMax =   7.05849559357041E-10  1.70084696203246E-02
 cg2d: Sum(rhs),rhsMax =   7.05901836983713E-10  1.70082034370579E-02
 cg2d: Sum(rhs),rhsMax =   7.05961442082348E-10  1.70079301146183E-02
 cg2d: Sum(rhs),rhsMax =   7.06016273221977E-10  1.70076492480119E-02
 cg2d: Sum(rhs),rhsMax =   7.06062944222374E-10  1.70073608564873E-02
 cg2d: Sum(rhs),rhsMax =   7.06111072390492E-10  1.70070645872293E-02
 cg2d: Sum(rhs),rhsMax =   7.06174466125198E-10  1.70067604963997E-02
 cg2d: Sum(rhs),rhsMax =   7.06234820624374E-10  1.70064482994424E-02
 cg2d: Sum(rhs),rhsMax =   7.06297895169961E-10  1.70061281449362E-02
 cg2d: Sum(rhs),rhsMax =   7.06362662805660E-10  1.70057997799243E-02
 cg2d: Sum(rhs),rhsMax =   7.06417063733866E-10  1.70054633880007E-02
 cg2d: Sum(rhs),rhsMax =   7.06473185507761E-10  1.70051187908622E-02
 cg2d: Sum(rhs),rhsMax =   7.06538480499397E-10  1.70047662280257E-02
 cg2d: Sum(rhs),rhsMax =   7.06591868349093E-10  1.70044055811569E-02
 cg2d: Sum(rhs),rhsMax =   7.06650626902672E-10  1.70040371497833E-02
 cg2d: Sum(rhs),rhsMax =   7.06715991283247E-10  1.70036608679978E-02
 cg2d: Sum(rhs),rhsMax =   7.06763508828701E-10  1.70032770942383E-02
 cg2d: Sum(rhs),rhsMax =   7.06818881202054E-10  1.70028858191398E-02
(PID.TID 0000.0001)      cg2d_init_res =   9.48845652065372E-05
(PID.TID 0000.0001)      cg2d_iters(min,last) =      -1      39
(PID.TID 0000.0001)      cg2d_last_res =   6.66728420236851E-14
(PID.TID 0000.0001) // =======================================================
(PID.TID 0000.0001) // Begin MONITOR dynamic field statistics
(PID.TID 0000.0001) // =======================================================
(PID.TID 0000.0001) %MON time_tsnumber                =                 17280
(PID.TID 0000.0001) %MON time_secondsf                =   4.3200000000000E+05
(PID.TID 0000.0001) %MON dynstat_eta_max              =   5.2086575835257E-03
(PID.TID 0000.0001) %MON dynstat_eta_min              =  -2.5732884481012E-03
(PID.TID 0000.0001) %MON dynstat_eta_mean             =  -8.0481580229088E-14
(PID.TID 0000.0001) %MON dynstat_eta_sd               =   2.6424561239463E-03
(PID.TID 0000.0001) %MON dynstat_eta_del2             =   2.2021646399976E-05
(PID.TID 0000.0001) %MON dynstat_uvel_max             =   4.5960052641324E-02
(PID.TID 0000.0001) %MON dynstat_uvel_min             =  -4.0017369330854E-02
(PID.TID 0000.0001) %MON dynstat_uvel_mean            =   7.1860351066271E-09
(PID.TID 0000.0001) %MON dynstat_uvel_sd              =   6.3672771871012E-03
(PID.TID 0000.0001) %MON dynstat_uvel_del2            =   1.0225940497362E-04
(PID.TID 0000.0001) %MON dynstat_vvel_max             =   2.2850835014360E-02
(PID.TID 0000.0001) %MON dynstat_vvel_min             =  -3.2253336559329E-02
(PID.TID 0000.0001) %MON dynstat_vvel_mean            =  -8.0919745036095E-03
(PID.TID 0000.0001) %MON dynstat_vvel_sd              =   1.1484530129139E-02
(PID.TID 0000.0001) %MON dynstat_vvel_del2            =   9.1801080703874E-05
(PID.TID 0000.0001) %MON dynstat_wvel_max             =   1.4184668992217E-03
(PID.TID 0000.0001) %MON dynstat_wvel_min             =  -1.0742433429173E-03
(PID.TID 0000.0001) %MON dynstat_wvel_mean            =   1.4052049593197E-21
(PID.TID 0000.0001) %MON dynstat_wvel_sd              =   1.2532499462565E-04
(PID.TID 0000.0001) %MON dynstat_wvel_del2            =   6.3176953025898E-06
(PID.TID 0000.0001) %MON dynstat_theta_max            =   2.6931451612903E+00
(PID.TID 0000.0001) %MON dynstat_theta_min            =  -5.5393196135670E-01
(PID.TID 0000.0001) %MON dynstat_theta_mean           =   2.2254614498607E+00
(PID.TID 0000.0001) %MON dynstat_theta_sd             =   5.1350590304773E-01
(PID.TID 0000.0001) %MON dynstat_theta_del2           =   1.5766089224191E-03
(PID.TID 0000.0001) %MON dynstat_salt_max             =   3.4699999999999E+01
(PID.TID 0000.0001) %MON dynstat_salt_min             =   3.3022087052498E+01
(PID.TID 0000.0001) %MON dynstat_salt_mean            =   3.4364174590800E+01
(PID.TID 0000.0001) %MON dynstat_salt_sd              =   3.2242130486688E-01
(PID.TID 0000.0001) %MON dynstat_salt_del2            =   1.9745879187456E-04
(PID.TID 0000.0001) %MON advcfl_uvel_max              =   2.2980026320662E-03
(PID.TID 0000.0001) %MON advcfl_vvel_max              =   1.6126668279664E-03
(PID.TID 0000.0001) %MON advcfl_wvel_max              =   6.5612351783632E-04
(PID.TID 0000.0001) %MON advcfl_W_hf_max              =   1.3903098435013E-03
(PID.TID 0000.0001) %MON pe_b_mean                    =   5.8258626588200E-08
(PID.TID 0000.0001) %MON ke_max                       =   9.8495314340009E-04
(PID.TID 0000.0001) %MON ke_mean                      =   1.0899800702560E-04
(PID.TID 0000.0001) %MON ke_vol                       =   3.2921708585402E+10
(PID.TID 0000.0001) // =======================================================
(PID.TID 0000.0001) // End MONITOR dynamic field statistics
(PID.TID 0000.0001) // =======================================================
(PID.TID 0000.0001) // =======================================================
(PID.TID 0000.0001) // Begin OBCS MONITOR field statistics
(PID.TID 0000.0001) // =======================================================
(PID.TID 0000.0001) %MON obc_E_uVel_max               =   0.0000000000000E+00
(PID.TID 0000.0001) %MON obc_E_uVel_min               =   0.0000000000000E+00
(PID.TID 0000.0001) %MON obc_E_uVel_mean              =   0.0000000000000E+00
(PID.TID 0000.0001) %MON obc_E_uVel_sd                =   0.0000000000000E+00
(PID.TID 0000.0001) %MON obc_E_uVel_Int               =   0.0000000000000E+00
(PID.TID 0000.0001) %MON obc_N_vVel_max               =  -3.6115799844846E-05
(PID.TID 0000.0001) %MON obc_N_vVel_min               =  -3.0000000000000E-02
(PID.TID 0000.0001) %MON obc_N_vVel_mean              =  -1.3225455303334E-02
(PID.TID 0000.0001) %MON obc_N_vVel_sd                =   1.1350864292742E-02
(PID.TID 0000.0001) %MON obc_N_vVel_Int               =  -5.9514548865004E+04
(PID.TID 0000.0001) %MON obc_S_vVel_max               =  -3.6115799844846E-05
(PID.TID 0000.0001) %MON obc_S_vVel_min               =  -3.0000000000000E-02
(PID.TID 0000.0001) %MON obc_S_vVel_mean              =  -1.3225455303334E-02
(PID.TID 0000.0001) %MON obc_S_vVel_sd                =   1.1350864292742E-02
(PID.TID 0000.0001) %MON obc_S_vVel_Int               =  -5.9514548865004E+04
(PID.TID 0000.0001) // =======================================================
(PID.TID 0000.0001) // End OBCS MONITOR field statistics
(PID.TID 0000.0001) // =======================================================
 Computing Diagnostic #    26 "THETA   " (list#  1) Parms "SMR     MR      ", Count=     144
 Computing Diagnostic #    27 "SALT    " (list#  1) Parms "SMR     MR      ", Count=     144
 Computing Diagnostic #    30 "UVEL    " (list#  1) Parms "UUR     MR      ", Count=     144
             Vector  Mate for "UVEL    " :  Diagnostic #     31 "VVEL    " exists
 Computing Diagnostic #    32 "WVEL    " (list#  1) Parms "WM      LR      ", Count=     144
 Computing Diagnostic #    31 "VVEL    " (list#  1) Parms "VVR     MR      ", Count=     144
             Vector  Mate for "VVEL    " :  Diagnostic #     30 "UVEL    " exists
 Computing Diagnostic #   197 "BRGfwFlx" (list#  2) Parms "SM      MR      ", Count=     144
 Computing Diagnostic #   198 "BRGhtFlx" (list#  2) Parms "SM      MR      ", Count=     144
 Computing Diagnostic #   199 "BRGmltRt" (list#  2) Parms "SM      MR      ", Count=     144
 Computing Diagnostic #   201 "BRG_TauX" (list#  2) Parms "UU      MR      ", Count=    1728
 Computing Diagnostic #   202 "BRG_TauY" (list#  2) Parms "VV      MR      ", Count=    1728
 Computing Diagnostic #   203 "BRGhFacC" (list#  2) Parms "SM      MR      ", Count=    1728
(PID.TID 0000.0001) %CHECKPOINT     17280 0000017280
 cg2d: Sum(rhs),rhsMax =   7.06869021649403E-10  1.70024874544051E-02
 cg2d: Sum(rhs),rhsMax =   7.06916553072645E-10  1.70020820731683E-02
 cg2d: Sum(rhs),rhsMax =   7.06973715680626E-10  1.70016700426076E-02
 cg2d: Sum(rhs),rhsMax =   7.07039662928288E-10  1.70012516487386E-02
 cg2d: Sum(rhs),rhsMax =   7.07090885843087E-10  1.70008272010768E-02
 cg2d: Sum(rhs),rhsMax =   7.07141789568766E-10  1.70003970283074E-02
 cg2d: Sum(rhs),rhsMax =   7.07199521166046E-10  1.69999614823686E-02
 cg2d: Sum(rhs),rhsMax =   7.07276223699260E-10  1.69995209339320E-02
 cg2d: Sum(rhs),rhsMax =   7.07327058036000E-10  1.69990757702575E-02
 cg2d: Sum(rhs),rhsMax =   7.07386788034725E-10  1.69986263950566E-02
 cg2d: Sum(rhs),rhsMax =   7.07451389136970E-10  1.69981732300251E-02
 cg2d: Sum(rhs),rhsMax =   7.07514921649555E-10  1.69977167078837E-02
 cg2d: Sum(rhs),rhsMax =   7.07584574266562E-10  1.69972572720856E-02
 cg2d: Sum(rhs),rhsMax =   7.07637268226868E-10  1.69967953802663E-02
 cg2d: Sum(rhs),rhsMax =   7.07692404677829E-10  1.69963314942731E-02
 cg2d: Sum(rhs),rhsMax =   7.07746680705945E-10  1.69958660872238E-02
 cg2d: Sum(rhs),rhsMax =   7.07806716016002E-10  1.69953996325013E-02
 cg2d: Sum(rhs),rhsMax =   7.07854594383939E-10  1.69949326102954E-02
 cg2d: Sum(rhs),rhsMax =   7.07909134090023E-10  1.69944655007978E-02
 cg2d: Sum(rhs),rhsMax =   7.07988681569738E-10  1.69939987847510E-02
 cg2d: Sum(rhs),rhsMax =   7.08052783071622E-10  1.69935329393478E-02
 cg2d: Sum(rhs),rhsMax =   7.08110389768812E-10  1.69930684400271E-02
 cg2d: Sum(rhs),rhsMax =   7.08163305773724E-10  1.69926057557668E-02
 cg2d: Sum(rhs),rhsMax =   7.08221647993668E-10  1.69921452702164E-02
 cg2d: Sum(rhs),rhsMax =   7.08274786043184E-10  1.69916874642009E-02
 cg2d: Sum(rhs),rhsMax =   7.08321595821459E-10  1.69912326933426E-02
 cg2d: Sum(rhs),rhsMax =   7.08375344493639E-10  1.69907813583046E-02
 cg2d: Sum(rhs),rhsMax =   7.08442388086539E-10  1.69903338405314E-02
 cg2d: Sum(rhs),rhsMax =   7.08493860801518E-10  1.69898905083724E-02
 cg2d: Sum(rhs),rhsMax =   7.08537409299659E-10  1.69894517114485E-02
 cg2d: Sum(rhs),rhsMax =   7.08584496633691E-10  1.69890177886348E-02
 cg2d: Sum(rhs),rhsMax =   7.08647737712731E-10  1.69885890603433E-02
 cg2d: Sum(rhs),rhsMax =   7.08709160801568E-10  1.69881658298897E-02
 cg2d: Sum(rhs),rhsMax =   7.08768863044718E-10  1.69877483841690E-02
 cg2d: Sum(rhs),rhsMax =   7.08835989904344E-10  1.69873369908348E-02
 cg2d: Sum(rhs),rhsMax =   7.08893319045778E-10  1.69869318966923E-02
 cg2d: Sum(rhs),rhsMax =   7.08959585482560E-10  1.69865333287234E-02
 cg2d: Sum(rhs),rhsMax =   7.09020411826522E-10  1.69861414990592E-02
 cg2d: Sum(rhs),rhsMax =   7.09067485282766E-10  1.69857565814353E-02
 cg2d: Sum(rhs),rhsMax =   7.09124495235081E-10  1.69853787383589E-02
 cg2d: Sum(rhs),rhsMax =   7.09183267666447E-10  1.69850081188781E-02
 cg2d: Sum(rhs),rhsMax =   7.09243844210228E-10  1.69846448405667E-02
 cg2d: Sum(rhs),rhsMax =   7.09301131718298E-10  1.69842889963012E-02
 cg2d: Sum(rhs),rhsMax =   7.09345637783798E-10  1.69839406553339E-02
 cg2d: Sum(rhs),rhsMax =   7.09412542598820E-10  1.69835998652779E-02
 cg2d: Sum(rhs),rhsMax =   7.09464403891857E-10  1.69832666533508E-02
 cg2d: Sum(rhs),rhsMax =   7.09519332176001E-10  1.69829410203866E-02
 cg2d: Sum(rhs),rhsMax =   7.09553957256581E-10  1.69826229466274E-02
 cg2d: Sum(rhs),rhsMax =   7.09618031002890E-10  1.69823123885025E-02
 cg2d: Sum(rhs),rhsMax =   7.09663355857870E-10  1.69820092832183E-02
 cg2d: Sum(rhs),rhsMax =   7.09704628398811E-10  1.69817135417519E-02
 cg2d: Sum(rhs),rhsMax =   7.09758807282412E-10  1.69814250600379E-02
 cg2d: Sum(rhs),rhsMax =   7.09813430255224E-10  1.69811437533105E-02
 cg2d: Sum(rhs),rhsMax =   7.09867331583069E-10  1.69808695081276E-02
 cg2d: Sum(rhs),rhsMax =   7.09905662032995E-10  1.69806021591769E-02
 cg2d: Sum(rhs),rhsMax =   7.09966668788198E-10  1.69803415175955E-02
 cg2d: Sum(rhs),rhsMax =   7.10021930139249E-10  1.69800873808990E-02
 cg2d: Sum(rhs),rhsMax =   7.10071751397479E-10  1.69798395305271E-02
 cg2d: Sum(rhs),rhsMax =   7.10127789904647E-10  1.69795977280423E-02
 cg2d: Sum(rhs),rhsMax =   7.10171019213668E-10  1.69793617258172E-02
 cg2d: Sum(rhs),rhsMax =   7.10225295241784E-10  1.69791312589701E-02
 cg2d: Sum(rhs),rhsMax =   7.10259073777308E-10  1.69789060518145E-02
 cg2d: Sum(rhs),rhsMax =   7.10305050888316E-10  1.69786858171780E-02
 cg2d: Sum(rhs),rhsMax =   7.10344894017112E-10  1.69784702617572E-02
 cg2d: Sum(rhs),rhsMax =   7.10404596260261E-10  1.69782590803846E-02
 cg2d: Sum(rhs),rhsMax =   7.10447187191043E-10  1.69780519597654E-02
 cg2d: Sum(rhs),rhsMax =   7.10501171785616E-10  1.69778485830092E-02
 cg2d: Sum(rhs),rhsMax =   7.10548161975133E-10  1.69776486299853E-02
 cg2d: Sum(rhs),rhsMax =   7.10592654162845E-10  1.69774517762156E-02
 cg2d: Sum(rhs),rhsMax =   7.10642003576289E-10  1.69772576961449E-02
 cg2d: Sum(rhs),rhsMax =   7.10693295880027E-10  1.69770660612443E-02
 cg2d: Sum(rhs),rhsMax =   7.10732972475370E-10  1.69768765466053E-02
 cg2d: Sum(rhs),rhsMax =   7.10785000301861E-10  1.69766888293731E-02
 cg2d: Sum(rhs),rhsMax =   7.10820485805286E-10  1.69765025892372E-02
 cg2d: Sum(rhs),rhsMax =   7.10868017228528E-10  1.69763175107602E-02
 cg2d: Sum(rhs),rhsMax =   7.10925096569781E-10  1.69761332862471E-02
 cg2d: Sum(rhs),rhsMax =   7.10980913032344E-10  1.69759496092501E-02
 cg2d: Sum(rhs),rhsMax =   7.11012165810487E-10  1.69757661894270E-02
 cg2d: Sum(rhs),rhsMax =   7.11061556857295E-10  1.69755827383774E-02
 cg2d: Sum(rhs),rhsMax =   7.11124950592001E-10  1.69753989828489E-02
 cg2d: Sum(rhs),rhsMax =   7.11172273848426E-10  1.69752146586228E-02
 cg2d: Sum(rhs),rhsMax =   7.11215156212752E-10  1.69750295117916E-02
 cg2d: Sum(rhs),rhsMax =   7.11261174957123E-10  1.69748433026010E-02
 cg2d: Sum(rhs),rhsMax =   7.11305611633684E-10  1.69746558057075E-02
 cg2d: Sum(rhs),rhsMax =   7.11350450766091E-10  1.69744668052895E-02
 cg2d: Sum(rhs),rhsMax =   7.11394831931500E-10  1.69742761048908E-02
 cg2d: Sum(rhs),rhsMax =   7.11436881628558E-10  1.69740835201946E-02
 cg2d: Sum(rhs),rhsMax =   7.11484052229316E-10  1.69738888841924E-02
 cg2d: Sum(rhs),rhsMax =   7.11539521747184E-10  1.69736920420117E-02
 cg2d: Sum(rhs),rhsMax =   7.11582820445145E-10  1.69734928565183E-02
 cg2d: Sum(rhs),rhsMax =   7.11626854665859E-10  1.69732912092247E-02
 cg2d: Sum(rhs),rhsMax =   7.11660078089871E-10  1.69730869908045E-02
 cg2d: Sum(rhs),rhsMax =   7.11733380565072E-10  1.69728801136431E-02
 cg2d: Sum(rhs),rhsMax =   7.11782827123031E-10  1.69726705050521E-02
 cg2d: Sum(rhs),rhsMax =   7.11833911259951E-10  1.69724581050914E-02
 cg2d: Sum(rhs),rhsMax =   7.11883302306759E-10  1.69722428706984E-02
 cg2d: Sum(rhs),rhsMax =   7.11931028019031E-10  1.69720247749716E-02
 cg2d: Sum(rhs),rhsMax =   7.11985900792023E-10  1.69718038049456E-02
 cg2d: Sum(rhs),rhsMax =   7.12046213657835E-10  1.69715799600661E-02
 cg2d: Sum(rhs),rhsMax =   7.12099698652047E-10  1.69713532544372E-02
 cg2d: Sum(rhs),rhsMax =   7.12147923964679E-10  1.69711237159339E-02
 cg2d: Sum(rhs),rhsMax =   7.12204545338935E-10  1.69708913841967E-02
 cg2d: Sum(rhs),rhsMax =   7.12250564083305E-10  1.69706563107836E-02
 cg2d: Sum(rhs),rhsMax =   7.12301190253228E-10  1.69704185551459E-02
 cg2d: Sum(rhs),rhsMax =   7.12360642696197E-10  1.69701781908810E-02
 cg2d: Sum(rhs),rhsMax =   7.12404094049823E-10  1.69699361460532E-02
 cg2d: Sum(rhs),rhsMax =   7.12451098117128E-10  1.69696985334699E-02
 cg2d: Sum(rhs),rhsMax =   7.12493869459152E-10  1.69694584926285E-02
 cg2d: Sum(rhs),rhsMax =   7.12547881809300E-10  1.69692160427366E-02
 cg2d: Sum(rhs),rhsMax =   7.12590042528660E-10  1.69689712423143E-02
 cg2d: Sum(rhs),rhsMax =   7.12643888345355E-10  1.69687241226067E-02
 cg2d: Sum(rhs),rhsMax =   7.12683551062909E-10  1.69684747312750E-02
 cg2d: Sum(rhs),rhsMax =   7.12736702990213E-10  1.69682231250484E-02
 cg2d: Sum(rhs),rhsMax =   7.12779210654269E-10  1.69679693620615E-02
 cg2d: Sum(rhs),rhsMax =   7.12822287307624E-10  1.69677135050364E-02
 cg2d: Sum(rhs),rhsMax =   7.12883946318854E-10  1.69674556224307E-02
 cg2d: Sum(rhs),rhsMax =   7.12917322398532E-10  1.69671957807560E-02
 cg2d: Sum(rhs),rhsMax =   7.12959677406921E-10  1.69669340554167E-02
 cg2d: Sum(rhs),rhsMax =   7.13019823739280E-10  1.69666705189639E-02
 cg2d: Sum(rhs),rhsMax =   7.13078346370466E-10  1.69664052474190E-02
 cg2d: Sum(rhs),rhsMax =   7.13129569285265E-10  1.69661383160065E-02
 cg2d: Sum(rhs),rhsMax =   7.13178044398077E-10  1.69658698012551E-02
 cg2d: Sum(rhs),rhsMax =   7.13212960912202E-10  1.69655997786197E-02
 cg2d: Sum(rhs),rhsMax =   7.13283099251782E-10  1.69653283276851E-02
 cg2d: Sum(rhs),rhsMax =   7.13333767055069E-10  1.69650555213768E-02
 cg2d: Sum(rhs),rhsMax =   7.13393302764764E-10  1.69647814329558E-02
 cg2d: Sum(rhs),rhsMax =   7.13448564115815E-10  1.69645061344522E-02
 cg2d: Sum(rhs),rhsMax =   7.13508849226052E-10  1.69642296960145E-02
 cg2d: Sum(rhs),rhsMax =   7.13565567744823E-10  1.69639521838448E-02
 cg2d: Sum(rhs),rhsMax =   7.13616624126168E-10  1.69636736620234E-02
 cg2d: Sum(rhs),rhsMax =   7.13673883878663E-10  1.69633941928618E-02
 cg2d: Sum(rhs),rhsMax =   7.13735306967500E-10  1.69631138318790E-02
 cg2d: Sum(rhs),rhsMax =   7.13782519201622E-10  1.69628326361335E-02
 cg2d: Sum(rhs),rhsMax =   7.13832770671274E-10  1.69625506530896E-02
 cg2d: Sum(rhs),rhsMax =   7.13875139557452E-10  1.69622679294036E-02
 cg2d: Sum(rhs),rhsMax =   7.13939254937124E-10  1.69619845097709E-02
 cg2d: Sum(rhs),rhsMax =   7.13987868827815E-10  1.69617004308655E-02
 cg2d: Sum(rhs),rhsMax =   7.14041992200265E-10  1.69614157287842E-02
 cg2d: Sum(rhs),rhsMax =   7.14101708321202E-10  1.69611304320949E-02
 cg2d: Sum(rhs),rhsMax =   7.14158260306519E-10  1.69608445675952E-02
 cg2d: Sum(rhs),rhsMax =   7.14197548323803E-10  1.69605581591419E-02
 cg2d: Sum(rhs),rhsMax =   7.14249562272506E-10  1.69602712248288E-02
 cg2d: Sum(rhs),rhsMax =   7.14303713400533E-10  1.69599837785356E-02
 cg2d: Sum(rhs),rhsMax =   7.14352452191314E-10  1.69596958317260E-02
 Computing Diagnostic #    26 "THETA   " (list#  1) Parms "SMR     MR      ", Count=     144
 Computing Diagnostic #    27 "SALT    " (list#  1) Parms "SMR     MR      ", Count=     144
 Computing Diagnostic #    30 "UVEL    " (list#  1) Parms "UUR     MR      ", Count=     144
             Vector  Mate for "UVEL    " :  Diagnostic #     31 "VVEL    " exists
 Computing Diagnostic #    32 "WVEL    " (list#  1) Parms "WM      LR      ", Count=     144
 Computing Diagnostic #    31 "VVEL    " (list#  1) Parms "VVR     MR      ", Count=     144
             Vector  Mate for "VVEL    " :  Diagnostic #     30 "UVEL    " exists
 Computing Diagnostic #   197 "BRGfwFlx" (list#  2) Parms "SM      MR      ", Count=     144
 Computing Diagnostic #   198 "BRGhtFlx" (list#  2) Parms "SM      MR      ", Count=     144
 Computing Diagnostic #   199 "BRGmltRt" (list#  2) Parms "SM      MR      ", Count=     144
 Computing Diagnostic #   201 "BRG_TauX" (list#  2) Parms "UU      MR      ", Count=    1728
 Computing Diagnostic #   202 "BRG_TauY" (list#  2) Parms "VV      MR      ", Count=    1728
 Computing Diagnostic #   203 "BRGhFacC" (list#  2) Parms "SM      MR      ", Count=    1728
 cg2d: Sum(rhs),rhsMax =   7.14405992696676E-10  1.69594073922768E-02
 cg2d: Sum(rhs),rhsMax =   7.14453760042311E-10  1.69591184655514E-02
 cg2d: Sum(rhs),rhsMax =   7.14511061428169E-10  1.69588290514382E-02
 cg2d: Sum(rhs),rhsMax =   7.14563103132448E-10  1.69585391478136E-02
 cg2d: Sum(rhs),rhsMax =   7.14619294295282E-10  1.69582487514831E-02
 cg2d: Sum(rhs),rhsMax =   7.14673778490216E-10  1.69579578526902E-02
 cg2d: Sum(rhs),rhsMax =   7.14722336869755E-10  1.69576663856891E-02
 cg2d: Sum(rhs),rhsMax =   7.14777750876472E-10  1.69573742375109E-02
 cg2d: Sum(rhs),rhsMax =   7.14815942548519E-10  1.69570813954235E-02
 cg2d: Sum(rhs),rhsMax =   7.14872466778260E-10  1.69567878431568E-02
 cg2d: Sum(rhs),rhsMax =   7.14933154344344E-10  1.69564935686501E-02
 cg2d: Sum(rhs),rhsMax =   7.14987014038826E-10  1.69561985543216E-02
 cg2d: Sum(rhs),rhsMax =   7.15046952204368E-10  1.69559027859965E-02
 cg2d: Sum(rhs),rhsMax =   7.15090195391177E-10  1.69556062476055E-02
 cg2d: Sum(rhs),rhsMax =   7.15140099916134E-10  1.69553089216682E-02
 cg2d: Sum(rhs),rhsMax =   7.15196235567817E-10  1.69550107953447E-02
 cg2d: Sum(rhs),rhsMax =   7.15242240434399E-10  1.69547118513995E-02
 cg2d: Sum(rhs),rhsMax =   7.15313613897095E-10  1.69544120748336E-02
 cg2d: Sum(rhs),rhsMax =   7.15369222192841E-10  1.69541114496086E-02
 cg2d: Sum(rhs),rhsMax =   7.15412409868499E-10  1.69538099629737E-02
 cg2d: Sum(rhs),rhsMax =   7.15469961054538E-10  1.69535075996371E-02
 cg2d: Sum(rhs),rhsMax =   7.15525555472496E-10  1.69532043445930E-02
 cg2d: Sum(rhs),rhsMax =   7.15583953203591E-10  1.69529001847481E-02
 cg2d: Sum(rhs),rhsMax =   7.15645667725973E-10  1.69525951063332E-02
 cg2d: Sum(rhs),rhsMax =   7.15707160203749E-10  1.69522890955102E-02
 cg2d: Sum(rhs),rhsMax =   7.15764031378185E-10  1.69519821369253E-02
 cg2d: Sum(rhs),rhsMax =   7.15817155549914E-10  1.69516742174350E-02
 cg2d: Sum(rhs),rhsMax =   7.15867309875051E-10  1.69513653227151E-02
 cg2d: Sum(rhs),rhsMax =   7.15928719086101E-10  1.69510554371434E-02
 cg2d: Sum(rhs),rhsMax =   7.15974196596747E-10  1.69507445442095E-02
 cg2d: Sum(rhs),rhsMax =   7.16032261260935E-10  1.69504326281622E-02
 cg2d: Sum(rhs),rhsMax =   7.16088716101737E-10  1.69501196712575E-02
 cg2d: Sum(rhs),rhsMax =   7.16131667855002E-10  1.69498056539141E-02
 cg2d: Sum(rhs),rhsMax =   7.16185305504879E-10  1.69494905563366E-02
 cg2d: Sum(rhs),rhsMax =   7.16242329334982E-10  1.69491743545153E-02
 cg2d: Sum(rhs),rhsMax =   7.16298645397906E-10  1.69488570243807E-02
 cg2d: Sum(rhs),rhsMax =   7.16356557406428E-10  1.69485385407188E-02
 cg2d: Sum(rhs),rhsMax =   7.16410916701271E-10  1.69482188728107E-02
 cg2d: Sum(rhs),rhsMax =   7.16462236760584E-10  1.69478979896042E-02
 cg2d: Sum(rhs),rhsMax =   7.16518205878813E-10  1.69475758562923E-02
 cg2d: Sum(rhs),rhsMax =   7.16587525428913E-10  1.69472524361367E-02
 cg2d: Sum(rhs),rhsMax =   7.16631642916354E-10  1.69469276873469E-02
 cg2d: Sum(rhs),rhsMax =   7.16687473256705E-10  1.69466015664675E-02
 cg2d: Sum(rhs),rhsMax =   7.16738390860172E-10  1.69462740269713E-02
 cg2d: Sum(rhs),rhsMax =   7.16797732280838E-10  1.69459450179038E-02
 cg2d: Sum(rhs),rhsMax =   7.16852951998526E-10  1.69456144838554E-02
 cg2d: Sum(rhs),rhsMax =   7.16921397247994E-10  1.69452823680016E-02
 cg2d: Sum(rhs),rhsMax =   7.16970149916563E-10  1.69449486073703E-02
 cg2d: Sum(rhs),rhsMax =   7.17025161467433E-10  1.69446131358975E-02
 cg2d: Sum(rhs),rhsMax =   7.17066309108283E-10  1.69442758869488E-02
 cg2d: Sum(rhs),rhsMax =   7.17127468519152E-10  1.69439367854352E-02
 cg2d: Sum(rhs),rhsMax =   7.17183673559774E-10  1.69435957563438E-02
 cg2d: Sum(rhs),rhsMax =   7.17246373405089E-10  1.69432527206035E-02
 cg2d: Sum(rhs),rhsMax =   7.17295001173568E-10  1.69429075951373E-02
 cg2d: Sum(rhs),rhsMax =   7.17365625235722E-10  1.69425602912416E-02
 cg2d: Sum(rhs),rhsMax =   7.17419526563567E-10  1.69422107236529E-02
 cg2d: Sum(rhs),rhsMax =   7.17473094824506E-10  1.69417792036658E-02
 cg2d: Sum(rhs),rhsMax =   7.17532588900838E-10  1.69413458476219E-02
 cg2d: Sum(rhs),rhsMax =   7.17597301025386E-10  1.69409116207540E-02
 cg2d: Sum(rhs),rhsMax =   7.17661777227541E-10  1.69404767458410E-02
 cg2d: Sum(rhs),rhsMax =   7.17721035381480E-10  1.69400419348102E-02
 cg2d: Sum(rhs),rhsMax =   7.17786441395418E-10  1.69396077592481E-02
 cg2d: Sum(rhs),rhsMax =   7.17846129760780E-10  1.69391747550867E-02
 cg2d: Sum(rhs),rhsMax =   7.17912743142257E-10  1.69387434411732E-02
 cg2d: Sum(rhs),rhsMax =   7.17968615115971E-10  1.69383143112162E-02
 cg2d: Sum(rhs),rhsMax =   7.18026915702552E-10  1.69378878311660E-02
 cg2d: Sum(rhs),rhsMax =   7.18089435136626E-10  1.69374644306242E-02
 cg2d: Sum(rhs),rhsMax =   7.18145959366367E-10  1.69370445081032E-02
 cg2d: Sum(rhs),rhsMax =   7.18203232996650E-10  1.69366284251321E-02
 cg2d: Sum(rhs),rhsMax =   7.18261644605533E-10  1.69362165015648E-02
 cg2d: Sum(rhs),rhsMax =   7.18319986825477E-10  1.69358090198417E-02
 cg2d: Sum(rhs),rhsMax =   7.18379120079327E-10  1.69354062178928E-02
 cg2d: Sum(rhs),rhsMax =   7.18431494850513E-10  1.69350082919382E-02
 cg2d: Sum(rhs),rhsMax =   7.18491557916145E-10  1.69346153908579E-02
 cg2d: Sum(rhs),rhsMax =   7.18550316469724E-10  1.69342276231743E-02
 cg2d: Sum(rhs),rhsMax =   7.18614792671879E-10  1.69338450468474E-02
 cg2d: Sum(rhs),rhsMax =   7.18668721755300E-10  1.69334676770951E-02
 cg2d: Sum(rhs),rhsMax =   7.18716836045630E-10  1.69330954839095E-02
 cg2d: Sum(rhs),rhsMax =   7.18774928465393E-10  1.69327283913128E-02
 cg2d: Sum(rhs),rhsMax =   7.18838363833463E-10  1.69323662822209E-02
 cg2d: Sum(rhs),rhsMax =   7.18900064478056E-10  1.69320089926625E-02
 cg2d: Sum(rhs),rhsMax =   7.18961612466984E-10  1.69316563192566E-02
 cg2d: Sum(rhs),rhsMax =   7.19016207684220E-10  1.69313080187130E-02
 cg2d: Sum(rhs),rhsMax =   7.19074688682042E-10  1.69309638081868E-02
 cg2d: Sum(rhs),rhsMax =   7.19127868364922E-10  1.69306233699676E-02
 cg2d: Sum(rhs),rhsMax =   7.19181214581255E-10  1.69302863499773E-02
 cg2d: Sum(rhs),rhsMax =   7.19244566682598E-10  1.69299523647854E-02
 cg2d: Sum(rhs),rhsMax =   7.19294179774010E-10  1.69296210018687E-02
 cg2d: Sum(rhs),rhsMax =   7.19361972767452E-10  1.69292918176042E-02
 cg2d: Sum(rhs),rhsMax =   7.19420037431640E-10  1.69289643520050E-02
 cg2d: Sum(rhs),rhsMax =   7.19479448241245E-10  1.69286381200727E-02
 cg2d: Sum(rhs),rhsMax =   7.19537943116855E-10  1.69283126191480E-02
 cg2d: Sum(rhs),rhsMax =   7.19591039533007E-10  1.69279873346653E-02
 cg2d: Sum(rhs),rhsMax =   7.19655918191009E-10  1.69276617408085E-02
 cg2d: Sum(rhs),rhsMax =   7.19713039165626E-10  1.69273353021471E-02
 cg2d: Sum(rhs),rhsMax =   7.19771492407872E-10  1.69270074827888E-02
 cg2d: Sum(rhs),rhsMax =   7.19813889049625E-10  1.69266777450358E-02
 cg2d: Sum(rhs),rhsMax =   7.19857159992010E-10  1.69263455564091E-02
 cg2d: Sum(rhs),rhsMax =   7.19906897983513E-10  1.69260103828946E-02
 cg2d: Sum(rhs),rhsMax =   7.19957260475468E-10  1.69256717073948E-02
 cg2d: Sum(rhs),rhsMax =   7.20021375855140E-10  1.69253290243637E-02
 cg2d: Sum(rhs),rhsMax =   7.20076526183888E-10  1.69249818454784E-02
 cg2d: Sum(rhs),rhsMax =   7.20133369602749E-10  1.69246296974597E-02
 cg2d: Sum(rhs),rhsMax =   7.20195750258945E-10  1.69242721333880E-02
 cg2d: Sum(rhs),rhsMax =   7.20243503726792E-10  1.69239087302292E-02
 cg2d: Sum(rhs),rhsMax =   7.20294754397166E-10  1.69235390911378E-02
 cg2d: Sum(rhs),rhsMax =   7.20345477711604E-10  1.69231628508900E-02
 cg2d: Sum(rhs),rhsMax =   7.20410689436513E-10  1.69227966116522E-02
 cg2d: Sum(rhs),rhsMax =   7.20470128001693E-10  1.69224407198471E-02
 cg2d: Sum(rhs),rhsMax =   7.20526693864798E-10  1.69220827391138E-02
 cg2d: Sum(rhs),rhsMax =   7.20583287483478E-10  1.69217191611626E-02
 cg2d: Sum(rhs),rhsMax =   7.20639659057554E-10  1.69213488688344E-02
 cg2d: Sum(rhs),rhsMax =   7.20685650046349E-10  1.69209713447550E-02
 cg2d: Sum(rhs),rhsMax =   7.20753290384124E-10  1.69205862766798E-02
 cg2d: Sum(rhs),rhsMax =   7.20812229348944E-10  1.69201934373608E-02
 cg2d: Sum(rhs),rhsMax =   7.20871529136247E-10  1.69197926456498E-02
 cg2d: Sum(rhs),rhsMax =   7.20926651709419E-10  1.69193837633511E-02
 cg2d: Sum(rhs),rhsMax =   7.20989212776857E-10  1.69189666837386E-02
 cg2d: Sum(rhs),rhsMax =   7.21048984408945E-10  1.69185413434700E-02
 cg2d: Sum(rhs),rhsMax =   7.21112405899227E-10  1.69181077123830E-02
 cg2d: Sum(rhs),rhsMax =   7.21179879703548E-10  1.69176657965974E-02
 cg2d: Sum(rhs),rhsMax =   7.21250337232249E-10  1.69172156455500E-02
 cg2d: Sum(rhs),rhsMax =   7.21309692530703E-10  1.69167573437424E-02
 cg2d: Sum(rhs),rhsMax =   7.21363177524914E-10  1.69162910125076E-02
 cg2d: Sum(rhs),rhsMax =   7.21402076964139E-10  1.69158168130208E-02
 cg2d: Sum(rhs),rhsMax =   7.21472451226113E-10  1.69153349414196E-02
 cg2d: Sum(rhs),rhsMax =   7.21539744619193E-10  1.69148456251972E-02
 cg2d: Sum(rhs),rhsMax =   7.21593285124555E-10  1.69143491340457E-02
 cg2d: Sum(rhs),rhsMax =   7.21664242253617E-10  1.69138457641030E-02
 cg2d: Sum(rhs),rhsMax =   7.21727524966020E-10  1.69133358491967E-02
 cg2d: Sum(rhs),rhsMax =   7.21786005963843E-10  1.69128197488107E-02
 cg2d: Sum(rhs),rhsMax =   7.21843404494216E-10  1.69122978555791E-02
 cg2d: Sum(rhs),rhsMax =   7.21889950594523E-10  1.69117705839543E-02
 cg2d: Sum(rhs),rhsMax =   7.21959866889499E-10  1.69112383782972E-02
 cg2d: Sum(rhs),rhsMax =   7.22021178956034E-10  1.69107017027998E-02
 cg2d: Sum(rhs),rhsMax =   7.22086307414216E-10  1.69101610442618E-02
 cg2d: Sum(rhs),rhsMax =   7.22150853005310E-10  1.69096169095712E-02
 cg2d: Sum(rhs),rhsMax =   7.22208792769408E-10  1.69090698168815E-02
 cg2d: Sum(rhs),rhsMax =   7.22265788843934E-10  1.69085203043048E-02
 cg2d: Sum(rhs),rhsMax =   7.22331874869475E-10  1.69079689202855E-02
 cg2d: Sum(rhs),rhsMax =   7.22387261120616E-10  1.69074162182793E-02
 cg2d: Sum(rhs),rhsMax =   7.22450627099747E-10  1.69068627647066E-02
 cg2d: Sum(rhs),rhsMax =   7.22521847906776E-10  1.69063091263328E-02
 cg2d: Sum(rhs),rhsMax =   7.22591847468479E-10  1.69057558716763E-02
 Computing Diagnostic #    26 "THETA   " (list#  1) Parms "SMR     MR      ", Count=     144
 Computing Diagnostic #    27 "SALT    " (list#  1) Parms "SMR     MR      ", Count=     144
 Computing Diagnostic #    30 "UVEL    " (list#  1) Parms "UUR     MR      ", Count=     144
             Vector  Mate for "UVEL    " :  Diagnostic #     31 "VVEL    " exists
 Computing Diagnostic #    32 "WVEL    " (list#  1) Parms "WM      LR      ", Count=     144
 Computing Diagnostic #    31 "VVEL    " (list#  1) Parms "VVR     MR      ", Count=     144
             Vector  Mate for "VVEL    " :  Diagnostic #     30 "UVEL    " exists
 Computing Diagnostic #   197 "BRGfwFlx" (list#  2) Parms "SM      MR      ", Count=     144
 Computing Diagnostic #   198 "BRGhtFlx" (list#  2) Parms "SM      MR      ", Count=     144
 Computing Diagnostic #   199 "BRGmltRt" (list#  2) Parms "SM      MR      ", Count=     144
 Computing Diagnostic #   201 "BRG_TauX" (list#  2) Parms "UU      MR      ", Count=    1728
 Computing Diagnostic #   202 "BRG_TauY" (list#  2) Parms "VV      MR      ", Count=    1728
 Computing Diagnostic #   203 "BRGhFacC" (list#  2) Parms "SM      MR      ", Count=    1728
 cg2d: Sum(rhs),rhsMax =   7.22656157137180E-10  1.69052035705103E-02
 cg2d: Sum(rhs),rhsMax =   7.22719079027101E-10  1.69046527848181E-02
 cg2d: Sum(rhs),rhsMax =   7.22779169848309E-10  1.69041040768886E-02
 cg2d: Sum(rhs),rhsMax =   7.22857662616150E-10  1.69035579929560E-02
 cg2d: Sum(rhs),rhsMax =   7.22910870054605E-10  1.69030150730753E-02
 cg2d: Sum(rhs),rhsMax =   7.22973528266557E-10  1.69024758432851E-02
 cg2d: Sum(rhs),rhsMax =   7.23031079452596E-10  1.69019408128279E-02
 cg2d: Sum(rhs),rhsMax =   7.23093335208702E-10  1.69014104709322E-02
 cg2d: Sum(rhs),rhsMax =   7.23161669435868E-10  1.69008852889241E-02
 cg2d: Sum(rhs),rhsMax =   7.23237164601542E-10  1.69003657165493E-02
 cg2d: Sum(rhs),rhsMax =   7.23315476958142E-10  1.68998521760054E-02
 cg2d: Sum(rhs),rhsMax =   7.23377135969372E-10  1.68993450641381E-02
 cg2d: Sum(rhs),rhsMax =   7.23420282011666E-10  1.68988447524280E-02
 cg2d: Sum(rhs),rhsMax =   7.23492654675084E-10  1.68983515800781E-02
 cg2d: Sum(rhs),rhsMax =   7.23547027847715E-10  1.68978658565553E-02
 cg2d: Sum(rhs),rhsMax =   7.23621398912577E-10  1.68973878574889E-02
 cg2d: Sum(rhs),rhsMax =   7.23680837477758E-10  1.68969178226615E-02
 cg2d: Sum(rhs),rhsMax =   7.23733795116033E-10  1.68964559624043E-02
 cg2d: Sum(rhs),rhsMax =   7.23794357782026E-10  1.68960024484296E-02
 cg2d: Sum(rhs),rhsMax =   7.23853671447117E-10  1.68955574161745E-02
 cg2d: Sum(rhs),rhsMax =   7.23907614408326E-10  1.68951209668888E-02
 cg2d: Sum(rhs),rhsMax =   7.23978987871021E-10  1.68946931631213E-02
 cg2d: Sum(rhs),rhsMax =   7.24026713583292E-10  1.68942740298864E-02
 cg2d: Sum(rhs),rhsMax =   7.24092327764048E-10  1.68938635619459E-02
 cg2d: Sum(rhs),rhsMax =   7.24150531206114E-10  1.68934611390162E-02
 cg2d: Sum(rhs),rhsMax =   7.24211177138834E-10  1.68930672307291E-02
 cg2d: Sum(rhs),rhsMax =   7.24267382179455E-10  1.68926817482415E-02
 cg2d: Sum(rhs),rhsMax =   7.24333176771452E-10  1.68923045315503E-02
 cg2d: Sum(rhs),rhsMax =   7.24396168050312E-10  1.68919353873425E-02
 cg2d: Sum(rhs),rhsMax =   7.24444504385247E-10  1.68915741052601E-02
 cg2d: Sum(rhs),rhsMax =   7.24500043292053E-10  1.68912204566583E-02
 cg2d: Sum(rhs),rhsMax =   7.24548102071232E-10  1.68908741647774E-02
 cg2d: Sum(rhs),rhsMax =   7.24609289237677E-10  1.68905349192150E-02
 cg2d: Sum(rhs),rhsMax =   7.24663315465612E-10  1.68902024219717E-02
 cg2d: Sum(rhs),rhsMax =   7.24719145805963E-10  1.68898763190925E-02
 cg2d: Sum(rhs),rhsMax =   7.24759641190786E-10  1.68895562355493E-02
 cg2d: Sum(rhs),rhsMax =   7.24808629781748E-10  1.68892417799602E-02
 cg2d: Sum(rhs),rhsMax =   7.24861587420023E-10  1.68889325329843E-02
 cg2d: Sum(rhs),rhsMax =   7.24921331296535E-10  1.68886280562281E-02
 cg2d: Sum(rhs),rhsMax =   7.24981824573590E-10  1.68883278934549E-02
 cg2d: Sum(rhs),rhsMax =   7.25026289005726E-10  1.68880315715620E-02
 cg2d: Sum(rhs),rhsMax =   7.25077428653798E-10  1.68877386063544E-02
 cg2d: Sum(rhs),rhsMax =   7.25125307021734E-10  1.68874485030107E-02
 cg2d: Sum(rhs),rhsMax =   7.25183316174771E-10  1.68871588284713E-02
 cg2d: Sum(rhs),rhsMax =   7.25239590604332E-10  1.68868686058038E-02
 cg2d: Sum(rhs),rhsMax =   7.25286233849154E-10  1.68865772896781E-02
 cg2d: Sum(rhs),rhsMax =   7.25342758078895E-10  1.68862843441041E-02
 cg2d: Sum(rhs),rhsMax =   7.25373636156768E-10  1.68859892473889E-02
 cg2d: Sum(rhs),rhsMax =   7.25437918069893E-10  1.68856915015861E-02
 cg2d: Sum(rhs),rhsMax =   7.25483936814264E-10  1.68853906295885E-02
 cg2d: Sum(rhs),rhsMax =   7.25541376978001E-10  1.68850861804123E-02
 cg2d: Sum(rhs),rhsMax =   7.25596333017720E-10  1.68847777272371E-02
 cg2d: Sum(rhs),rhsMax =   7.25647805732699E-10  1.68844648723800E-02
 cg2d: Sum(rhs),rhsMax =   7.25709478621717E-10  1.68841472514068E-02
 cg2d: Sum(rhs),rhsMax =   7.25749654817420E-10  1.68838245291428E-02
 cg2d: Sum(rhs),rhsMax =   7.25803472878539E-10  1.68834964062317E-02
 cg2d: Sum(rhs),rhsMax =   7.25865451078889E-10  1.68831626188331E-02
 cg2d: Sum(rhs),rhsMax =   7.25921031619059E-10  1.68828229402852E-02
 cg2d: Sum(rhs),rhsMax =   7.25985507821214E-10  1.68824771797492E-02
 cg2d: Sum(rhs),rhsMax =   7.26040116916238E-10  1.68821251876026E-02
 cg2d: Sum(rhs),rhsMax =   7.26104204540334E-10  1.68817668548223E-02
 cg2d: Sum(rhs),rhsMax =   7.26168861153731E-10  1.68814021053191E-02
 cg2d: Sum(rhs),rhsMax =   7.26221485725098E-10  1.68810309140553E-02
 cg2d: Sum(rhs),rhsMax =   7.26269794304457E-10  1.68806532843982E-02
 cg2d: Sum(rhs),rhsMax =   7.26332410883046E-10  1.68802692716833E-02
 cg2d: Sum(rhs),rhsMax =   7.26394916439332E-10  1.68798789602843E-02
 cg2d: Sum(rhs),rhsMax =   7.26443891152506E-10  1.68794824803117E-02
 cg2d: Sum(rhs),rhsMax =   7.26515847482290E-10  1.68790799980052E-02
 cg2d: Sum(rhs),rhsMax =   7.26568250009052E-10  1.68786717183933E-02
 cg2d: Sum(rhs),rhsMax =   7.26627299996174E-10  1.68782578820835E-02
 cg2d: Sum(rhs),rhsMax =   7.26687349184019E-10  1.68778387668885E-02
 cg2d: Sum(rhs),rhsMax =   7.26750756796513E-10  1.68774146822956E-02
 cg2d: Sum(rhs),rhsMax =   7.26797733108242E-10  1.68769859720521E-02
 cg2d: Sum(rhs),rhsMax =   7.26858101485206E-10  1.68765530105882E-02
 cg2d: Sum(rhs),rhsMax =   7.26910989734542E-10  1.68761161997141E-02
 cg2d: Sum(rhs),rhsMax =   7.26958618302298E-10  1.68756759717261E-02
 cg2d: Sum(rhs),rhsMax =   7.27013768631046E-10  1.68752327779889E-02
 cg2d: Sum(rhs),rhsMax =   7.27074622730584E-10  1.68747871007515E-02
 cg2d: Sum(rhs),rhsMax =   7.27139570777524E-10  1.68743394354458E-02
 cg2d: Sum(rhs),rhsMax =   7.27202506545233E-10  1.68738902982658E-02
 cg2d: Sum(rhs),rhsMax =   7.27261029176418E-10  1.68734402250627E-02
 cg2d: Sum(rhs),rhsMax =   7.27316470938710E-10  1.68729897717125E-02
 cg2d: Sum(rhs),rhsMax =   7.27372731490483E-10  1.68725394911424E-02
 cg2d: Sum(rhs),rhsMax =   7.27441482051283E-10  1.68720899502654E-02
 cg2d: Sum(rhs),rhsMax =   7.27504931297140E-10  1.68716417296368E-02
 cg2d: Sum(rhs),rhsMax =   7.27576832115773E-10  1.68711954041872E-02
 cg2d: Sum(rhs),rhsMax =   7.27627222363303E-10  1.68707515513609E-02
 cg2d: Sum(rhs),rhsMax =   7.27683593937378E-10  1.68703107446183E-02
 cg2d: Sum(rhs),rhsMax =   7.27753551865717E-10  1.68698735548827E-02
 cg2d: Sum(rhs),rhsMax =   7.27811338974149E-10  1.68694405443708E-02
 cg2d: Sum(rhs),rhsMax =   7.27863200267187E-10  1.68690122662762E-02
 cg2d: Sum(rhs),rhsMax =   7.27928425869884E-10  1.68685892605675E-02
 cg2d: Sum(rhs),rhsMax =   7.27988253013123E-10  1.68681720500796E-02
 cg2d: Sum(rhs),rhsMax =   7.28047525044850E-10  1.68677611454254E-02
 cg2d: Sum(rhs),rhsMax =   7.28092613977438E-10  1.68673570349655E-02
 cg2d: Sum(rhs),rhsMax =   7.28153648488217E-10  1.68669601883222E-02
 cg2d: Sum(rhs),rhsMax =   7.28211463352224E-10  1.68665710497444E-02
 cg2d: Sum(rhs),rhsMax =   7.28257898430229E-10  1.68661900412732E-02
 cg2d: Sum(rhs),rhsMax =   7.28329674348771E-10  1.68658175566937E-02
 cg2d: Sum(rhs),rhsMax =   7.28390292525916E-10  1.68654539624402E-02
 cg2d: Sum(rhs),rhsMax =   7.28452853593353E-10  1.68650995978899E-02
 cg2d: Sum(rhs),rhsMax =   7.28514595871310E-10  1.68647547689920E-02
 cg2d: Sum(rhs),rhsMax =   7.28578919417799E-10  1.68644197518730E-02
 cg2d: Sum(rhs),rhsMax =   7.28636900815260E-10  1.68640947922565E-02
 cg2d: Sum(rhs),rhsMax =   7.28691842977192E-10  1.68637800987972E-02
 cg2d: Sum(rhs),rhsMax =   7.28744065092712E-10  1.68634758500276E-02
 cg2d: Sum(rhs),rhsMax =   7.28800395033424E-10  1.68631821890510E-02
 cg2d: Sum(rhs),rhsMax =   7.28861665466596E-10  1.68628992253736E-02
 cg2d: Sum(rhs),rhsMax =   7.28928598037193E-10  1.68626270328544E-02
 cg2d: Sum(rhs),rhsMax =   7.28981791597860E-10  1.68623656530451E-02
 cg2d: Sum(rhs),rhsMax =   7.29040230962319E-10  1.68621150913211E-02
 cg2d: Sum(rhs),rhsMax =   7.29095728235762E-10  1.68618753198836E-02
 cg2d: Sum(rhs),rhsMax =   7.29148838529703E-10  1.68616462767797E-02
 cg2d: Sum(rhs),rhsMax =   7.29196841797730E-10  1.68614278704686E-02
 cg2d: Sum(rhs),rhsMax =   7.29242208286074E-10  1.68612199719606E-02
 cg2d: Sum(rhs),rhsMax =   7.29285618006337E-10  1.68610224257787E-02
 cg2d: Sum(rhs),rhsMax =   7.29335689064747E-10  1.68608350436667E-02
 cg2d: Sum(rhs),rhsMax =   7.29391477771735E-10  1.68606576075030E-02
 cg2d: Sum(rhs),rhsMax =   7.29438440205676E-10  1.68604898734115E-02
 cg2d: Sum(rhs),rhsMax =   7.29484306294381E-10  1.68603315682773E-02
 cg2d: Sum(rhs),rhsMax =   7.29535140631121E-10  1.68601823952257E-02
 cg2d: Sum(rhs),rhsMax =   7.29594981652149E-10  1.68600420325591E-02
 cg2d: Sum(rhs),rhsMax =   7.29643845343020E-10  1.68599101341239E-02
 cg2d: Sum(rhs),rhsMax =   7.29698357293529E-10  1.68597863368599E-02
 cg2d: Sum(rhs),rhsMax =   7.29745000538351E-10  1.68596702551886E-02
 cg2d: Sum(rhs),rhsMax =   7.29788854347824E-10  1.68595614848002E-02
 cg2d: Sum(rhs),rhsMax =   7.29823770861948E-10  1.68594596069674E-02
 cg2d: Sum(rhs),rhsMax =   7.29880877958777E-10  1.68593641891855E-02
 cg2d: Sum(rhs),rhsMax =   7.29919361064368E-10  1.68592747836824E-02
 cg2d: Sum(rhs),rhsMax =   7.29962992829236E-10  1.68591909335800E-02
 cg2d: Sum(rhs),rhsMax =   7.30009955263178E-10  1.68591063786772E-02
 cg2d: Sum(rhs),rhsMax =   7.30066909704341E-10  1.68590256892926E-02
 cg2d: Sum(rhs),rhsMax =   7.30117633018779E-10  1.68589491019425E-02
 cg2d: Sum(rhs),rhsMax =   7.30162930118183E-10  1.68588761323126E-02
 cg2d: Sum(rhs),rhsMax =   7.30209795407610E-10  1.68588063332261E-02
 cg2d: Sum(rhs),rhsMax =   7.30254176573020E-10  1.68587393290497E-02
 cg2d: Sum(rhs),rhsMax =   7.30302762708135E-10  1.68586746511468E-02
 cg2d: Sum(rhs),rhsMax =   7.30348198585418E-10  1.68586118593890E-02
 cg2d: Sum(rhs),rhsMax =   7.30390553593807E-10  1.68585504894417E-02
 cg2d: Sum(rhs),rhsMax =   7.30442734075964E-10  1.68584901103625E-02
 cg2d: Sum(rhs),rhsMax =   7.30475346877313E-10  1.68584302681716E-02
 cg2d: Sum(rhs),rhsMax =   7.30527957570892E-10  1.68583705425675E-02
 cg2d: Sum(rhs),rhsMax =   7.30567356610479E-10  1.68583104919473E-02
 cg2d: Sum(rhs),rhsMax =   7.30612209620674E-10  1.68582497166269E-02
 Computing Diagnostic #    26 "THETA   " (list#  1) Parms "SMR     MR      ", Count=     144
 Computing Diagnostic #    27 "SALT    " (list#  1) Parms "SMR     MR      ", Count=     144
 Computing Diagnostic #    30 "UVEL    " (list#  1) Parms "UUR     MR      ", Count=     144
             Vector  Mate for "UVEL    " :  Diagnostic #     31 "VVEL    " exists
 Computing Diagnostic #    32 "WVEL    " (list#  1) Parms "WM      LR      ", Count=     144
 Computing Diagnostic #    31 "VVEL    " (list#  1) Parms "VVR     MR      ", Count=     144
             Vector  Mate for "VVEL    " :  Diagnostic #     30 "UVEL    " exists
 Computing Diagnostic #   197 "BRGfwFlx" (list#  2) Parms "SM      MR      ", Count=     144
 Computing Diagnostic #   198 "BRGhtFlx" (list#  2) Parms "SM      MR      ", Count=     144
 Computing Diagnostic #   199 "BRGmltRt" (list#  2) Parms "SM      MR      ", Count=     144
 Computing Diagnostic #   201 "BRG_TauX" (list#  2) Parms "UU      MR      ", Count=    1728
 Computing Diagnostic #   202 "BRG_TauY" (list#  2) Parms "VV      MR      ", Count=    1728
 Computing Diagnostic #   203 "BRGhFacC" (list#  2) Parms "SM      MR      ", Count=    1728
 cg2d: Sum(rhs),rhsMax =   7.30657256919898E-10  1.68581877908060E-02
 cg2d: Sum(rhs),rhsMax =   7.30703900164720E-10  1.68581243328259E-02
 cg2d: Sum(rhs),rhsMax =   7.30756788414055E-10  1.68580589416586E-02
 cg2d: Sum(rhs),rhsMax =   7.30808191740095E-10  1.68579912575251E-02
 cg2d: Sum(rhs),rhsMax =   7.30835988949075E-10  1.68579209040133E-02
 cg2d: Sum(rhs),rhsMax =   7.30873667142973E-10  1.68578475468825E-02
 cg2d: Sum(rhs),rhsMax =   7.30918117697321E-10  1.68577708369625E-02
 cg2d: Sum(rhs),rhsMax =   7.30974072937762E-10  1.68576904680785E-02
 cg2d: Sum(rhs),rhsMax =   7.31019980659831E-10  1.68576061181256E-02
 cg2d: Sum(rhs),rhsMax =   7.31060850744925E-10  1.68575175110948E-02
 cg2d: Sum(rhs),rhsMax =   7.31114335739136E-10  1.68574243548217E-02
 cg2d: Sum(rhs),rhsMax =   7.31164670475515E-10  1.68573264030216E-02
 cg2d: Sum(rhs),rhsMax =   7.31208052440202E-10  1.68572233950514E-02
 cg2d: Sum(rhs),rhsMax =   7.31253377295182E-10  1.68571151147304E-02
 cg2d: Sum(rhs),rhsMax =   7.31299784617612E-10  1.68570013301095E-02
 cg2d: Sum(rhs),rhsMax =   7.31343152704511E-10  1.68568818567990E-02
 cg2d: Sum(rhs),rhsMax =   7.31396956887842E-10  1.68567564952377E-02
 cg2d: Sum(rhs),rhsMax =   7.31451538227290E-10  1.68566250893704E-02
 cg2d: Sum(rhs),rhsMax =   7.31500124362405E-10  1.68564874701071E-02
 cg2d: Sum(rhs),rhsMax =   7.31549015808852E-10  1.68563435114249E-02
 cg2d: Sum(rhs),rhsMax =   7.31583293944738E-10  1.68561930736248E-02
 cg2d: Sum(rhs),rhsMax =   7.31635793616014E-10  1.68560360566558E-02
 cg2d: Sum(rhs),rhsMax =   7.31697258338215E-10  1.68558723517030E-02
 cg2d: Sum(rhs),rhsMax =   7.31750368632156E-10  1.68557018867101E-02
 cg2d: Sum(rhs),rhsMax =   7.31797233921583E-10  1.68555245756590E-02
 cg2d: Sum(rhs),rhsMax =   7.31842170198505E-10  1.68553403781181E-02
 cg2d: Sum(rhs),rhsMax =   7.31889771010685E-10  1.68551492317792E-02
 cg2d: Sum(rhs),rhsMax =   7.31942048637357E-10  1.68549511189850E-02
 cg2d: Sum(rhs),rhsMax =   7.31994284630666E-10  1.68547460048085E-02
 cg2d: Sum(rhs),rhsMax =   7.32047450435758E-10  1.68545338923993E-02
 cg2d: Sum(rhs),rhsMax =   7.32096050448661E-10  1.68543147694580E-02
 cg2d: Sum(rhs),rhsMax =   7.32147661941518E-10  1.68540886618392E-02
 cg2d: Sum(rhs),rhsMax =   7.32200147735007E-10  1.68538555771207E-02
 cg2d: Sum(rhs),rhsMax =   7.32241878242945E-10  1.68536155618408E-02
 cg2d: Sum(rhs),rhsMax =   7.32304550332685E-10  1.68533686425314E-02
 cg2d: Sum(rhs),rhsMax =   7.32368346523238E-10  1.68531148853762E-02
 cg2d: Sum(rhs),rhsMax =   7.32426480576365E-10  1.68528543339968E-02
 cg2d: Sum(rhs),rhsMax =   7.32474775277936E-10  1.68525870684962E-02
 cg2d: Sum(rhs),rhsMax =   7.32531160729799E-10  1.68523131544855E-02
 cg2d: Sum(rhs),rhsMax =   7.32581870166449E-10  1.68520326854972E-02
 cg2d: Sum(rhs),rhsMax =   7.32631413868923E-10  1.68517457421966E-02
 cg2d: Sum(rhs),rhsMax =   7.32693059002365E-10  1.68514524330061E-02
 cg2d: Sum(rhs),rhsMax =   7.32728697161456E-10  1.68511528512110E-02
 cg2d: Sum(rhs),rhsMax =   7.32779906198466E-10  1.68508471204131E-02
 cg2d: Sum(rhs),rhsMax =   7.32830657268480E-10  1.68505353457420E-02
 cg2d: Sum(rhs),rhsMax =   7.32885016563323E-10  1.68502176637849E-02
 cg2d: Sum(rhs),rhsMax =   7.32940541592342E-10  1.68498941910416E-02
 cg2d: Sum(rhs),rhsMax =   7.32996927044205E-10  1.68495650752208E-02
 cg2d: Sum(rhs),rhsMax =   7.33045388279230E-10  1.68492304429653E-02
 cg2d: Sum(rhs),rhsMax =   7.33100039007617E-10  1.68488904527320E-02
 cg2d: Sum(rhs),rhsMax =   7.33155203214153E-10  1.68485452424784E-02
 cg2d: Sum(rhs),rhsMax =   7.33222843551928E-10  1.68481949790537E-02
 cg2d: Sum(rhs),rhsMax =   7.33280797193814E-10  1.68478398090426E-02
 cg2d: Sum(rhs),rhsMax =   7.33336280589469E-10  1.68474799062883E-02
 cg2d: Sum(rhs),rhsMax =   7.33383645479257E-10  1.68471154265900E-02
 cg2d: Sum(rhs),rhsMax =   7.33426624988098E-10  1.68467465536878E-02
 cg2d: Sum(rhs),rhsMax =   7.33482816150932E-10  1.68463734480180E-02
 cg2d: Sum(rhs),rhsMax =   7.33542365738415E-10  1.68459963008402E-02
 cg2d: Sum(rhs),rhsMax =   7.33609714642647E-10  1.68456152774797E-02
 cg2d: Sum(rhs),rhsMax =   7.33657759544037E-10  1.68452305745265E-02
 cg2d: Sum(rhs),rhsMax =   7.33730659563392E-10  1.68448423639597E-02
 cg2d: Sum(rhs),rhsMax =   7.33790583851146E-10  1.68444508468369E-02
 cg2d: Sum(rhs),rhsMax =   7.33857405399441E-10  1.68440562004334E-02
 cg2d: Sum(rhs),rhsMax =   7.33927404961143E-10  1.68436586248157E-02
 cg2d: Sum(rhs),rhsMax =   7.33992547297113E-10  1.68432583019332E-02
 cg2d: Sum(rhs),rhsMax =   7.34055927154031E-10  1.68428554382128E-02
 cg2d: Sum(rhs),rhsMax =   7.34121319290182E-10  1.68424502151057E-02
 cg2d: Sum(rhs),rhsMax =   7.34174276928456E-10  1.68420428350259E-02
 cg2d: Sum(rhs),rhsMax =   7.34231883625647E-10  1.68416334835536E-02
 cg2d: Sum(rhs),rhsMax =   7.34285882098007E-10  1.68412223703264E-02
 cg2d: Sum(rhs),rhsMax =   7.34350441566889E-10  1.68408096711354E-02
 cg2d: Sum(rhs),rhsMax =   7.34415028791346E-10  1.68403955942040E-02
 cg2d: Sum(rhs),rhsMax =   7.34485736120227E-10  1.68399803094529E-02
 cg2d: Sum(rhs),rhsMax =   7.34540983593490E-10  1.68395640257509E-02
 cg2d: Sum(rhs),rhsMax =   7.34598840090861E-10  1.68391287751885E-02
 cg2d: Sum(rhs),rhsMax =   7.34653879397307E-10  1.68386278539307E-02
 cg2d: Sum(rhs),rhsMax =   7.34720159711877E-10  1.68381236938148E-02
 cg2d: Sum(rhs),rhsMax =   7.34789742939945E-10  1.68376196738351E-02
 cg2d: Sum(rhs),rhsMax =   7.34846836158987E-10  1.68371152725615E-02
 cg2d: Sum(rhs),rhsMax =   7.34905566956989E-10  1.68366107033164E-02
 cg2d: Sum(rhs),rhsMax =   7.34974650584697E-10  1.68361063402644E-02
 cg2d: Sum(rhs),rhsMax =   7.35036712051773E-10  1.68356025625810E-02
 cg2d: Sum(rhs),rhsMax =   7.35105934457359E-10  1.68350997542518E-02
 cg2d: Sum(rhs),rhsMax =   7.35165678333871E-10  1.68345982594806E-02
 cg2d: Sum(rhs),rhsMax =   7.35236246884874E-10  1.68340984114014E-02
 cg2d: Sum(rhs),rhsMax =   7.35297892018316E-10  1.68336005365666E-02
 cg2d: Sum(rhs),rhsMax =   7.35367197690628E-10  1.68331049462545E-02
 cg2d: Sum(rhs),rhsMax =   7.35425401132694E-10  1.68326119501857E-02
 cg2d: Sum(rhs),rhsMax =   7.35492736159138E-10  1.68321218390173E-02
 cg2d: Sum(rhs),rhsMax =   7.35575850230319E-10  1.68316348986513E-02
 cg2d: Sum(rhs),rhsMax =   7.35649166583308E-10  1.68311514010897E-02
 cg2d: Sum(rhs),rhsMax =   7.35704330789844E-10  1.68306716035409E-02
 cg2d: Sum(rhs),rhsMax =   7.35772429094617E-10  1.68301957566279E-02
 cg2d: Sum(rhs),rhsMax =   7.35839333909638E-10  1.68297240944719E-02
 cg2d: Sum(rhs),rhsMax =   7.35898397774548E-10  1.68292568375088E-02
 cg2d: Sum(rhs),rhsMax =   7.35969299392458E-10  1.68287941953886E-02
 cg2d: Sum(rhs),rhsMax =   7.36033747839038E-10  1.68283363614747E-02
 cg2d: Sum(rhs),rhsMax =   7.36087760189186E-10  1.68278835191712E-02
 cg2d: Sum(rhs),rhsMax =   7.36149613489445E-10  1.68274358334826E-02
 cg2d: Sum(rhs),rhsMax =   7.36209482266048E-10  1.68269934580519E-02
 cg2d: Sum(rhs),rhsMax =   7.36262786849018E-10  1.68265565289811E-02
 cg2d: Sum(rhs),rhsMax =   7.36330510453520E-10  1.68261251712609E-02
 cg2d: Sum(rhs),rhsMax =   7.36390809441545E-10  1.68256994939729E-02
 cg2d: Sum(rhs),rhsMax =   7.36469163431508E-10  1.68252795908685E-02
 cg2d: Sum(rhs),rhsMax =   7.36524979894071E-10  1.68248655431715E-02
 cg2d: Sum(rhs),rhsMax =   7.36576424853475E-10  1.68244574153335E-02
 cg2d: Sum(rhs),rhsMax =   7.36629229836083E-10  1.68240552590060E-02
 cg2d: Sum(rhs),rhsMax =   7.36691915803611E-10  1.68236591130266E-02
 cg2d: Sum(rhs),rhsMax =   7.36759209196691E-10  1.68232689971209E-02
 cg2d: Sum(rhs),rhsMax =   7.36815747304220E-10  1.68228849228727E-02
 cg2d: Sum(rhs),rhsMax =   7.36884456231657E-10  1.68225068844414E-02
 cg2d: Sum(rhs),rhsMax =   7.36936497935936E-10  1.68221348635388E-02
 cg2d: Sum(rhs),rhsMax =   7.36995450778544E-10  1.68217688299075E-02
 cg2d: Sum(rhs),rhsMax =   7.37058983291128E-10  1.68214087380151E-02
 cg2d: Sum(rhs),rhsMax =   7.37120905980326E-10  1.68210545327357E-02
 cg2d: Sum(rhs),rhsMax =   7.37172337061942E-10  1.68207061449670E-02
 cg2d: Sum(rhs),rhsMax =   7.37224420399585E-10  1.68203634943723E-02
 cg2d: Sum(rhs),rhsMax =   7.37270119954836E-10  1.68200264862965E-02
 cg2d: Sum(rhs),rhsMax =   7.37328906263990E-10  1.68196950195387E-02
 cg2d: Sum(rhs),rhsMax =   7.37388552995988E-10  1.68193689805165E-02
 cg2d: Sum(rhs),rhsMax =   7.37457039878819E-10  1.68190482457228E-02
 cg2d: Sum(rhs),rhsMax =   7.37510177928336E-10  1.68187326803335E-02
 cg2d: Sum(rhs),rhsMax =   7.37549979423768E-10  1.68184221438728E-02
 cg2d: Sum(rhs),rhsMax =   7.37612873558113E-10  1.68181164824683E-02
 cg2d: Sum(rhs),rhsMax =   7.37657102067857E-10  1.68178155399217E-02
 cg2d: Sum(rhs),rhsMax =   7.37714819787350E-10  1.68175191412183E-02
 cg2d: Sum(rhs),rhsMax =   7.37768082736956E-10  1.68172271189113E-02
 cg2d: Sum(rhs),rhsMax =   7.37826508223627E-10  1.68169393056688E-02
 cg2d: Sum(rhs),rhsMax =   7.37881658552375E-10  1.68166554956933E-02
 cg2d: Sum(rhs),rhsMax =   7.37931341032727E-10  1.68163754982414E-02
 cg2d: Sum(rhs),rhsMax =   7.37997482569419E-10  1.68160991196051E-02
 cg2d: Sum(rhs),rhsMax =   7.38058739124803E-10  1.68158261581474E-02
 cg2d: Sum(rhs),rhsMax =   7.38110295106509E-10  1.68155564091471E-02
 cg2d: Sum(rhs),rhsMax =   7.38168123848304E-10  1.68152896619684E-02
 cg2d: Sum(rhs),rhsMax =   7.38204913863783E-10  1.68150257070925E-02
 cg2d: Sum(rhs),rhsMax =   7.38257843746482E-10  1.68147643289103E-02
 cg2d: Sum(rhs),rhsMax =   7.38302682878889E-10  1.68145053134826E-02
 cg2d: Sum(rhs),rhsMax =   7.38351227380640E-10  1.68142484430928E-02
 cg2d: Sum(rhs),rhsMax =   7.38405114830698E-10  1.68139935013830E-02
 cg2d: Sum(rhs),rhsMax =   7.38467620386984E-10  1.68137402684508E-02
 cg2d: Sum(rhs),rhsMax =   7.38519440046659E-10  1.68134885271824E-02
 cg2d: Sum(rhs),rhsMax =   7.38581987236309E-10  1.68132380608420E-02
 cg2d: Sum(rhs),rhsMax =   7.38636957153815E-10  1.68129886513102E-02
 cg2d: Sum(rhs),rhsMax =   7.38681060763469E-10  1.68127400865892E-02
 Computing Diagnostic #    26 "THETA   " (list#  1) Parms "SMR     MR      ", Count=     144
 Computing Diagnostic #    27 "SALT    " (list#  1) Parms "SMR     MR      ", Count=     144
 Computing Diagnostic #    30 "UVEL    " (list#  1) Parms "UUR     MR      ", Count=     144
             Vector  Mate for "UVEL    " :  Diagnostic #     31 "VVEL    " exists
 Computing Diagnostic #    32 "WVEL    " (list#  1) Parms "WM      LR      ", Count=     144
 Computing Diagnostic #    31 "VVEL    " (list#  1) Parms "VVR     MR      ", Count=     144
             Vector  Mate for "VVEL    " :  Diagnostic #     30 "UVEL    " exists
 Computing Diagnostic #   197 "BRGfwFlx" (list#  2) Parms "SM      MR      ", Count=     144
 Computing Diagnostic #   198 "BRGhtFlx" (list#  2) Parms "SM      MR      ", Count=     144
 Computing Diagnostic #   199 "BRGmltRt" (list#  2) Parms "SM      MR      ", Count=     144
 Computing Diagnostic #   201 "BRG_TauX" (list#  2) Parms "UU      MR      ", Count=    1728
 Computing Diagnostic #   202 "BRG_TauY" (list#  2) Parms "VV      MR      ", Count=    1728
 Computing Diagnostic #   203 "BRGhFacC" (list#  2) Parms "SM      MR      ", Count=    1728
 cg2d: Sum(rhs),rhsMax =   7.38737307437454E-10  1.68124921519532E-02
 cg2d: Sum(rhs),rhsMax =   7.38789696086428E-10  1.68122446378145E-02
 cg2d: Sum(rhs),rhsMax =   7.38837852010121E-10  1.68119973361926E-02
 cg2d: Sum(rhs),rhsMax =   7.38890851281759E-10  1.68117500417612E-02
 cg2d: Sum(rhs),rhsMax =   7.38937910860216E-10  1.68115025586576E-02
 cg2d: Sum(rhs),rhsMax =   7.38978156444858E-10  1.68112546865260E-02
 cg2d: Sum(rhs),rhsMax =   7.39031363883313E-10  1.68110062315192E-02
 cg2d: Sum(rhs),rhsMax =   7.39094271895446E-10  1.68107570073922E-02
 cg2d: Sum(rhs),rhsMax =   7.39139582872639E-10  1.68105068291423E-02
 cg2d: Sum(rhs),rhsMax =   7.39193886656331E-10  1.68102555203845E-02
 cg2d: Sum(rhs),rhsMax =   7.39253019910180E-10  1.68100029052578E-02
 cg2d: Sum(rhs),rhsMax =   7.39303313013195E-10  1.68097488164032E-02
 cg2d: Sum(rhs),rhsMax =   7.39363251178737E-10  1.68094930910421E-02
 cg2d: Sum(rhs),rhsMax =   7.39409644623379E-10  1.68092355738059E-02
 cg2d: Sum(rhs),rhsMax =   7.39465946808515E-10  1.68089761151148E-02
 cg2d: Sum(rhs),rhsMax =   7.39508523861510E-10  1.68087145646285E-02
 cg2d: Sum(rhs),rhsMax =   7.39562008855721E-10  1.68084507853307E-02
 cg2d: Sum(rhs),rhsMax =   7.39622529888351E-10  1.68081846459711E-02
 cg2d: Sum(rhs),rhsMax =   7.39670061311593E-10  1.68079160194904E-02
 cg2d: Sum(rhs),rhsMax =   7.39722644249596E-10  1.68076447867568E-02
 cg2d: Sum(rhs),rhsMax =   7.39765970703132E-10  1.68073708322806E-02
 cg2d: Sum(rhs),rhsMax =   7.39815556038970E-10  1.68070940498790E-02
 cg2d: Sum(rhs),rhsMax =   7.39869485122391E-10  1.68068143368310E-02
 cg2d: Sum(rhs),rhsMax =   7.39924399528746E-10  1.68065315980034E-02
 cg2d: Sum(rhs),rhsMax =   7.39985198117132E-10  1.68062457455353E-02
 cg2d: Sum(rhs),rhsMax =   7.40042277458386E-10  1.68059566956493E-02
 cg2d: Sum(rhs),rhsMax =   7.40102923391106E-10  1.68056643710001E-02
 cg2d: Sum(rhs),rhsMax =   7.40159628032089E-10  1.68053687013322E-02
 cg2d: Sum(rhs),rhsMax =   7.40208949689958E-10  1.68050696220991E-02
 cg2d: Sum(rhs),rhsMax =   7.40262642850986E-10  1.68047670732226E-02
 cg2d: Sum(rhs),rhsMax =   7.40319777703391E-10  1.68044610004121E-02
 cg2d: Sum(rhs),rhsMax =   7.40372027574487E-10  1.68041513576798E-02
 cg2d: Sum(rhs),rhsMax =   7.40422542722108E-10  1.68038380984490E-02
 cg2d: Sum(rhs),rhsMax =   7.40463218518173E-10  1.68035211872622E-02
 cg2d: Sum(rhs),rhsMax =   7.40529554343894E-10  1.68032005896180E-02
 cg2d: Sum(rhs),rhsMax =   7.40594155446139E-10  1.68028762765448E-02
 cg2d: Sum(rhs),rhsMax =   7.40633041007577E-10  1.68025482243774E-02
 cg2d: Sum(rhs),rhsMax =   7.40696198819890E-10  1.68022164106614E-02
 cg2d: Sum(rhs),rhsMax =   7.40735528470537E-10  1.68018808251021E-02
 cg2d: Sum(rhs),rhsMax =   7.40792413522762E-10  1.68015414535411E-02
 cg2d: Sum(rhs),rhsMax =   7.40853017822118E-10  1.68011982872403E-02
 cg2d: Sum(rhs),rhsMax =   7.40900396589694E-10  1.68008513221295E-02
 cg2d: Sum(rhs),rhsMax =   7.40946484723004E-10  1.68005005588388E-02
 cg2d: Sum(rhs),rhsMax =   7.41007546989358E-10  1.68001459995127E-02
 cg2d: Sum(rhs),rhsMax =   7.41065389608941E-10  1.67997876489960E-02
 cg2d: Sum(rhs),rhsMax =   7.41119512981392E-10  1.67994255153657E-02
 cg2d: Sum(rhs),rhsMax =   7.41179062568875E-10  1.67990596103551E-02
 cg2d: Sum(rhs),rhsMax =   7.41229452816405E-10  1.67986899450849E-02
 cg2d: Sum(rhs),rhsMax =   7.41280203886419E-10  1.67983165351776E-02
 cg2d: Sum(rhs),rhsMax =   7.41345207444510E-10  1.67979393989026E-02
 cg2d: Sum(rhs),rhsMax =   7.41398928361114E-10  1.67975585538208E-02
 cg2d: Sum(rhs),rhsMax =   7.41461753106520E-10  1.67971740201547E-02
 cg2d: Sum(rhs),rhsMax =   7.41514211144434E-10  1.67967858211500E-02
 cg2d: Sum(rhs),rhsMax =   7.41582364960358E-10  1.67963939785530E-02
 cg2d: Sum(rhs),rhsMax =   7.41632102951861E-10  1.67959985178307E-02
 cg2d: Sum(rhs),rhsMax =   7.41699493489456E-10  1.67955994658753E-02
 cg2d: Sum(rhs),rhsMax =   7.41768146905741E-10  1.67951968459592E-02
 cg2d: Sum(rhs),rhsMax =   7.41815567306681E-10  1.67947906878789E-02
 cg2d: Sum(rhs),rhsMax =   7.41875394449920E-10  1.67943810174815E-02
 cg2d: Sum(rhs),rhsMax =   7.41937455916997E-10  1.67939678633903E-02
 cg2d: Sum(rhs),rhsMax =   7.41997782660597E-10  1.67935512540185E-02
 cg2d: Sum(rhs),rhsMax =   7.42058373082166E-10  1.67931312201299E-02
 cg2d: Sum(rhs),rhsMax =   7.42115674468025E-10  1.67927077893745E-02
 cg2d: Sum(rhs),rhsMax =   7.42191350044941E-10  1.67922809928067E-02
 cg2d: Sum(rhs),rhsMax =   7.42246375473599E-10  1.67918508582178E-02
 cg2d: Sum(rhs),rhsMax =   7.42301511924559E-10  1.67914174180564E-02
 cg2d: Sum(rhs),rhsMax =   7.42353387095385E-10  1.67909807058790E-02
 cg2d: Sum(rhs),rhsMax =   7.42419695165530E-10  1.67905407490764E-02
 cg2d: Sum(rhs),rhsMax =   7.42482797466693E-10  1.67900975701722E-02
 cg2d: Sum(rhs),rhsMax =   7.42528677433185E-10  1.67896512105775E-02
 cg2d: Sum(rhs),rhsMax =   7.42585715141075E-10  1.67892017044241E-02
 cg2d: Sum(rhs),rhsMax =   7.42646402707159E-10  1.67887490798391E-02
 cg2d: Sum(rhs),rhsMax =   7.42714154067237E-10  1.67882933680725E-02
 cg2d: Sum(rhs),rhsMax =   7.42781502971468E-10  1.67878346019073E-02
 cg2d: Sum(rhs),rhsMax =   7.42843772605362E-10  1.67873728149471E-02
 cg2d: Sum(rhs),rhsMax =   7.42908845552392E-10  1.67869080422008E-02
 cg2d: Sum(rhs),rhsMax =   7.42976902223802E-10  1.67864403167254E-02
 cg2d: Sum(rhs),rhsMax =   7.43044251128033E-10  1.67859696736284E-02
 cg2d: Sum(rhs),rhsMax =   7.43100192490687E-10  1.67854961484004E-02
 cg2d: Sum(rhs),rhsMax =   7.43162961724941E-10  1.67850197779947E-02
 cg2d: Sum(rhs),rhsMax =   7.43223010912786E-10  1.67845406003364E-02
 cg2d: Sum(rhs),rhsMax =   7.43291497795617E-10  1.67840586532183E-02
 cg2d: Sum(rhs),rhsMax =   7.43351727394703E-10  1.67835739758752E-02
 cg2d: Sum(rhs),rhsMax =   7.43404879322007E-10  1.67830866110229E-02
 cg2d: Sum(rhs),rhsMax =   7.43469050212830E-10  1.67825965960832E-02
 cg2d: Sum(rhs),rhsMax =   7.43527281410472E-10  1.67821039792102E-02
 cg2d: Sum(rhs),rhsMax =   7.43583750129062E-10  1.67816087997010E-02
 cg2d: Sum(rhs),rhsMax =   7.43627062704810E-10  1.67811111078964E-02
 cg2d: Sum(rhs),rhsMax =   7.43698075345023E-10  1.67806109488862E-02
 cg2d: Sum(rhs),rhsMax =   7.43758443721987E-10  1.67801083737054E-02
 cg2d: Sum(rhs),rhsMax =   7.43817271664504E-10  1.67796034317188E-02
 cg2d: Sum(rhs),rhsMax =   7.43890893328825E-10  1.67790961750222E-02
 cg2d: Sum(rhs),rhsMax =   7.43959741034139E-10  1.67785866611114E-02
 cg2d: Sum(rhs),rhsMax =   7.44018180398598E-10  1.67780749427817E-02
 cg2d: Sum(rhs),rhsMax =   7.44076925074388E-10  1.67775610802295E-02
 cg2d: Sum(rhs),rhsMax =   7.44140166153429E-10  1.67770451341214E-02
 cg2d: Sum(rhs),rhsMax =   7.44210040815041E-10  1.67765271655673E-02
 cg2d: Sum(rhs),rhsMax =   7.44269326724556E-10  1.67760072403062E-02
 cg2d: Sum(rhs),rhsMax =   7.44337813607387E-10  1.67754854224662E-02
 cg2d: Sum(rhs),rhsMax =   7.44414044295816E-10  1.67749617865605E-02
 cg2d: Sum(rhs),rhsMax =   7.44477354763795E-10  1.67744364006810E-02
 cg2d: Sum(rhs),rhsMax =   7.44539388475296E-10  1.67739093427868E-02
 cg2d: Sum(rhs),rhsMax =   7.44598854796052E-10  1.67733806903631E-02
 cg2d: Sum(rhs),rhsMax =   7.44674849562088E-10  1.67728505204564E-02
 cg2d: Sum(rhs),rhsMax =   7.44731581958646E-10  1.67723189168661E-02
 cg2d: Sum(rhs),rhsMax =   7.44791839313308E-10  1.67717859644140E-02
 cg2d: Sum(rhs),rhsMax =   7.44871123115054E-10  1.67712517434557E-02
 cg2d: Sum(rhs),rhsMax =   7.44929312679332E-10  1.67707163450932E-02
 cg2d: Sum(rhs),rhsMax =   7.44997882828891E-10  1.67701798590599E-02
 cg2d: Sum(rhs),rhsMax =   7.45063150064951E-10  1.67696423776039E-02
 cg2d: Sum(rhs),rhsMax =   7.45134343116405E-10  1.67691039904499E-02
 cg2d: Sum(rhs),rhsMax =   7.45202038965331E-10  1.67685647947164E-02
 cg2d: Sum(rhs),rhsMax =   7.45260034240580E-10  1.67680248863127E-02
 cg2d: Sum(rhs),rhsMax =   7.45330464013705E-10  1.67674843598497E-02
 cg2d: Sum(rhs),rhsMax =   7.45392483847418E-10  1.67669433186691E-02
 cg2d: Sum(rhs),rhsMax =   7.45453518358197E-10  1.67664018602762E-02
 cg2d: Sum(rhs),rhsMax =   7.45516828826176E-10  1.67658600885378E-02
 cg2d: Sum(rhs),rhsMax =   7.45592629303182E-10  1.67653181050431E-02
 cg2d: Sum(rhs),rhsMax =   7.45655565070891E-10  1.67647760134147E-02
 cg2d: Sum(rhs),rhsMax =   7.45728395701306E-10  1.67642339192656E-02
 cg2d: Sum(rhs),rhsMax =   7.45788222844546E-10  1.67636919263509E-02
 cg2d: Sum(rhs),rhsMax =   7.45858541595368E-10  1.67631501399402E-02
 cg2d: Sum(rhs),rhsMax =   7.45923919853730E-10  1.67626086674644E-02
 cg2d: Sum(rhs),rhsMax =   7.45992240203108E-10  1.67620676163523E-02
 cg2d: Sum(rhs),rhsMax =   7.46053954725490E-10  1.67615270917110E-02
 cg2d: Sum(rhs),rhsMax =   7.46110728755411E-10  1.67609872010719E-02
 cg2d: Sum(rhs),rhsMax =   7.46161826770120E-10  1.67604480500968E-02
 cg2d: Sum(rhs),rhsMax =   7.46230591208707E-10  1.67599097475350E-02
 cg2d: Sum(rhs),rhsMax =   7.46285935826485E-10  1.67593723979218E-02
 cg2d: Sum(rhs),rhsMax =   7.46349065883223E-10  1.67588361087226E-02
 cg2d: Sum(rhs),rhsMax =   7.46413209018471E-10  1.67583009820183E-02
 cg2d: Sum(rhs),rhsMax =   7.46473452495344E-10  1.67577671266708E-02
 cg2d: Sum(rhs),rhsMax =   7.46547643148965E-10  1.67572346424529E-02
 cg2d: Sum(rhs),rhsMax =   7.46607692336809E-10  1.67567036340958E-02
 cg2d: Sum(rhs),rhsMax =   7.46675554719189E-10  1.67561742026821E-02
 cg2d: Sum(rhs),rhsMax =   7.46739725610013E-10  1.67556464479465E-02
 cg2d: Sum(rhs),rhsMax =   7.46805325912980E-10  1.67551204681875E-02
 cg2d: Sum(rhs),rhsMax =   7.46876865909130E-10  1.67545963621724E-02
 cg2d: Sum(rhs),rhsMax =   7.46930878259278E-10  1.67540742238741E-02
 cg2d: Sum(rhs),rhsMax =   7.47000905576556E-10  1.67535541492592E-02
 cg2d: Sum(rhs),rhsMax =   7.47069156536995E-10  1.67530362272890E-02
 cg2d: Sum(rhs),rhsMax =   7.47139350387727E-10  1.67525205032165E-02
 cg2d: Sum(rhs),rhsMax =   7.47194986439048E-10  1.67520071893087E-02
 cg2d: Sum(rhs),rhsMax =   7.47254341737502E-10  1.67514962817309E-02
 Computing Diagnostic #    26 "THETA   " (list#  1) Parms "SMR     MR      ", Count=     144
 Computing Diagnostic #    27 "SALT    " (list#  1) Parms "SMR     MR      ", Count=     144
 Computing Diagnostic #    30 "UVEL    " (list#  1) Parms "UUR     MR      ", Count=     144
             Vector  Mate for "UVEL    " :  Diagnostic #     31 "VVEL    " exists
 Computing Diagnostic #    32 "WVEL    " (list#  1) Parms "WM      LR      ", Count=     144
 Computing Diagnostic #    31 "VVEL    " (list#  1) Parms "VVR     MR      ", Count=     144
             Vector  Mate for "VVEL    " :  Diagnostic #     30 "UVEL    " exists
 Computing Diagnostic #   197 "BRGfwFlx" (list#  2) Parms "SM      MR      ", Count=     144
 Computing Diagnostic #   198 "BRGhtFlx" (list#  2) Parms "SM      MR      ", Count=     144
 Computing Diagnostic #   199 "BRGmltRt" (list#  2) Parms "SM      MR      ", Count=     144
 Computing Diagnostic #   201 "BRG_TauX" (list#  2) Parms "UU      MR      ", Count=    1728
 Computing Diagnostic #   202 "BRG_TauY" (list#  2) Parms "VV      MR      ", Count=    1728
 Computing Diagnostic #   203 "BRGhFacC" (list#  2) Parms "SM      MR      ", Count=    1728
 cg2d: Sum(rhs),rhsMax =   7.47316902804940E-10  1.67509878516643E-02
 cg2d: Sum(rhs),rhsMax =   7.47375911158699E-10  1.67504820067441E-02
 cg2d: Sum(rhs),rhsMax =   7.47450504268166E-10  1.67499788292330E-02
 cg2d: Sum(rhs),rhsMax =   7.47522016508739E-10  1.67494783943862E-02
 cg2d: Sum(rhs),rhsMax =   7.47597234118658E-10  1.67489807730711E-02
 cg2d: Sum(rhs),rhsMax =   7.47664777311918E-10  1.67484860334957E-02
 cg2d: Sum(rhs),rhsMax =   7.47731057626488E-10  1.67479942457295E-02
 cg2d: Sum(rhs),rhsMax =   7.47801334743947E-10  1.67475054735106E-02
 cg2d: Sum(rhs),rhsMax =   7.47867767714183E-10  1.67470197784100E-02
 cg2d: Sum(rhs),rhsMax =   7.47936254597015E-10  1.67465372204570E-02
 cg2d: Sum(rhs),rhsMax =   7.48004339024000E-10  1.67460578544582E-02
 cg2d: Sum(rhs),rhsMax =   7.48060904887105E-10  1.67455817330992E-02
 cg2d: Sum(rhs),rhsMax =   7.48128739513909E-10  1.67451089054763E-02
 cg2d: Sum(rhs),rhsMax =   7.48193798583152E-10  1.67446394152366E-02
 cg2d: Sum(rhs),rhsMax =   7.48261355654201E-10  1.67441733056956E-02
 cg2d: Sum(rhs),rhsMax =   7.48324360810848E-10  1.67437106138483E-02
 cg2d: Sum(rhs),rhsMax =   7.48376846604337E-10  1.67432513732051E-02
 cg2d: Sum(rhs),rhsMax =   7.48446304932315E-10  1.67427956175146E-02
 cg2d: Sum(rhs),rhsMax =   7.48519038418216E-10  1.67423433727690E-02
 cg2d: Sum(rhs),rhsMax =   7.48589093491070E-10  1.67418946619610E-02
 cg2d: Sum(rhs),rhsMax =   7.48650669235573E-10  1.67414495064144E-02
 cg2d: Sum(rhs),rhsMax =   7.48716089127299E-10  1.67410079206721E-02
 cg2d: Sum(rhs),rhsMax =   7.48783937631892E-10  1.67405699189150E-02
 cg2d: Sum(rhs),rhsMax =   7.48836770370076E-10  1.67401355091265E-02
 cg2d: Sum(rhs),rhsMax =   7.48896542002164E-10  1.67397046966500E-02
 cg2d: Sum(rhs),rhsMax =   7.48962211694071E-10  1.67392774836577E-02
 cg2d: Sum(rhs),rhsMax =   7.49027090352072E-10  1.67388538663714E-02
 cg2d: Sum(rhs),rhsMax =   7.49074122174953E-10  1.67384338416313E-02
 cg2d: Sum(rhs),rhsMax =   7.49136017108576E-10  1.67380173981248E-02
 cg2d: Sum(rhs),rhsMax =   7.49204032146622E-10  1.67376045223110E-02
 cg2d: Sum(rhs),rhsMax =   7.49266496069545E-10  1.67371952000029E-02
 cg2d: Sum(rhs),rhsMax =   7.49329848170888E-10  1.67367894082802E-02
 cg2d: Sum(rhs),rhsMax =   7.49383721743158E-10  1.67363871253656E-02
 cg2d: Sum(rhs),rhsMax =   7.49451389836508E-10  1.67359883240090E-02
 cg2d: Sum(rhs),rhsMax =   7.49519446507918E-10  1.67355929732208E-02
 cg2d: Sum(rhs),rhsMax =   7.49570863711746E-10  1.67352010395923E-02
 cg2d: Sum(rhs),rhsMax =   7.49641820840807E-10  1.67348124860160E-02
 cg2d: Sum(rhs),rhsMax =   7.49705839075965E-10  1.67344272726275E-02
 cg2d: Sum(rhs),rhsMax =   7.49771217334327E-10  1.67340453567350E-02
 cg2d: Sum(rhs),rhsMax =   7.49835027402668E-10  1.67336666913063E-02
 cg2d: Sum(rhs),rhsMax =   7.49885514794713E-10  1.67332912265222E-02
 cg2d: Sum(rhs),rhsMax =   7.49939665922739E-10  1.67329189112398E-02
 cg2d: Sum(rhs),rhsMax =   7.50000381244398E-10  1.67325496902003E-02
 cg2d: Sum(rhs),rhsMax =   7.50072684518877E-10  1.67321835056556E-02
 cg2d: Sum(rhs),rhsMax =   7.50132456150965E-10  1.67318202998468E-02
 cg2d: Sum(rhs),rhsMax =   7.50193282494926E-10  1.67314600068929E-02
 cg2d: Sum(rhs),rhsMax =   7.50251749614961E-10  1.67311025649428E-02
 cg2d: Sum(rhs),rhsMax =   7.50309661623483E-10  1.67307479073453E-02
 cg2d: Sum(rhs),rhsMax =   7.50359024914715E-10  1.67303959632160E-02
 cg2d: Sum(rhs),rhsMax =   7.50408485350462E-10  1.67300466649063E-02
 cg2d: Sum(rhs),rhsMax =   7.50469186794334E-10  1.67296999378889E-02
 cg2d: Sum(rhs),rhsMax =   7.50518827641322E-10  1.67293557110512E-02
 cg2d: Sum(rhs),rhsMax =   7.50584025488443E-10  1.67290139091226E-02
 cg2d: Sum(rhs),rhsMax =   7.50642686897507E-10  1.67286744527483E-02
 cg2d: Sum(rhs),rhsMax =   7.50709786001558E-10  1.67283372677927E-02
 cg2d: Sum(rhs),rhsMax =   7.50761786072474E-10  1.67280022740987E-02
 cg2d: Sum(rhs),rhsMax =   7.50806597449305E-10  1.67276693935932E-02
 cg2d: Sum(rhs),rhsMax =   7.50865439269610E-10  1.67273385463424E-02
 cg2d: Sum(rhs),rhsMax =   7.50901271717730E-10  1.67270096970246E-02
 cg2d: Sum(rhs),rhsMax =   7.50956297146388E-10  1.67266827497122E-02
 cg2d: Sum(rhs),rhsMax =   7.51013903843578E-10  1.67263576339724E-02
 cg2d: Sum(rhs),rhsMax =   7.51063405912689E-10  1.67260342564640E-02
 cg2d: Sum(rhs),rhsMax =   7.51110798558052E-10  1.67257125470922E-02
 cg2d: Sum(rhs),rhsMax =   7.51179812796821E-10  1.67253924103040E-02
 cg2d: Sum(rhs),rhsMax =   7.51241055474416E-10  1.67250737766321E-02
 cg2d: Sum(rhs),rhsMax =   7.51293582901269E-10  1.67247565554892E-02
 cg2d: Sum(rhs),rhsMax =   7.51351592054306E-10  1.67244406777978E-02
 cg2d: Sum(rhs),rhsMax =   7.51404646837095E-10  1.67241260522849E-02
 cg2d: Sum(rhs),rhsMax =   7.51464349080244E-10  1.67238126155494E-02
 cg2d: Sum(rhs),rhsMax =   7.51508855145744E-10  1.67235002763634E-02
 cg2d: Sum(rhs),rhsMax =   7.51571763157877E-10  1.67231889757144E-02
 cg2d: Sum(rhs),rhsMax =   7.51616449634618E-10  1.67229560984110E-02
 cg2d: Sum(rhs),rhsMax =   7.51673306931266E-10  1.67227450817604E-02
 cg2d: Sum(rhs),rhsMax =   7.51717368907556E-10  1.67225339901363E-02
 cg2d: Sum(rhs),rhsMax =   7.51767578743845E-10  1.67223228436180E-02
 cg2d: Sum(rhs),rhsMax =   7.51829126732773E-10  1.67221113750339E-02
 cg2d: Sum(rhs),rhsMax =   7.51880752103418E-10  1.67218993466974E-02
 cg2d: Sum(rhs),rhsMax =   7.51939871479479E-10  1.67216865395099E-02
 cg2d: Sum(rhs),rhsMax =   7.51986362068635E-10  1.67214727696767E-02
 cg2d: Sum(rhs),rhsMax =   7.52029299944112E-10  1.67212578250365E-02
 cg2d: Sum(rhs),rhsMax =   7.52086670718910E-10  1.67210415267041E-02
 cg2d: Sum(rhs),rhsMax =   7.52133452741610E-10  1.67208236745323E-02
 cg2d: Sum(rhs),rhsMax =   7.52187673258575E-10  1.67206041020767E-02
 cg2d: Sum(rhs),rhsMax =   7.52244155854953E-10  1.67203826199297E-02
 cg2d: Sum(rhs),rhsMax =   7.52284581850837E-10  1.67201590756471E-02
 cg2d: Sum(rhs),rhsMax =   7.52342688148389E-10  1.67199332967440E-02
 cg2d: Sum(rhs),rhsMax =   7.52396367431629E-10  1.67197051409922E-02
 cg2d: Sum(rhs),rhsMax =   7.52454057395546E-10  1.67194744504801E-02
 cg2d: Sum(rhs),rhsMax =   7.52498174882987E-10  1.67192411028627E-02
 cg2d: Sum(rhs),rhsMax =   7.52547246740676E-10  1.67190049503405E-02
 cg2d: Sum(rhs),rhsMax =   7.52598372510960E-10  1.67187658782707E-02
 cg2d: Sum(rhs),rhsMax =   7.52663209535598E-10  1.67185236719243E-02
 cg2d: Sum(rhs),rhsMax =   7.52705009432475E-10  1.67182782691181E-02
 cg2d: Sum(rhs),rhsMax =   7.52742174148224E-10  1.67180295244692E-02
 cg2d: Sum(rhs),rhsMax =   7.52791287639276E-10  1.67177771986072E-02
 cg2d: Sum(rhs),rhsMax =   7.52846701645993E-10  1.67175211671605E-02
 cg2d: Sum(rhs),rhsMax =   7.52905848777630E-10  1.67172613473722E-02
 cg2d: Sum(rhs),rhsMax =   7.52960027661231E-10  1.67169976082496E-02
 cg2d: Sum(rhs),rhsMax =   7.53013373877565E-10  1.67167298577787E-02
 cg2d: Sum(rhs),rhsMax =   7.53078044368749E-10  1.67164552955064E-02
 cg2d: Sum(rhs),rhsMax =   7.53134152264856E-10  1.67161708206719E-02
 cg2d: Sum(rhs),rhsMax =   7.53190565472295E-10  1.67158761709580E-02
 cg2d: Sum(rhs),rhsMax =   7.53240109174769E-10  1.67155702317101E-02
 cg2d: Sum(rhs),rhsMax =   7.53299908562433E-10  1.67152515780775E-02
 cg2d: Sum(rhs),rhsMax =   7.53361623084814E-10  1.67149201612994E-02
 cg2d: Sum(rhs),rhsMax =   7.53425724586698E-10  1.67145759570734E-02
 cg2d: Sum(rhs),rhsMax =   7.53475185022445E-10  1.67142190113784E-02
 cg2d: Sum(rhs),rhsMax =   7.53538717535029E-10  1.67138493984430E-02
 cg2d: Sum(rhs),rhsMax =   7.53594242564048E-10  1.67134672723754E-02
 cg2d: Sum(rhs),rhsMax =   7.53651391294241E-10  1.67130728081474E-02
 cg2d: Sum(rhs),rhsMax =   7.53704335054728E-10  1.67126662548486E-02
 cg2d: Sum(rhs),rhsMax =   7.53781009832366E-10  1.67122478790773E-02
 cg2d: Sum(rhs),rhsMax =   7.53845291745492E-10  1.67118180219456E-02
 cg2d: Sum(rhs),rhsMax =   7.53892559490765E-10  1.67113770376499E-02
 cg2d: Sum(rhs),rhsMax =   7.53949236376172E-10  1.67109253454408E-02
 cg2d: Sum(rhs),rhsMax =   7.54003443015350E-10  1.67104633766876E-02
 cg2d: Sum(rhs),rhsMax =   7.54079645948202E-10  1.67099916262551E-02
 cg2d: Sum(rhs),rhsMax =   7.54135795477673E-10  1.67095105891096E-02
 cg2d: Sum(rhs),rhsMax =   7.54188253515586E-10  1.67090208224422E-02
 cg2d: Sum(rhs),rhsMax =   7.54242640566005E-10  1.67085228799537E-02
 cg2d: Sum(rhs),rhsMax =   7.54314680162516E-10  1.67080173679859E-02
 cg2d: Sum(rhs),rhsMax =   7.54379045342368E-10  1.67075048850736E-02
 cg2d: Sum(rhs),rhsMax =   7.54447906925471E-10  1.67069860762641E-02
 cg2d: Sum(rhs),rhsMax =   7.54511758627174E-10  1.67064615752193E-02
 cg2d: Sum(rhs),rhsMax =   7.54582923923053E-10  1.67059320539397E-02
 cg2d: Sum(rhs),rhsMax =   7.54639864486428E-10  1.67053981663824E-02
 cg2d: Sum(rhs),rhsMax =   7.54705256622579E-10  1.67048605995107E-02
 cg2d: Sum(rhs),rhsMax =   7.54757825682795E-10  1.67043200169096E-02
 cg2d: Sum(rhs),rhsMax =   7.54830628557634E-10  1.67037771091269E-02
 cg2d: Sum(rhs),rhsMax =   7.54918696999063E-10  1.67032325363384E-02
 cg2d: Sum(rhs),rhsMax =   7.54997273033631E-10  1.67026869809432E-02
 cg2d: Sum(rhs),rhsMax =   7.55052909084952E-10  1.67021410896959E-02
 cg2d: Sum(rhs),rhsMax =   7.55115900363812E-10  1.67015955250579E-02
 cg2d: Sum(rhs),rhsMax =   7.55186038703393E-10  1.67010509094095E-02
 cg2d: Sum(rhs),rhsMax =   7.55243659278371E-10  1.67005078757691E-02
 cg2d: Sum(rhs),rhsMax =   7.55317877687567E-10  1.66999670105469E-02
 cg2d: Sum(rhs),rhsMax =   7.55390486273377E-10  1.66994289108706E-02
 cg2d: Sum(rhs),rhsMax =   7.55455600853772E-10  1.66988941170151E-02
 cg2d: Sum(rhs),rhsMax =   7.55532109097956E-10  1.66983631807104E-02
 cg2d: Sum(rhs),rhsMax =   7.55594822821060E-10  1.66978365933752E-02
 cg2d: Sum(rhs),rhsMax =   7.55648349448634E-10  1.66973148477897E-02
 cg2d: Sum(rhs),rhsMax =   7.55716850209254E-10  1.66967983826304E-02
 cg2d: Sum(rhs),rhsMax =   7.55775483862742E-10  1.66962876303210E-02
 cg2d: Sum(rhs),rhsMax =   7.55838724941782E-10  1.66957829640084E-02
(PID.TID 0000.0001)      cg2d_init_res =   1.01339355192321E-04
(PID.TID 0000.0001)      cg2d_iters(min,last) =      -1      39
(PID.TID 0000.0001)      cg2d_last_res =   6.54262031332553E-14
(PID.TID 0000.0001) // =======================================================
(PID.TID 0000.0001) // Begin MONITOR dynamic field statistics
(PID.TID 0000.0001) // =======================================================
(PID.TID 0000.0001) %MON time_tsnumber                =                 18144
(PID.TID 0000.0001) %MON time_secondsf                =   4.5360000000000E+05
(PID.TID 0000.0001) %MON dynstat_eta_max              =   5.1597705203789E-03
(PID.TID 0000.0001) %MON dynstat_eta_min              =  -2.5529264593910E-03
(PID.TID 0000.0001) %MON dynstat_eta_mean             =  -8.4509933058370E-14
(PID.TID 0000.0001) %MON dynstat_eta_sd               =   2.6170653081100E-03
(PID.TID 0000.0001) %MON dynstat_eta_del2             =   2.1765817520243E-05
(PID.TID 0000.0001) %MON dynstat_uvel_max             =   4.5680634776559E-02
(PID.TID 0000.0001) %MON dynstat_uvel_min             =  -4.0807876044587E-02
(PID.TID 0000.0001) %MON dynstat_uvel_mean            =   7.1162508907694E-09
(PID.TID 0000.0001) %MON dynstat_uvel_sd              =   6.4055057938459E-03
(PID.TID 0000.0001) %MON dynstat_uvel_del2            =   1.0218124010113E-04
(PID.TID 0000.0001) %MON dynstat_vvel_max             =   2.2845656560470E-02
(PID.TID 0000.0001) %MON dynstat_vvel_min             =  -3.2169158868522E-02
(PID.TID 0000.0001) %MON dynstat_vvel_mean            =  -8.0919745064623E-03
(PID.TID 0000.0001) %MON dynstat_vvel_sd              =   1.1496335599622E-02
(PID.TID 0000.0001) %MON dynstat_vvel_del2            =   9.1570865651328E-05
(PID.TID 0000.0001) %MON dynstat_wvel_max             =   1.4154311053239E-03
(PID.TID 0000.0001) %MON dynstat_wvel_min             =  -1.0813778435475E-03
(PID.TID 0000.0001) %MON dynstat_wvel_mean            =   3.1992477823540E-21
(PID.TID 0000.0001) %MON dynstat_wvel_sd              =   1.2542935853545E-04
(PID.TID 0000.0001) %MON dynstat_wvel_del2            =   6.3297986266240E-06
(PID.TID 0000.0001) %MON dynstat_theta_max            =   2.6931451612903E+00
(PID.TID 0000.0001) %MON dynstat_theta_min            =  -5.7241966940068E-01
(PID.TID 0000.0001) %MON dynstat_theta_mean           =   2.2247446700944E+00
(PID.TID 0000.0001) %MON dynstat_theta_sd             =   5.1572522192772E-01
(PID.TID 0000.0001) %MON dynstat_theta_del2           =   1.5796642959283E-03
(PID.TID 0000.0001) %MON dynstat_salt_max             =   3.4699999999999E+01
(PID.TID 0000.0001) %MON dynstat_salt_min             =   3.3024478236169E+01
(PID.TID 0000.0001) %MON dynstat_salt_mean            =   3.4364147430256E+01
(PID.TID 0000.0001) %MON dynstat_salt_sd              =   3.2243080830285E-01
(PID.TID 0000.0001) %MON dynstat_salt_del2            =   1.9639177397864E-04
(PID.TID 0000.0001) %MON advcfl_uvel_max              =   2.2840317388279E-03
(PID.TID 0000.0001) %MON advcfl_vvel_max              =   1.6084579434261E-03
(PID.TID 0000.0001) %MON advcfl_wvel_max              =   6.6145438183976E-04
(PID.TID 0000.0001) %MON advcfl_W_hf_max              =   1.3972443025634E-03
(PID.TID 0000.0001) %MON pe_b_mean                    =   5.7144415292304E-08
(PID.TID 0000.0001) %MON ke_max                       =   9.7003557088252E-04
(PID.TID 0000.0001) %MON ke_mean                      =   1.0937726492460E-04
(PID.TID 0000.0001) %MON ke_vol                       =   3.2921708585402E+10
(PID.TID 0000.0001) // =======================================================
(PID.TID 0000.0001) // End MONITOR dynamic field statistics
(PID.TID 0000.0001) // =======================================================
(PID.TID 0000.0001) // =======================================================
(PID.TID 0000.0001) // Begin OBCS MONITOR field statistics
(PID.TID 0000.0001) // =======================================================
(PID.TID 0000.0001) %MON obc_E_uVel_max               =   0.0000000000000E+00
(PID.TID 0000.0001) %MON obc_E_uVel_min               =   0.0000000000000E+00
(PID.TID 0000.0001) %MON obc_E_uVel_mean              =   0.0000000000000E+00
(PID.TID 0000.0001) %MON obc_E_uVel_sd                =   0.0000000000000E+00
(PID.TID 0000.0001) %MON obc_E_uVel_Int               =   0.0000000000000E+00
(PID.TID 0000.0001) %MON obc_N_vVel_max               =  -3.6115799844846E-05
(PID.TID 0000.0001) %MON obc_N_vVel_min               =  -3.0000000000000E-02
(PID.TID 0000.0001) %MON obc_N_vVel_mean              =  -1.3225455303334E-02
(PID.TID 0000.0001) %MON obc_N_vVel_sd                =   1.1350864292742E-02
(PID.TID 0000.0001) %MON obc_N_vVel_Int               =  -5.9514548865004E+04
(PID.TID 0000.0001) %MON obc_S_vVel_max               =  -3.6115799844846E-05
(PID.TID 0000.0001) %MON obc_S_vVel_min               =  -3.0000000000000E-02
(PID.TID 0000.0001) %MON obc_S_vVel_mean              =  -1.3225455303334E-02
(PID.TID 0000.0001) %MON obc_S_vVel_sd                =   1.1350864292742E-02
(PID.TID 0000.0001) %MON obc_S_vVel_Int               =  -5.9514548865004E+04
(PID.TID 0000.0001) // =======================================================
(PID.TID 0000.0001) // End OBCS MONITOR field statistics
(PID.TID 0000.0001) // =======================================================
 Computing Diagnostic #    26 "THETA   " (list#  1) Parms "SMR     MR      ", Count=     144
 Computing Diagnostic #    27 "SALT    " (list#  1) Parms "SMR     MR      ", Count=     144
 Computing Diagnostic #    30 "UVEL    " (list#  1) Parms "UUR     MR      ", Count=     144
             Vector  Mate for "UVEL    " :  Diagnostic #     31 "VVEL    " exists
 Computing Diagnostic #    32 "WVEL    " (list#  1) Parms "WM      LR      ", Count=     144
 Computing Diagnostic #    31 "VVEL    " (list#  1) Parms "VVR     MR      ", Count=     144
             Vector  Mate for "VVEL    " :  Diagnostic #     30 "UVEL    " exists
 Computing Diagnostic #   197 "BRGfwFlx" (list#  2) Parms "SM      MR      ", Count=     144
 Computing Diagnostic #   198 "BRGhtFlx" (list#  2) Parms "SM      MR      ", Count=     144
 Computing Diagnostic #   199 "BRGmltRt" (list#  2) Parms "SM      MR      ", Count=     144
 Computing Diagnostic #   201 "BRG_TauX" (list#  2) Parms "UU      MR      ", Count=    1728
 Computing Diagnostic #   202 "BRG_TauY" (list#  2) Parms "VV      MR      ", Count=    1728
 Computing Diagnostic #   203 "BRGhFacC" (list#  2) Parms "SM      MR      ", Count=    1728
 cg2d: Sum(rhs),rhsMax =   7.55916065853235E-10  1.66952847536388E-02
 cg2d: Sum(rhs),rhsMax =   7.55973117438913E-10  1.66947933019640E-02
 cg2d: Sum(rhs),rhsMax =   7.56037871196824E-10  1.66943089361381E-02
 cg2d: Sum(rhs),rhsMax =   7.56092910503270E-10  1.66938318713104E-02
 cg2d: Sum(rhs),rhsMax =   7.56147575109445E-10  1.66933623487613E-02
 cg2d: Sum(rhs),rhsMax =   7.56205667529208E-10  1.66929005426111E-02
 cg2d: Sum(rhs),rhsMax =   7.56275597701972E-10  1.66924466196221E-02
 cg2d: Sum(rhs),rhsMax =   7.56326751227832E-10  1.66920006831452E-02
 cg2d: Sum(rhs),rhsMax =   7.56381735023126E-10  1.66915627088492E-02
 cg2d: Sum(rhs),rhsMax =   7.56449944350202E-10  1.66911327629058E-02
 cg2d: Sum(rhs),rhsMax =   7.56506718380123E-10  1.66907107446670E-02
 cg2d: Sum(rhs),rhsMax =   7.56559745407337E-10  1.66902965807000E-02
 cg2d: Sum(rhs),rhsMax =   7.56634976895043E-10  1.66898901921673E-02
 cg2d: Sum(rhs),rhsMax =   7.56705587079409E-10  1.66894914530612E-02
 cg2d: Sum(rhs),rhsMax =   7.56773657628607E-10  1.66891002397453E-02
 cg2d: Sum(rhs),rhsMax =   7.56843754334824E-10  1.66887163823946E-02
 cg2d: Sum(rhs),rhsMax =   7.56904636189937E-10  1.66883396916874E-02
 cg2d: Sum(rhs),rhsMax =   7.56952195368754E-10  1.66879699617946E-02
 cg2d: Sum(rhs),rhsMax =   7.57012341701113E-10  1.66876069703413E-02
 cg2d: Sum(rhs),rhsMax =   7.57077539548234E-10  1.66872504839209E-02
 cg2d: Sum(rhs),rhsMax =   7.57134396844883E-10  1.66869002577344E-02
 cg2d: Sum(rhs),rhsMax =   7.57181928268125E-10  1.66865560369925E-02
 cg2d: Sum(rhs),rhsMax =   7.57245280369467E-10  1.66862175622522E-02
 cg2d: Sum(rhs),rhsMax =   7.57310270049771E-10  1.66858845672228E-02
 cg2d: Sum(rhs),rhsMax =   7.57376078519556E-10  1.66855567824553E-02
 cg2d: Sum(rhs),rhsMax =   7.57423596065010E-10  1.66852339419875E-02
 cg2d: Sum(rhs),rhsMax =   7.57473639367845E-10  1.66849157747831E-02
 cg2d: Sum(rhs),rhsMax =   7.57523752059619E-10  1.66846020176782E-02
 cg2d: Sum(rhs),rhsMax =   7.57568771603268E-10  1.66842924100235E-02
 cg2d: Sum(rhs),rhsMax =   7.57627627301360E-10  1.66839866994896E-02
 cg2d: Sum(rhs),rhsMax =   7.57688634056564E-10  1.66836846391211E-02
 cg2d: Sum(rhs),rhsMax =   7.57752208202511E-10  1.66833859923358E-02
 cg2d: Sum(rhs),rhsMax =   7.57821180807916E-10  1.66830905361589E-02
 cg2d: Sum(rhs),rhsMax =   7.57870183276665E-10  1.66827980564921E-02
 cg2d: Sum(rhs),rhsMax =   7.57929163874849E-10  1.66825083543657E-02
 cg2d: Sum(rhs),rhsMax =   7.57983037447119E-10  1.66822212433461E-02
 cg2d: Sum(rhs),rhsMax =   7.58046223015008E-10  1.66819365528561E-02
 cg2d: Sum(rhs),rhsMax =   7.58114196419690E-10  1.66816541291492E-02
 cg2d: Sum(rhs),rhsMax =   7.58169929615526E-10  1.66813738320945E-02
 cg2d: Sum(rhs),rhsMax =   7.58218723917459E-10  1.66810955403245E-02
 cg2d: Sum(rhs),rhsMax =   7.58280521706567E-10  1.66808191494639E-02
 cg2d: Sum(rhs),rhsMax =   7.58340529261048E-10  1.66805445711643E-02
 cg2d: Sum(rhs),rhsMax =   7.58391127675395E-10  1.66802717349927E-02
 cg2d: Sum(rhs),rhsMax =   7.58445833914934E-10  1.66800005861054E-02
 cg2d: Sum(rhs),rhsMax =   7.58502857745036E-10  1.66797310876731E-02
 cg2d: Sum(rhs),rhsMax =   7.58546780943448E-10  1.66794632209690E-02
 cg2d: Sum(rhs),rhsMax =   7.58588095117751E-10  1.66791969789431E-02
 cg2d: Sum(rhs),rhsMax =   7.58648852072774E-10  1.66789323726576E-02
 cg2d: Sum(rhs),rhsMax =   7.58709053916284E-10  1.66786694283054E-02
 cg2d: Sum(rhs),rhsMax =   7.58759929886388E-10  1.66784081821301E-02
 cg2d: Sum(rhs),rhsMax =   7.58812568335543E-10  1.66781486889701E-02
 cg2d: Sum(rhs),rhsMax =   7.58870008499279E-10  1.66778910101512E-02
 cg2d: Sum(rhs),rhsMax =   7.58925269850330E-10  1.66776352196623E-02
 cg2d: Sum(rhs),rhsMax =   7.58973273118357E-10  1.66773814032220E-02
 cg2d: Sum(rhs),rhsMax =   7.59031351660333E-10  1.66771296502680E-02
 cg2d: Sum(rhs),rhsMax =   7.59090373891880E-10  1.66768800615866E-02
 cg2d: Sum(rhs),rhsMax =   7.59148854889702E-10  1.66766327415751E-02
 cg2d: Sum(rhs),rhsMax =   7.59203158673394E-10  1.66763877992403E-02
 cg2d: Sum(rhs),rhsMax =   7.59248858228645E-10  1.66761453455445E-02
 cg2d: Sum(rhs),rhsMax =   7.59295487595679E-10  1.66759054947716E-02
 cg2d: Sum(rhs),rhsMax =   7.59331542088404E-10  1.66756683623439E-02
 cg2d: Sum(rhs),rhsMax =   7.59380947013000E-10  1.66754340626585E-02
 cg2d: Sum(rhs),rhsMax =   7.59427576380034E-10  1.66752027049357E-02
 cg2d: Sum(rhs),rhsMax =   7.59480034417948E-10  1.66749743958311E-02
 cg2d: Sum(rhs),rhsMax =   7.59543733463985E-10  1.66747492373433E-02
 cg2d: Sum(rhs),rhsMax =   7.59599882993456E-10  1.66745273235104E-02
 cg2d: Sum(rhs),rhsMax =   7.59638310587896E-10  1.66743087450489E-02
 cg2d: Sum(rhs),rhsMax =   7.59681539896917E-10  1.66740935790836E-02
 cg2d: Sum(rhs),rhsMax =   7.59735899191760E-10  1.66738818959916E-02
 cg2d: Sum(rhs),rhsMax =   7.59775548031527E-10  1.66736737531371E-02
 cg2d: Sum(rhs),rhsMax =   7.59823995388764E-10  1.66734692012708E-02
 cg2d: Sum(rhs),rhsMax =   7.59868820643383E-10  1.66732682725887E-02
 cg2d: Sum(rhs),rhsMax =   7.59919432935519E-10  1.66730709892117E-02
 cg2d: Sum(rhs),rhsMax =   7.59970045227654E-10  1.66728773588011E-02
 cg2d: Sum(rhs),rhsMax =   7.60020171797215E-10  1.66726873761801E-02
 cg2d: Sum(rhs),rhsMax =   7.60064303162444E-10  1.66725010200922E-02
 cg2d: Sum(rhs),rhsMax =   7.60107587982617E-10  1.66723182557617E-02
 cg2d: Sum(rhs),rhsMax =   7.60162308099943E-10  1.66721390309837E-02
 cg2d: Sum(rhs),rhsMax =   7.60201984695286E-10  1.66719632803095E-02
 cg2d: Sum(rhs),rhsMax =   7.60243645814285E-10  1.66717909227386E-02
 cg2d: Sum(rhs),rhsMax =   7.60295326696081E-10  1.66716218626579E-02
 cg2d: Sum(rhs),rhsMax =   7.60343954464560E-10  1.66714559905825E-02
 cg2d: Sum(rhs),rhsMax =   7.60409388234073E-10  1.66712931812722E-02
 cg2d: Sum(rhs),rhsMax =   7.60446650094337E-10  1.66711332964211E-02
 cg2d: Sum(rhs),rhsMax =   7.60513665931661E-10  1.66709761843897E-02
 cg2d: Sum(rhs),rhsMax =   7.60558435675129E-10  1.66708216815490E-02
 cg2d: Sum(rhs),rhsMax =   7.60609145111779E-10  1.66706696137919E-02
 cg2d: Sum(rhs),rhsMax =   7.60649890296783E-10  1.66705197939740E-02
 cg2d: Sum(rhs),rhsMax =   7.60691801215962E-10  1.66703720261810E-02
 cg2d: Sum(rhs),rhsMax =   7.60745633154869E-10  1.66702261076351E-02
 cg2d: Sum(rhs),rhsMax =   7.60786128539692E-10  1.66700818264992E-02
 cg2d: Sum(rhs),rhsMax =   7.60848564707040E-10  1.66699389664494E-02
 cg2d: Sum(rhs),rhsMax =   7.60893847928656E-10  1.66697973026903E-02
 cg2d: Sum(rhs),rhsMax =   7.60950386036185E-10  1.66696566127924E-02
 cg2d: Sum(rhs),rhsMax =   7.61000165661052E-10  1.66695166681641E-02
 cg2d: Sum(rhs),rhsMax =   7.61038315699736E-10  1.66693772401448E-02
 cg2d: Sum(rhs),rhsMax =   7.61091828449523E-10  1.66692381022207E-02
 cg2d: Sum(rhs),rhsMax =   7.61135085514120E-10  1.66690990285052E-02
 cg2d: Sum(rhs),rhsMax =   7.61177981756234E-10  1.66689597980940E-02
 cg2d: Sum(rhs),rhsMax =   7.61217380795820E-10  1.66688201953326E-02
 cg2d: Sum(rhs),rhsMax =   7.61263371784615E-10  1.66686800097823E-02
 cg2d: Sum(rhs),rhsMax =   7.61319646214176E-10  1.66685390413887E-02
 cg2d: Sum(rhs),rhsMax =   7.61374602253895E-10  1.66683970978556E-02
 cg2d: Sum(rhs),rhsMax =   7.61423077366707E-10  1.66682539994355E-02
 cg2d: Sum(rhs),rhsMax =   7.61464238885345E-10  1.66681095770646E-02
 cg2d: Sum(rhs),rhsMax =   7.61503846091749E-10  1.66679637050650E-02
 cg2d: Sum(rhs),rhsMax =   7.61540552840501E-10  1.66678162365492E-02
 cg2d: Sum(rhs),rhsMax =   7.61597923615298E-10  1.66676670789128E-02
 cg2d: Sum(rhs),rhsMax =   7.61652893532805E-10  1.66675161362863E-02
 cg2d: Sum(rhs),rhsMax =   7.61712623531530E-10  1.66673633322082E-02
 cg2d: Sum(rhs),rhsMax =   7.61755700184885E-10  1.66672086086344E-02
 cg2d: Sum(rhs),rhsMax =   7.61799873183477E-10  1.66670519241460E-02
 cg2d: Sum(rhs),rhsMax =   7.61844226593311E-10  1.66668932594638E-02
 cg2d: Sum(rhs),rhsMax =   7.61890162070955E-10  1.66667326115611E-02
 cg2d: Sum(rhs),rhsMax =   7.61937124504897E-10  1.66665699997456E-02
 cg2d: Sum(rhs),rhsMax =   7.61995008757843E-10  1.66664054587782E-02
 cg2d: Sum(rhs),rhsMax =   7.62034241263976E-10  1.66662390459868E-02
 cg2d: Sum(rhs),rhsMax =   7.62093749218096E-10  1.66660708418209E-02
 cg2d: Sum(rhs),rhsMax =   7.62134300114070E-10  1.66659009400834E-02
 cg2d: Sum(rhs),rhsMax =   7.62169466428375E-10  1.66657294605362E-02
 cg2d: Sum(rhs),rhsMax =   7.62231736062269E-10  1.66655565443099E-02
 cg2d: Sum(rhs),rhsMax =   7.62278615229484E-10  1.66653823545805E-02
 cg2d: Sum(rhs),rhsMax =   7.62331295312002E-10  1.66652070351792E-02
 cg2d: Sum(rhs),rhsMax =   7.62378410401610E-10  1.66650307886574E-02
 cg2d: Sum(rhs),rhsMax =   7.62431756617943E-10  1.66648538306412E-02
 cg2d: Sum(rhs),rhsMax =   7.62473986726242E-10  1.66646763830857E-02
 cg2d: Sum(rhs),rhsMax =   7.62523474917565E-10  1.66644986856900E-02
 cg2d: Sum(rhs),rhsMax =   7.62563928669024E-10  1.66643209889499E-02
 cg2d: Sum(rhs),rhsMax =   7.62618759808653E-10  1.66641435621016E-02
 cg2d: Sum(rhs),rhsMax =   7.62673174614648E-10  1.66639666803551E-02
 cg2d: Sum(rhs),rhsMax =   7.62721150127099E-10  1.66637906331851E-02
 cg2d: Sum(rhs),rhsMax =   7.62786056540676E-10  1.66636157166952E-02
 cg2d: Sum(rhs),rhsMax =   7.62834351242248E-10  1.66634422320598E-02
 cg2d: Sum(rhs),rhsMax =   7.62896981698624E-10  1.66632704871807E-02
 cg2d: Sum(rhs),rhsMax =   7.62940349785524E-10  1.66631007956706E-02
 cg2d: Sum(rhs),rhsMax =   7.62986479552197E-10  1.66629334710339E-02
 cg2d: Sum(rhs),rhsMax =   7.63033775053046E-10  1.66627688422350E-02
 cg2d: Sum(rhs),rhsMax =   7.63080432175656E-10  1.66626071824644E-02
 cg2d: Sum(rhs),rhsMax =   7.63128824021742E-10  1.66624488382052E-02
 cg2d: Sum(rhs),rhsMax =   7.63183405361190E-10  1.66622941156170E-02
 cg2d: Sum(rhs),rhsMax =   7.63247284818469E-10  1.66621433077048E-02
 cg2d: Sum(rhs),rhsMax =   7.63300658790378E-10  1.66619967058421E-02
 cg2d: Sum(rhs),rhsMax =   7.63334215281297E-10  1.66618545929536E-02
 cg2d: Sum(rhs),rhsMax =   7.63391516667156E-10  1.66617172395909E-02
 Computing Diagnostic #    26 "THETA   " (list#  1) Parms "SMR     MR      ", Count=     144
 Computing Diagnostic #    27 "SALT    " (list#  1) Parms "SMR     MR      ", Count=     144
 Computing Diagnostic #    30 "UVEL    " (list#  1) Parms "UUR     MR      ", Count=     144
             Vector  Mate for "UVEL    " :  Diagnostic #     31 "VVEL    " exists
 Computing Diagnostic #    32 "WVEL    " (list#  1) Parms "WM      LR      ", Count=     144
 Computing Diagnostic #    31 "VVEL    " (list#  1) Parms "VVR     MR      ", Count=     144
             Vector  Mate for "VVEL    " :  Diagnostic #     30 "UVEL    " exists
 Computing Diagnostic #   197 "BRGfwFlx" (list#  2) Parms "SM      MR      ", Count=     144
 Computing Diagnostic #   198 "BRGhtFlx" (list#  2) Parms "SM      MR      ", Count=     144
 Computing Diagnostic #   199 "BRGmltRt" (list#  2) Parms "SM      MR      ", Count=     144
 Computing Diagnostic #   201 "BRG_TauX" (list#  2) Parms "UU      MR      ", Count=    1728
 Computing Diagnostic #   202 "BRG_TauY" (list#  2) Parms "VV      MR      ", Count=    1728
 Computing Diagnostic #   203 "BRGhFacC" (list#  2) Parms "SM      MR      ", Count=    1728
 cg2d: Sum(rhs),rhsMax =   7.63438104400826E-10  1.66615849037048E-02
 cg2d: Sum(rhs),rhsMax =   7.63477295273596E-10  1.66614578256585E-02
 cg2d: Sum(rhs),rhsMax =   7.63526714075979E-10  1.66613362328353E-02
 cg2d: Sum(rhs),rhsMax =   7.63572968742743E-10  1.66612203298283E-02
 cg2d: Sum(rhs),rhsMax =   7.63628341116096E-10  1.66611103054706E-02
 cg2d: Sum(rhs),rhsMax =   7.63672972081686E-10  1.66610063251603E-02
 cg2d: Sum(rhs),rhsMax =   7.63717394880459E-10  1.66609085338592E-02
 cg2d: Sum(rhs),rhsMax =   7.63772711742661E-10  1.66608170508786E-02
 cg2d: Sum(rhs),rhsMax =   7.63815843907167E-10  1.66607319742491E-02
 cg2d: Sum(rhs),rhsMax =   7.63865318220702E-10  1.66606533757479E-02
 cg2d: Sum(rhs),rhsMax =   7.63914917434327E-10  1.66605812992600E-02
 cg2d: Sum(rhs),rhsMax =   7.63949889459603E-10  1.66605157639339E-02
 cg2d: Sum(rhs),rhsMax =   7.63988705632102E-10  1.66604567574330E-02
 cg2d: Sum(rhs),rhsMax =   7.64040136713717E-10  1.66604042456454E-02
 cg2d: Sum(rhs),rhsMax =   7.64083338267163E-10  1.66603581618574E-02
 cg2d: Sum(rhs),rhsMax =   7.64122431995418E-10  1.66603184117505E-02
 cg2d: Sum(rhs),rhsMax =   7.64169866274145E-10  1.66602848734281E-02
 cg2d: Sum(rhs),rhsMax =   7.64220298155038E-10  1.66602573953002E-02
 cg2d: Sum(rhs),rhsMax =   7.64265095654082E-10  1.66602357981480E-02
 cg2d: Sum(rhs),rhsMax =   7.64311558487663E-10  1.66602198743404E-02
 cg2d: Sum(rhs),rhsMax =   7.64357313554065E-10  1.66602093902598E-02
 cg2d: Sum(rhs),rhsMax =   7.64401861252928E-10  1.66602040855925E-02
 cg2d: Sum(rhs),rhsMax =   7.64450169832287E-10  1.66602036723232E-02
 cg2d: Sum(rhs),rhsMax =   7.64502142147627E-10  1.66602078386188E-02
 cg2d: Sum(rhs),rhsMax =   7.64546523313037E-10  1.66602162482877E-02
 cg2d: Sum(rhs),rhsMax =   7.64587573809372E-10  1.66602285419155E-02
 cg2d: Sum(rhs),rhsMax =   7.64636340355729E-10  1.66602443408478E-02
 cg2d: Sum(rhs),rhsMax =   7.64684274234817E-10  1.66602632440955E-02
 cg2d: Sum(rhs),rhsMax =   7.64728017021987E-10  1.66602848312279E-02
 cg2d: Sum(rhs),rhsMax =   7.64765362148978E-10  1.66603086669556E-02
 cg2d: Sum(rhs),rhsMax =   7.64801666441883E-10  1.66603342995115E-02
 cg2d: Sum(rhs),rhsMax =   7.64846658229956E-10  1.66603612636569E-02
 cg2d: Sum(rhs),rhsMax =   7.64876689762772E-10  1.66603890807232E-02
 cg2d: Sum(rhs),rhsMax =   7.64920154994186E-10  1.66604172623272E-02
 cg2d: Sum(rhs),rhsMax =   7.64941596176349E-10  1.66604453145690E-02
 cg2d: Sum(rhs),rhsMax =   7.64989543933225E-10  1.66604727357599E-02
 cg2d: Sum(rhs),rhsMax =   7.65030552796198E-10  1.66604990192567E-02
 cg2d: Sum(rhs),rhsMax =   7.65063803975785E-10  1.66605236576352E-02
 cg2d: Sum(rhs),rhsMax =   7.65106158984175E-10  1.66605461422640E-02
 cg2d: Sum(rhs),rhsMax =   7.65148139292293E-10  1.66605659677600E-02
 cg2d: Sum(rhs),rhsMax =   7.65188953866236E-10  1.66605826319507E-02
 cg2d: Sum(rhs),rhsMax =   7.65222080145733E-10  1.66605956391089E-02
 cg2d: Sum(rhs),rhsMax =   7.65262950230827E-10  1.66606045020966E-02
 cg2d: Sum(rhs),rhsMax =   7.65311591877094E-10  1.66606087436498E-02
 cg2d: Sum(rhs),rhsMax =   7.65346674924672E-10  1.66606078970913E-02
 cg2d: Sum(rhs),rhsMax =   7.65392887958072E-10  1.66606015130878E-02
 cg2d: Sum(rhs),rhsMax =   7.65436034000366E-10  1.66605891546852E-02
 cg2d: Sum(rhs),rhsMax =   7.65480123732232E-10  1.66605704043564E-02
 cg2d: Sum(rhs),rhsMax =   7.65520966061750E-10  1.66605448627463E-02
 cg2d: Sum(rhs),rhsMax =   7.65562752080839E-10  1.66605121515933E-02
 cg2d: Sum(rhs),rhsMax =   7.65610769226654E-10  1.66604719149691E-02
 cg2d: Sum(rhs),rhsMax =   7.65661756219060E-10  1.66604238216373E-02
 cg2d: Sum(rhs),rhsMax =   7.65704930016931E-10  1.66603675626599E-02
 cg2d: Sum(rhs),rhsMax =   7.65747895647984E-10  1.66603028568865E-02
 cg2d: Sum(rhs),rhsMax =   7.65787419587660E-10  1.66602294501314E-02
 cg2d: Sum(rhs),rhsMax =   7.65830510118803E-10  1.66601471155457E-02
 cg2d: Sum(rhs),rhsMax =   7.65874363928276E-10  1.66600556556347E-02
 cg2d: Sum(rhs),rhsMax =   7.65914651146282E-10  1.66599549019541E-02
 cg2d: Sum(rhs),rhsMax =   7.65960211923655E-10  1.66598447147181E-02
 cg2d: Sum(rhs),rhsMax =   7.66016888809062E-10  1.66597249872500E-02
 cg2d: Sum(rhs),rhsMax =   7.66065919033387E-10  1.66595956410859E-02
 cg2d: Sum(rhs),rhsMax =   7.66120972217621E-10  1.66594566275887E-02
 cg2d: Sum(rhs),rhsMax =   7.66167199128809E-10  1.66593079303738E-02
 cg2d: Sum(rhs),rhsMax =   7.66207916558237E-10  1.66591495602300E-02
 cg2d: Sum(rhs),rhsMax =   7.66265398355337E-10  1.66589815795293E-02
 cg2d: Sum(rhs),rhsMax =   7.66313595912393E-10  1.66588040535444E-02
 cg2d: Sum(rhs),rhsMax =   7.66363958404348E-10  1.66586170671498E-02
 cg2d: Sum(rhs),rhsMax =   7.66418289943616E-10  1.66584207463684E-02
 cg2d: Sum(rhs),rhsMax =   7.66450694578147E-10  1.66582152510121E-02
 cg2d: Sum(rhs),rhsMax =   7.66512450733892E-10  1.66580007713463E-02
 cg2d: Sum(rhs),rhsMax =   7.66562854859210E-10  1.66577775178723E-02
 cg2d: Sum(rhs),rhsMax =   7.66601657153920E-10  1.66575457247341E-02
 cg2d: Sum(rhs),rhsMax =   7.66641528038292E-10  1.66573056473409E-02
 cg2d: Sum(rhs),rhsMax =   7.66700397614173E-10  1.66570575633651E-02
 cg2d: Sum(rhs),rhsMax =   7.66746069413848E-10  1.66568017717322E-02
 cg2d: Sum(rhs),rhsMax =   7.66815513864039E-10  1.66565385859968E-02
 cg2d: Sum(rhs),rhsMax =   7.66867028212381E-10  1.66562683387856E-02
 cg2d: Sum(rhs),rhsMax =   7.66916891103975E-10  1.66559913776747E-02
 cg2d: Sum(rhs),rhsMax =   7.66972943488931E-10  1.66557080610135E-02
 cg2d: Sum(rhs),rhsMax =   7.67030966519755E-10  1.66554187620516E-02
 cg2d: Sum(rhs),rhsMax =   7.67091584696900E-10  1.66551238653942E-02
 cg2d: Sum(rhs),rhsMax =   7.67148719549304E-10  1.66548237593310E-02
 cg2d: Sum(rhs),rhsMax =   7.67208005458819E-10  1.66545188421891E-02
 cg2d: Sum(rhs),rhsMax =   7.67254815237095E-10  1.66542095142046E-02
 cg2d: Sum(rhs),rhsMax =   7.67315377903088E-10  1.66538961818101E-02
 cg2d: Sum(rhs),rhsMax =   7.67372831944613E-10  1.66535792458004E-02
 cg2d: Sum(rhs),rhsMax =   7.67421251546274E-10  1.66532591119504E-02
 cg2d: Sum(rhs),rhsMax =   7.67475055729605E-10  1.66529361426477E-02
 cg2d: Sum(rhs),rhsMax =   7.67525168421379E-10  1.66526107264032E-02
 cg2d: Sum(rhs),rhsMax =   7.67583940852745E-10  1.66522832717730E-02
 cg2d: Sum(rhs),rhsMax =   7.67653760003206E-10  1.66519541566311E-02
 cg2d: Sum(rhs),rhsMax =   7.67712976523782E-10  1.66516237558968E-02
 cg2d: Sum(rhs),rhsMax =   7.67766988873930E-10  1.66512924287624E-02
 cg2d: Sum(rhs),rhsMax =   7.67824012704033E-10  1.66509605228875E-02
 cg2d: Sum(rhs),rhsMax =   7.67875693585829E-10  1.66506283761273E-02
 cg2d: Sum(rhs),rhsMax =   7.67935257051100E-10  1.66502963131472E-02
 cg2d: Sum(rhs),rhsMax =   7.67985341987298E-10  1.66499646364769E-02
 cg2d: Sum(rhs),rhsMax =   7.68043378895911E-10  1.66496336374746E-02
 cg2d: Sum(rhs),rhsMax =   7.68094643444073E-10  1.66493035832206E-02
 cg2d: Sum(rhs),rhsMax =   7.68149474583701E-10  1.66489747252988E-02
 cg2d: Sum(rhs),rhsMax =   7.68208385792946E-10  1.66486472936615E-02
 cg2d: Sum(rhs),rhsMax =   7.68276331442053E-10  1.66483214967061E-02
 cg2d: Sum(rhs),rhsMax =   7.68334049161545E-10  1.66479975194548E-02
 cg2d: Sum(rhs),rhsMax =   7.68392599548307E-10  1.66476755273968E-02
 cg2d: Sum(rhs),rhsMax =   7.68452745880666E-10  1.66473556636272E-02
 cg2d: Sum(rhs),rhsMax =   7.68515806548464E-10  1.66470380525184E-02
 cg2d: Sum(rhs),rhsMax =   7.68581157051251E-10  1.66467227826655E-02
 cg2d: Sum(rhs),rhsMax =   7.68646604698553E-10  1.66464099274969E-02
 cg2d: Sum(rhs),rhsMax =   7.68698937836376E-10  1.66460995622191E-02
 cg2d: Sum(rhs),rhsMax =   7.68773600334782E-10  1.66457917053068E-02
 cg2d: Sum(rhs),rhsMax =   7.68836050379917E-10  1.66454863849624E-02
 cg2d: Sum(rhs),rhsMax =   7.68890548452639E-10  1.66451835905457E-02
 cg2d: Sum(rhs),rhsMax =   7.68936442296919E-10  1.66448832905582E-02
 cg2d: Sum(rhs),rhsMax =   7.69001029521377E-10  1.66445854338341E-02
 cg2d: Sum(rhs),rhsMax =   7.69043551063220E-10  1.66442899511208E-02
 cg2d: Sum(rhs),rhsMax =   7.69103766784518E-10  1.66439967492478E-02
 cg2d: Sum(rhs),rhsMax =   7.69149369195254E-10  1.66437057208363E-02
 cg2d: Sum(rhs),rhsMax =   7.69192320948520E-10  1.66434167344539E-02
 cg2d: Sum(rhs),rhsMax =   7.69262320510222E-10  1.66431296483974E-02
 cg2d: Sum(rhs),rhsMax =   7.69304259184977E-10  1.66428443023372E-02
 cg2d: Sum(rhs),rhsMax =   7.69366598207810E-10  1.66425605182767E-02
 cg2d: Sum(rhs),rhsMax =   7.69419125634663E-10  1.66422781102026E-02
 cg2d: Sum(rhs),rhsMax =   7.69479077677993E-10  1.66419966330518E-02
 cg2d: Sum(rhs),rhsMax =   7.69529023836313E-10  1.66417154269678E-02
 cg2d: Sum(rhs),rhsMax =   7.69579497350570E-10  1.66414348723278E-02
 cg2d: Sum(rhs),rhsMax =   7.69638172637421E-10  1.66411547468552E-02
 cg2d: Sum(rhs),rhsMax =   7.69696098523731E-10  1.66408748137666E-02
 cg2d: Sum(rhs),rhsMax =   7.69742547479524E-10  1.66405948382632E-02
 cg2d: Sum(rhs),rhsMax =   7.69804053835088E-10  1.66403145832465E-02
 cg2d: Sum(rhs),rhsMax =   7.69868807592999E-10  1.66400338045410E-02
 cg2d: Sum(rhs),rhsMax =   7.69917476994841E-10  1.66397522598121E-02
 cg2d: Sum(rhs),rhsMax =   7.69964036972937E-10  1.66394697090731E-02
 cg2d: Sum(rhs),rhsMax =   7.70016619910940E-10  1.66391859131009E-02
 cg2d: Sum(rhs),rhsMax =   7.70084579437835E-10  1.66389006395484E-02
 cg2d: Sum(rhs),rhsMax =   7.70138688932498E-10  1.66386136580638E-02
 cg2d: Sum(rhs),rhsMax =   7.70186942000706E-10  1.66383247446281E-02
 cg2d: Sum(rhs),rhsMax =   7.70240857206339E-10  1.66380336846456E-02
 cg2d: Sum(rhs),rhsMax =   7.70299657393281E-10  1.66377402697776E-02
 cg2d: Sum(rhs),rhsMax =   7.70352268086860E-10  1.66374443040910E-02
 cg2d: Sum(rhs),rhsMax =   7.70406322070372E-10  1.66371456031234E-02
 cg2d: Sum(rhs),rhsMax =   7.70457683763048E-10  1.66368439909019E-02
 cg2d: Sum(rhs),rhsMax =   7.70510197312113E-10  1.66365393030244E-02
 cg2d: Sum(rhs),rhsMax =   7.70566041530252E-10  1.66362314003616E-02
 cg2d: Sum(rhs),rhsMax =   7.70607050393224E-10  1.66359201415551E-02
 Computing Diagnostic #    26 "THETA   " (list#  1) Parms "SMR     MR      ", Count=     144
 Computing Diagnostic #    27 "SALT    " (list#  1) Parms "SMR     MR      ", Count=     144
 Computing Diagnostic #    30 "UVEL    " (list#  1) Parms "UUR     MR      ", Count=     144
             Vector  Mate for "UVEL    " :  Diagnostic #     31 "VVEL    " exists
 Computing Diagnostic #    32 "WVEL    " (list#  1) Parms "WM      LR      ", Count=     144
 Computing Diagnostic #    31 "VVEL    " (list#  1) Parms "VVR     MR      ", Count=     144
             Vector  Mate for "VVEL    " :  Diagnostic #     30 "UVEL    " exists
 Computing Diagnostic #   197 "BRGfwFlx" (list#  2) Parms "SM      MR      ", Count=     144
 Computing Diagnostic #   198 "BRGhtFlx" (list#  2) Parms "SM      MR      ", Count=     144
 Computing Diagnostic #   199 "BRGmltRt" (list#  2) Parms "SM      MR      ", Count=     144
 Computing Diagnostic #   201 "BRG_TauX" (list#  2) Parms "UU      MR      ", Count=    1728
 Computing Diagnostic #   202 "BRG_TauY" (list#  2) Parms "VV      MR      ", Count=    1728
 Computing Diagnostic #   203 "BRGhFacC" (list#  2) Parms "SM      MR      ", Count=    1728
 cg2d: Sum(rhs),rhsMax =   7.70658800663959E-10  1.66356054072903E-02
 cg2d: Sum(rhs),rhsMax =   7.70724567500380E-10  1.66352870960502E-02
 cg2d: Sum(rhs),rhsMax =   7.70789557180684E-10  1.66349651470237E-02
 cg2d: Sum(rhs),rhsMax =   7.70846400599545E-10  1.66346395369526E-02
 cg2d: Sum(rhs),rhsMax =   7.70896763091500E-10  1.66343102117580E-02
 cg2d: Sum(rhs),rhsMax =   7.70964431184851E-10  1.66339771300710E-02
 cg2d: Sum(rhs),rhsMax =   7.71033570323709E-10  1.66336402714424E-02
 cg2d: Sum(rhs),rhsMax =   7.71094035845188E-10  1.66332996270619E-02
 cg2d: Sum(rhs),rhsMax =   7.71149755163236E-10  1.66329552094488E-02
 cg2d: Sum(rhs),rhsMax =   7.71208458205663E-10  1.66326070435291E-02
 cg2d: Sum(rhs),rhsMax =   7.71268104937661E-10  1.66322551727783E-02
 cg2d: Sum(rhs),rhsMax =   7.71340200045323E-10  1.66318996530344E-02
 cg2d: Sum(rhs),rhsMax =   7.71400054944138E-10  1.66315405581905E-02
 cg2d: Sum(rhs),rhsMax =   7.71456412640426E-10  1.66311779754572E-02
 cg2d: Sum(rhs),rhsMax =   7.71513852804162E-10  1.66308120071064E-02
 cg2d: Sum(rhs),rhsMax =   7.71561176060587E-10  1.66304427670094E-02
 cg2d: Sum(rhs),rhsMax =   7.71626013085225E-10  1.66300703847672E-02
 cg2d: Sum(rhs),rhsMax =   7.71681218925124E-10  1.66296949991612E-02
 cg2d: Sum(rhs),rhsMax =   7.71753744244208E-10  1.66293167622274E-02
 cg2d: Sum(rhs),rhsMax =   7.71807742716568E-10  1.66289358370472E-02
 cg2d: Sum(rhs),rhsMax =   7.71865654725090E-10  1.66285524146214E-02
 cg2d: Sum(rhs),rhsMax =   7.71912325725488E-10  1.66281666074359E-02
 cg2d: Sum(rhs),rhsMax =   7.71987043735045E-10  1.66277786375370E-02
 cg2d: Sum(rhs),rhsMax =   7.72044872476840E-10  1.66273887101279E-02
 cg2d: Sum(rhs),rhsMax =   7.72103728174933E-10  1.66269970120058E-02
 cg2d: Sum(rhs),rhsMax =   7.72169092555508E-10  1.66266037427580E-02
 cg2d: Sum(rhs),rhsMax =   7.72229946655045E-10  1.66262091140743E-02
 cg2d: Sum(rhs),rhsMax =   7.72297226170338E-10  1.66258133380681E-02
 cg2d: Sum(rhs),rhsMax =   7.72346020472270E-10  1.66254166315712E-02
 cg2d: Sum(rhs),rhsMax =   7.72399172399574E-10  1.66250192131358E-02
 cg2d: Sum(rhs),rhsMax =   7.72461997144980E-10  1.66246212972813E-02
 cg2d: Sum(rhs),rhsMax =   7.72521643876978E-10  1.66242231034803E-02
 cg2d: Sum(rhs),rhsMax =   7.72584288211142E-10  1.66238248461526E-02
 cg2d: Sum(rhs),rhsMax =   7.72647557045758E-10  1.66234267380338E-02
 cg2d: Sum(rhs),rhsMax =   7.72711894470035E-10  1.66230289931197E-02
 cg2d: Sum(rhs),rhsMax =   7.72763839029800E-10  1.66226318145717E-02
 cg2d: Sum(rhs),rhsMax =   7.72840416662923E-10  1.66222354082704E-02
 cg2d: Sum(rhs),rhsMax =   7.72899161338714E-10  1.66218399678892E-02
 cg2d: Sum(rhs),rhsMax =   7.72963207329447E-10  1.66214456862022E-02
 cg2d: Sum(rhs),rhsMax =   7.73021716082845E-10  1.66210527451152E-02
 cg2d: Sum(rhs),rhsMax =   7.73084388172585E-10  1.66206613247180E-02
 cg2d: Sum(rhs),rhsMax =   7.73142938559346E-10  1.66202715890714E-02
 cg2d: Sum(rhs),rhsMax =   7.73204195114729E-10  1.66198837039314E-02
 cg2d: Sum(rhs),rhsMax =   7.73264688391784E-10  1.66194978182481E-02
 cg2d: Sum(rhs),rhsMax =   7.73320185665227E-10  1.66191140750064E-02
 cg2d: Sum(rhs),rhsMax =   7.73384786767473E-10  1.66187326016788E-02
 cg2d: Sum(rhs),rhsMax =   7.73455396951839E-10  1.66183535187416E-02
 cg2d: Sum(rhs),rhsMax =   7.73523078922977E-10  1.66179769353884E-02
 cg2d: Sum(rhs),rhsMax =   7.73572872425632E-10  1.66176029476807E-02
 cg2d: Sum(rhs),rhsMax =   7.73639402540383E-10  1.66172316383400E-02
 cg2d: Sum(rhs),rhsMax =   7.73691791189357E-10  1.66168630785352E-02
 cg2d: Sum(rhs),rhsMax =   7.73764996520043E-10  1.66164973268145E-02
 cg2d: Sum(rhs),rhsMax =   7.73825545308249E-10  1.66161344299227E-02
 cg2d: Sum(rhs),rhsMax =   7.73882416482685E-10  1.66157744205534E-02
 cg2d: Sum(rhs),rhsMax =   7.73937594567009E-10  1.66154173236620E-02
 cg2d: Sum(rhs),rhsMax =   7.74000488701354E-10  1.66150631470663E-02
 cg2d: Sum(rhs),rhsMax =   7.74059205621569E-10  1.66147118901075E-02
 cg2d: Sum(rhs),rhsMax =   7.74127983937944E-10  1.66143635394066E-02
 cg2d: Sum(rhs),rhsMax =   7.74186798002674E-10  1.66140180674393E-02
 cg2d: Sum(rhs),rhsMax =   7.74245043078103E-10  1.66136754383389E-02
 cg2d: Sum(rhs),rhsMax =   7.74300706885001E-10  1.66133356018057E-02
 cg2d: Sum(rhs),rhsMax =   7.74351277543772E-10  1.66129984998222E-02
 cg2d: Sum(rhs),rhsMax =   7.74408176473784E-10  1.66126640617277E-02
 cg2d: Sum(rhs),rhsMax =   7.74466740738333E-10  1.66123322059867E-02
 cg2d: Sum(rhs),rhsMax =   7.74525624192002E-10  1.66120028467150E-02
 cg2d: Sum(rhs),rhsMax =   7.74580871665265E-10  1.66116758848918E-02
 cg2d: Sum(rhs),rhsMax =   7.74633815425751E-10  1.66113512139057E-02
 cg2d: Sum(rhs),rhsMax =   7.74693018068540E-10  1.66110287197448E-02
 cg2d: Sum(rhs),rhsMax =   7.74756953036970E-10  1.66107082800822E-02
 cg2d: Sum(rhs),rhsMax =   7.74812783377321E-10  1.66103897670482E-02
 cg2d: Sum(rhs),rhsMax =   7.74885197674102E-10  1.66100730483959E-02
 cg2d: Sum(rhs),rhsMax =   7.74953448634541E-10  1.66097579828761E-02
 cg2d: Sum(rhs),rhsMax =   7.75007502618053E-10  1.66094444287774E-02
 cg2d: Sum(rhs),rhsMax =   7.75065178704182E-10  1.66091322368336E-02
 cg2d: Sum(rhs),rhsMax =   7.75127517727014E-10  1.66088212582204E-02
 cg2d: Sum(rhs),rhsMax =   7.75193104152194E-10  1.66085113418816E-02
 cg2d: Sum(rhs),rhsMax =   7.75251821072409E-10  1.66082023311469E-02
 cg2d: Sum(rhs),rhsMax =   7.75301448041610E-10  1.66078940718090E-02
 cg2d: Sum(rhs),rhsMax =   7.75359110249951E-10  1.66075864081167E-02
 cg2d: Sum(rhs),rhsMax =   7.75418479426193E-10  1.66072791851011E-02
 cg2d: Sum(rhs),rhsMax =   7.75478292691645E-10  1.66069722474579E-02
 cg2d: Sum(rhs),rhsMax =   7.75536787567255E-10  1.66066654394834E-02
 cg2d: Sum(rhs),rhsMax =   7.75592048918305E-10  1.66063586091433E-02
 cg2d: Sum(rhs),rhsMax =   7.75648073547686E-10  1.66060516109585E-02
 cg2d: Sum(rhs),rhsMax =   7.75704570021851E-10  1.66057442985089E-02
 cg2d: Sum(rhs),rhsMax =   7.75766673122291E-10  1.66054365318540E-02
 cg2d: Sum(rhs),rhsMax =   7.75831746069322E-10  1.66051281762832E-02
 cg2d: Sum(rhs),rhsMax =   7.75892794457889E-10  1.66048191001099E-02
 cg2d: Sum(rhs),rhsMax =   7.75949818287991E-10  1.66045563785822E-02
 cg2d: Sum(rhs),rhsMax =   7.75997183177779E-10  1.66043280259325E-02
 cg2d: Sum(rhs),rhsMax =   7.76037858973844E-10  1.66040982032456E-02
 cg2d: Sum(rhs),rhsMax =   7.76100031463223E-10  1.66038653357455E-02
 cg2d: Sum(rhs),rhsMax =   7.76149380876667E-10  1.66036295111514E-02
 cg2d: Sum(rhs),rhsMax =   7.76206848795979E-10  1.66033903052212E-02
 cg2d: Sum(rhs),rhsMax =   7.76265371427165E-10  1.66031472451157E-02
 cg2d: Sum(rhs),rhsMax =   7.76320702167155E-10  1.66028998850234E-02
 cg2d: Sum(rhs),rhsMax =   7.76376393729628E-10  1.66026477989203E-02
 cg2d: Sum(rhs),rhsMax =   7.76437747429526E-10  1.66023905805920E-02
 cg2d: Sum(rhs),rhsMax =   7.76485778453129E-10  1.66021278442433E-02
 cg2d: Sum(rhs),rhsMax =   7.76549324843501E-10  1.66018592267355E-02
 cg2d: Sum(rhs),rhsMax =   7.76589889617263E-10  1.66015843920816E-02
 cg2d: Sum(rhs),rhsMax =   7.76657349543797E-10  1.66013030267306E-02
 cg2d: Sum(rhs),rhsMax =   7.76718800388210E-10  1.66010148422031E-02
 cg2d: Sum(rhs),rhsMax =   7.76773451116597E-10  1.66007195764679E-02
 cg2d: Sum(rhs),rhsMax =   7.76828559811982E-10  1.66004169961115E-02
 cg2d: Sum(rhs),rhsMax =   7.76871011964886E-10  1.66001068950440E-02
 cg2d: Sum(rhs),rhsMax =   7.76928216206230E-10  1.65997890946072E-02
 cg2d: Sum(rhs),rhsMax =   7.76978273386852E-10  1.65994634433445E-02
 cg2d: Sum(rhs),rhsMax =   7.77041306299076E-10  1.65991298207615E-02
 cg2d: Sum(rhs),rhsMax =   7.77097636239787E-10  1.65987881348516E-02
 cg2d: Sum(rhs),rhsMax =   7.77166608845192E-10  1.65984383203201E-02
 cg2d: Sum(rhs),rhsMax =   7.77221911829606E-10  1.65980803433992E-02
 cg2d: Sum(rhs),rhsMax =   7.77287928466208E-10  1.65977141988956E-02
 cg2d: Sum(rhs),rhsMax =   7.77334321910850E-10  1.65973399032604E-02
 cg2d: Sum(rhs),rhsMax =   7.77393080464428E-10  1.65969574905240E-02
 cg2d: Sum(rhs),rhsMax =   7.77447703437240E-10  1.65965670321130E-02
 cg2d: Sum(rhs),rhsMax =   7.77515357652803E-10  1.65961686741962E-02
 cg2d: Sum(rhs),rhsMax =   7.77582290223400E-10  1.65957625417477E-02
 cg2d: Sum(rhs),rhsMax =   7.77666778195574E-10  1.65953487797124E-02
 cg2d: Sum(rhs),rhsMax =   7.77722747313803E-10  1.65949275666078E-02
 cg2d: Sum(rhs),rhsMax =   7.77790012951307E-10  1.65944991041604E-02
 cg2d: Sum(rhs),rhsMax =   7.77851533184659E-10  1.65940636155709E-02
 cg2d: Sum(rhs),rhsMax =   7.77911610128079E-10  1.65936213475061E-02
 cg2d: Sum(rhs),rhsMax =   7.77967204546037E-10  1.65931725643987E-02
 cg2d: Sum(rhs),rhsMax =   7.78024186742776E-10  1.65927175510368E-02
 cg2d: Sum(rhs),rhsMax =   7.78096392872740E-10  1.65922566069496E-02
 cg2d: Sum(rhs),rhsMax =   7.78156108993677E-10  1.65917900517017E-02
 cg2d: Sum(rhs),rhsMax =   7.78228329001429E-10  1.65913182170561E-02
 cg2d: Sum(rhs),rhsMax =   7.78277831070540E-10  1.65908414470992E-02
 cg2d: Sum(rhs),rhsMax =   7.78337699847143E-10  1.65903600977663E-02
 cg2d: Sum(rhs),rhsMax =   7.78407907575662E-10  1.65898745366653E-02
 cg2d: Sum(rhs),rhsMax =   7.78474562590503E-10  1.65893851391193E-02
 cg2d: Sum(rhs),rhsMax =   7.78550571234327E-10  1.65888922879006E-02
 cg2d: Sum(rhs),rhsMax =   7.78608025275851E-10  1.65883963687106E-02
 cg2d: Sum(rhs),rhsMax =   7.78665562584102E-10  1.65878977782376E-02
 cg2d: Sum(rhs),rhsMax =   7.78732064943277E-10  1.65873968109724E-02
 cg2d: Sum(rhs),rhsMax =   7.78785383404035E-10  1.65868940985754E-02
 cg2d: Sum(rhs),rhsMax =   7.78843795012918E-10  1.65863899181917E-02
 cg2d: Sum(rhs),rhsMax =   7.78913655796742E-10  1.65858846026232E-02
 cg2d: Sum(rhs),rhsMax =   7.78969388992579E-10  1.65853785761792E-02
 cg2d: Sum(rhs),rhsMax =   7.79037695464169E-10  1.65848722490886E-02
 cg2d: Sum(rhs),rhsMax =   7.79102088399597E-10  1.65843660073566E-02
 cg2d: Sum(rhs),rhsMax =   7.79175599041615E-10  1.65838602186932E-02
 cg2d: Sum(rhs),rhsMax =   7.79242392834334E-10  1.65833552515639E-02
 Computing Diagnostic #    26 "THETA   " (list#  1) Parms "SMR     MR      ", Count=     144
 Computing Diagnostic #    27 "SALT    " (list#  1) Parms "SMR     MR      ", Count=     144
 Computing Diagnostic #    30 "UVEL    " (list#  1) Parms "UUR     MR      ", Count=     144
             Vector  Mate for "UVEL    " :  Diagnostic #     31 "VVEL    " exists
 Computing Diagnostic #    32 "WVEL    " (list#  1) Parms "WM      LR      ", Count=     144
 Computing Diagnostic #    31 "VVEL    " (list#  1) Parms "VVR     MR      ", Count=     144
             Vector  Mate for "VVEL    " :  Diagnostic #     30 "UVEL    " exists
 Computing Diagnostic #   197 "BRGfwFlx" (list#  2) Parms "SM      MR      ", Count=     144
 Computing Diagnostic #   198 "BRGhtFlx" (list#  2) Parms "SM      MR      ", Count=     144
 Computing Diagnostic #   199 "BRGmltRt" (list#  2) Parms "SM      MR      ", Count=     144
 Computing Diagnostic #   201 "BRG_TauX" (list#  2) Parms "UU      MR      ", Count=    1728
 Computing Diagnostic #   202 "BRG_TauY" (list#  2) Parms "VV      MR      ", Count=    1728
 Computing Diagnostic #   203 "BRGhFacC" (list#  2) Parms "SM      MR      ", Count=    1728
 cg2d: Sum(rhs),rhsMax =   7.79310907472741E-10  1.65828514603660E-02
 cg2d: Sum(rhs),rhsMax =   7.79362865910294E-10  1.65823491976125E-02
 cg2d: Sum(rhs),rhsMax =   7.79429534802922E-10  1.65818488015416E-02
 cg2d: Sum(rhs),rhsMax =   7.79496467373519E-10  1.65813506006282E-02
 cg2d: Sum(rhs),rhsMax =   7.79580081045061E-10  1.65808549080997E-02
 cg2d: Sum(rhs),rhsMax =   7.79645667470241E-10  1.65803620185017E-02
 cg2d: Sum(rhs),rhsMax =   7.79707895470771E-10  1.65798722363470E-02
 cg2d: Sum(rhs),rhsMax =   7.79779740778253E-10  1.65793858206527E-02
 cg2d: Sum(rhs),rhsMax =   7.79845688025915E-10  1.65789030231787E-02
 cg2d: Sum(rhs),rhsMax =   7.79913952864142E-10  1.65784240855674E-02
 cg2d: Sum(rhs),rhsMax =   7.79980829923588E-10  1.65779492288366E-02
 cg2d: Sum(rhs),rhsMax =   7.80051551130256E-10  1.65774786551315E-02
 cg2d: Sum(rhs),rhsMax =   7.80126047095209E-10  1.65770125490411E-02
 cg2d: Sum(rhs),rhsMax =   7.80189746141247E-10  1.65765510772994E-02
 cg2d: Sum(rhs),rhsMax =   7.80255859922363E-10  1.65760943873049E-02
 cg2d: Sum(rhs),rhsMax =   7.80325248861402E-10  1.65756426092332E-02
 cg2d: Sum(rhs),rhsMax =   7.80394499022563E-10  1.65751958540417E-02
 cg2d: Sum(rhs),rhsMax =   7.80458739302325E-10  1.65747542139394E-02
 cg2d: Sum(rhs),rhsMax =   7.80523964905022E-10  1.65743177624885E-02
 cg2d: Sum(rhs),rhsMax =   7.80586623116974E-10  1.65738865558463E-02
 cg2d: Sum(rhs),rhsMax =   7.80646353115699E-10  1.65734606321411E-02
 cg2d: Sum(rhs),rhsMax =   7.80710038283949E-10  1.65730400084313E-02
 cg2d: Sum(rhs),rhsMax =   7.80766437613600E-10  1.65726246856365E-02
 cg2d: Sum(rhs),rhsMax =   7.80827680291196E-10  1.65722146471850E-02
 cg2d: Sum(rhs),rhsMax =   7.80883496753759E-10  1.65718098199711E-02
 cg2d: Sum(rhs),rhsMax =   7.80947070899707E-10  1.65714101529279E-02
 cg2d: Sum(rhs),rhsMax =   7.81001235905521E-10  1.65710155818106E-02
 cg2d: Sum(rhs),rhsMax =   7.81068557054176E-10  1.65706260337858E-02
 cg2d: Sum(rhs),rhsMax =   7.81119641191097E-10  1.65702414150137E-02
 cg2d: Sum(rhs),rhsMax =   7.81178760567158E-10  1.65698616176340E-02
 cg2d: Sum(rhs),rhsMax =   7.81245443337575E-10  1.65694865250365E-02
 cg2d: Sum(rhs),rhsMax =   7.81311682018782E-10  1.65691160034085E-02
 cg2d: Sum(rhs),rhsMax =   7.81376074954210E-10  1.65687499071077E-02
 cg2d: Sum(rhs),rhsMax =   7.81446032882549E-10  1.65683880810735E-02
 cg2d: Sum(rhs),rhsMax =   7.81503764479829E-10  1.65680303582189E-02
 cg2d: Sum(rhs),rhsMax =   7.81578302078145E-10  1.65676765621943E-02
 cg2d: Sum(rhs),rhsMax =   7.81634715285584E-10  1.65673264996062E-02
 cg2d: Sum(rhs),rhsMax =   7.81696596341419E-10  1.65669799858701E-02
 cg2d: Sum(rhs),rhsMax =   7.81746861688859E-10  1.65666368178258E-02
 cg2d: Sum(rhs),rhsMax =   7.81801623439549E-10  1.65662967830977E-02
 cg2d: Sum(rhs),rhsMax =   7.81851167142023E-10  1.65659596694474E-02
 cg2d: Sum(rhs),rhsMax =   7.81902140256641E-10  1.65656252552239E-02
 cg2d: Sum(rhs),rhsMax =   7.81957762430174E-10  1.65652933165690E-02
 cg2d: Sum(rhs),rhsMax =   7.82006570609894E-10  1.65649636236433E-02
 cg2d: Sum(rhs),rhsMax =   7.82075237903967E-10  1.65646359467595E-02
 cg2d: Sum(rhs),rhsMax =   7.82125531006983E-10  1.65643100546321E-02
 cg2d: Sum(rhs),rhsMax =   7.82181652780878E-10  1.65639857111897E-02
 cg2d: Sum(rhs),rhsMax =   7.82232140172923E-10  1.65636622701004E-02
 cg2d: Sum(rhs),rhsMax =   7.82290204837111E-10  1.65633393703633E-02
 cg2d: Sum(rhs),rhsMax =   7.82335279891910E-10  1.65630170319397E-02
 cg2d: Sum(rhs),rhsMax =   7.82386710973526E-10  1.65626947984141E-02
 cg2d: Sum(rhs),rhsMax =   7.82437239998934E-10  1.65623724424443E-02
 cg2d: Sum(rhs),rhsMax =   7.82497566742535E-10  1.65620497536242E-02
 cg2d: Sum(rhs),rhsMax =   7.82557504908077E-10  1.65617265264202E-02
 cg2d: Sum(rhs),rhsMax =   7.82609796412537E-10  1.65614025641103E-02
 cg2d: Sum(rhs),rhsMax =   7.82662323839389E-10  1.65610776724775E-02
 cg2d: Sum(rhs),rhsMax =   7.82722969772109E-10  1.65607516682096E-02
 cg2d: Sum(rhs),rhsMax =   7.82793121989478E-10  1.65604243766801E-02
 cg2d: Sum(rhs),rhsMax =   7.82858472492265E-10  1.65600956356509E-02
 cg2d: Sum(rhs),rhsMax =   7.82908265994919E-10  1.65597652875781E-02
 cg2d: Sum(rhs),rhsMax =   7.82968107015947E-10  1.65594331833753E-02
 cg2d: Sum(rhs),rhsMax =   7.83018400118962E-10  1.65590991854437E-02
 cg2d: Sum(rhs),rhsMax =   7.83080364441524E-10  1.65587390805742E-02
 cg2d: Sum(rhs),rhsMax =   7.83131462456232E-10  1.65583590992531E-02
 cg2d: Sum(rhs),rhsMax =   7.83182699248819E-10  1.65579725854595E-02
 cg2d: Sum(rhs),rhsMax =   7.83234435641766E-10  1.65575833126775E-02
 cg2d: Sum(rhs),rhsMax =   7.83296705275660E-10  1.65571923391164E-02
 cg2d: Sum(rhs),rhsMax =   7.83352285815830E-10  1.65568000983248E-02
 cg2d: Sum(rhs),rhsMax =   7.83401996051758E-10  1.65564068404979E-02
 cg2d: Sum(rhs),rhsMax =   7.83463682818564E-10  1.65560127587653E-02
 cg2d: Sum(rhs),rhsMax =   7.83532017045729E-10  1.65556180338904E-02
 cg2d: Sum(rhs),rhsMax =   7.83601017406710E-10  1.65552228364787E-02
 cg2d: Sum(rhs),rhsMax =   7.83660289438437E-10  1.65548273355011E-02
 cg2d: Sum(rhs),rhsMax =   7.83727444053639E-10  1.65544316931691E-02
 cg2d: Sum(rhs),rhsMax =   7.83788922653628E-10  1.65540360662642E-02
 cg2d: Sum(rhs),rhsMax =   7.83845904850367E-10  1.65536406025239E-02
 cg2d: Sum(rhs),rhsMax =   7.83897918799070E-10  1.65532454493280E-02
 cg2d: Sum(rhs),rhsMax =   7.83958772898607E-10  1.65528507410923E-02
 cg2d: Sum(rhs),rhsMax =   7.84018905353179E-10  1.65524566040542E-02
 cg2d: Sum(rhs),rhsMax =   7.84083076244002E-10  1.65520631530136E-02
 cg2d: Sum(rhs),rhsMax =   7.84141543364036E-10  1.65516704962312E-02
 cg2d: Sum(rhs),rhsMax =   7.84196665937209E-10  1.65512787293075E-02
 cg2d: Sum(rhs),rhsMax =   7.84253662011736E-10  1.65508879389347E-02
 cg2d: Sum(rhs),rhsMax =   7.84306092294074E-10  1.65504982014139E-02
 cg2d: Sum(rhs),rhsMax =   7.84368847650541E-10  1.65501095815516E-02
 cg2d: Sum(rhs),rhsMax =   7.84430562172922E-10  1.65497221365409E-02
 cg2d: Sum(rhs),rhsMax =   7.84497494743519E-10  1.65493359093463E-02
 cg2d: Sum(rhs),rhsMax =   7.84559944788654E-10  1.65489509383742E-02
 cg2d: Sum(rhs),rhsMax =   7.84620757254828E-10  1.65485672454625E-02
 cg2d: Sum(rhs),rhsMax =   7.84668163777980E-10  1.65481848479792E-02
 cg2d: Sum(rhs),rhsMax =   7.84740619708124E-10  1.65478037538205E-02
 cg2d: Sum(rhs),rhsMax =   7.84801140740754E-10  1.65474239594684E-02
 cg2d: Sum(rhs),rhsMax =   7.84863105063316E-10  1.65470454556303E-02
 cg2d: Sum(rhs),rhsMax =   7.84933548714228E-10  1.65466682242375E-02
 cg2d: Sum(rhs),rhsMax =   7.84993584024285E-10  1.65462922401453E-02
 cg2d: Sum(rhs),rhsMax =   7.85044904083598E-10  1.65459174714415E-02
 cg2d: Sum(rhs),rhsMax =   7.85117110213562E-10  1.65455438816146E-02
 cg2d: Sum(rhs),rhsMax =   7.85178047579826E-10  1.65451805350108E-02
 cg2d: Sum(rhs),rhsMax =   7.85240233946993E-10  1.65448207206324E-02
 cg2d: Sum(rhs),rhsMax =   7.85308096329373E-10  1.65444625085576E-02
 cg2d: Sum(rhs),rhsMax =   7.85361206623314E-10  1.65441053496971E-02
 cg2d: Sum(rhs),rhsMax =   7.85421297444522E-10  1.65437490026858E-02
 cg2d: Sum(rhs),rhsMax =   7.85487716536970E-10  1.65433933110225E-02
 cg2d: Sum(rhs),rhsMax =   7.85539758241249E-10  1.65430381448278E-02
 cg2d: Sum(rhs),rhsMax =   7.85605996922456E-10  1.65426833849848E-02
 cg2d: Sum(rhs),rhsMax =   7.85669529435040E-10  1.65423289153938E-02
 cg2d: Sum(rhs),rhsMax =   7.85736808950332E-10  1.65419746253889E-02
 cg2d: Sum(rhs),rhsMax =   7.85794457280886E-10  1.65416204073440E-02
 cg2d: Sum(rhs),rhsMax =   7.85854312179701E-10  1.65412661602808E-02
 cg2d: Sum(rhs),rhsMax =   7.85909892719872E-10  1.65409117894949E-02
 cg2d: Sum(rhs),rhsMax =   7.85958242932594E-10  1.65405548702282E-02
 cg2d: Sum(rhs),rhsMax =   7.86027326560301E-10  1.65401975881309E-02
 cg2d: Sum(rhs),rhsMax =   7.86072804070947E-10  1.65398400071466E-02
 cg2d: Sum(rhs),rhsMax =   7.86135670449717E-10  1.65394820458483E-02
 cg2d: Sum(rhs),rhsMax =   7.86195150648261E-10  1.65391236590029E-02
 cg2d: Sum(rhs),rhsMax =   7.86262444041341E-10  1.65387648166227E-02
 cg2d: Sum(rhs),rhsMax =   7.86321299739434E-10  1.65384054973905E-02
 cg2d: Sum(rhs),rhsMax =   7.86390300100415E-10  1.65380456878682E-02
 cg2d: Sum(rhs),rhsMax =   7.86444159794897E-10  1.65376853847752E-02
 cg2d: Sum(rhs),rhsMax =   7.86497311722201E-10  1.65373245920143E-02
 cg2d: Sum(rhs),rhsMax =   7.86546855424675E-10  1.65369633252857E-02
 cg2d: Sum(rhs),rhsMax =   7.86612386338703E-10  1.65366016058664E-02
 cg2d: Sum(rhs),rhsMax =   7.86675086184019E-10  1.65362394653695E-02
 cg2d: Sum(rhs),rhsMax =   7.86720383283424E-10  1.65358769404796E-02
 cg2d: Sum(rhs),rhsMax =   7.86798487473206E-10  1.65355140784497E-02
 cg2d: Sum(rhs),rhsMax =   7.86854206791254E-10  1.65351509324913E-02
 cg2d: Sum(rhs),rhsMax =   7.86928772145146E-10  1.65347875599849E-02
 cg2d: Sum(rhs),rhsMax =   7.86976456224053E-10  1.65344240273298E-02
 cg2d: Sum(rhs),rhsMax =   7.87039364236186E-10  1.65340604016613E-02
 cg2d: Sum(rhs),rhsMax =   7.87096901544437E-10  1.65336967673846E-02
 cg2d: Sum(rhs),rhsMax =   7.87158616066819E-10  1.65333331944662E-02
 cg2d: Sum(rhs),rhsMax =   7.87228379706129E-10  1.65329697534038E-02
 cg2d: Sum(rhs),rhsMax =   7.87286125181197E-10  1.65326065281814E-02
 cg2d: Sum(rhs),rhsMax =   7.87347145814188E-10  1.65322436065778E-02
 cg2d: Sum(rhs),rhsMax =   7.87405571300859E-10  1.65318810696288E-02
 cg2d: Sum(rhs),rhsMax =   7.87452852923920E-10  1.65315189970016E-02
 cg2d: Sum(rhs),rhsMax =   7.87504950139351E-10  1.65311574683742E-02
 cg2d: Sum(rhs),rhsMax =   7.87574672145297E-10  1.65307965610593E-02
 cg2d: Sum(rhs),rhsMax =   7.87625714648854E-10  1.65304363460922E-02
 cg2d: Sum(rhs),rhsMax =   7.87688164693989E-10  1.65300768926410E-02
 cg2d: Sum(rhs),rhsMax =   7.87743717478584E-10  1.65297182631054E-02
 cg2d: Sum(rhs),rhsMax =   7.87793191792119E-10  1.65293605149771E-02
 cg2d: Sum(rhs),rhsMax =   7.87841278326873E-10  1.65290036960166E-02
 cg2d: Sum(rhs),rhsMax =   7.87905476973272E-10  1.65286478463929E-02
 Computing Diagnostic #    26 "THETA   " (list#  1) Parms "SMR     MR      ", Count=     144
 Computing Diagnostic #    27 "SALT    " (list#  1) Parms "SMR     MR      ", Count=     144
 Computing Diagnostic #    30 "UVEL    " (list#  1) Parms "UUR     MR      ", Count=     144
             Vector  Mate for "UVEL    " :  Diagnostic #     31 "VVEL    " exists
 Computing Diagnostic #    32 "WVEL    " (list#  1) Parms "WM      LR      ", Count=     144
 Computing Diagnostic #    31 "VVEL    " (list#  1) Parms "VVR     MR      ", Count=     144
             Vector  Mate for "VVEL    " :  Diagnostic #     30 "UVEL    " exists
 Computing Diagnostic #   197 "BRGfwFlx" (list#  2) Parms "SM      MR      ", Count=     144
 Computing Diagnostic #   198 "BRGhtFlx" (list#  2) Parms "SM      MR      ", Count=     144
 Computing Diagnostic #   199 "BRGmltRt" (list#  2) Parms "SM      MR      ", Count=     144
 Computing Diagnostic #   201 "BRG_TauX" (list#  2) Parms "UU      MR      ", Count=    1728
 Computing Diagnostic #   202 "BRG_TauY" (list#  2) Parms "VV      MR      ", Count=    1728
 Computing Diagnostic #   203 "BRGhFacC" (list#  2) Parms "SM      MR      ", Count=    1728
 cg2d: Sum(rhs),rhsMax =   7.87950441005769E-10  1.65282930001256E-02
 cg2d: Sum(rhs),rhsMax =   7.88010337537948E-10  1.65279391198226E-02
 cg2d: Sum(rhs),rhsMax =   7.88070844692790E-10  1.65275860759510E-02
 cg2d: Sum(rhs),rhsMax =   7.88134488227676E-10  1.65272338690319E-02
 cg2d: Sum(rhs),rhsMax =   7.88204876367438E-10  1.65268824933999E-02
 cg2d: Sum(rhs),rhsMax =   7.88262677353657E-10  1.65265319337647E-02
 cg2d: Sum(rhs),rhsMax =   7.88315981936627E-10  1.65261821546714E-02
 cg2d: Sum(rhs),rhsMax =   7.88366608106550E-10  1.65258331273915E-02
 cg2d: Sum(rhs),rhsMax =   7.88423062947352E-10  1.65254848054699E-02
 cg2d: Sum(rhs),rhsMax =   7.88488260794473E-10  1.65251371297787E-02
 cg2d: Sum(rhs),rhsMax =   7.88530865603043E-10  1.65247900348560E-02
 cg2d: Sum(rhs),rhsMax =   7.88585488575855E-10  1.65244434423956E-02
 cg2d: Sum(rhs),rhsMax =   7.88643511606679E-10  1.65240972651125E-02
 cg2d: Sum(rhs),rhsMax =   7.88699008880123E-10  1.65237514082872E-02
 cg2d: Sum(rhs),rhsMax =   7.88758544589818E-10  1.65234057644244E-02
 cg2d: Sum(rhs),rhsMax =   7.88805243345791E-10  1.65230602025925E-02
 cg2d: Sum(rhs),rhsMax =   7.88873910639865E-10  1.65227145997870E-02
 cg2d: Sum(rhs),rhsMax =   7.88942411400484E-10  1.65223688442484E-02
 cg2d: Sum(rhs),rhsMax =   7.88994980460700E-10  1.65220228061501E-02
 cg2d: Sum(rhs),rhsMax =   7.89050991212292E-10  1.65216763321223E-02
 cg2d: Sum(rhs),rhsMax =   7.89110693455441E-10  1.65213292622170E-02
 cg2d: Sum(rhs),rhsMax =   7.89167148296244E-10  1.65209814389903E-02
 cg2d: Sum(rhs),rhsMax =   7.89221701880116E-10  1.65206327029156E-02
 cg2d: Sum(rhs),rhsMax =   7.89267790013426E-10  1.65202828918852E-02
 cg2d: Sum(rhs),rhsMax =   7.89339107964970E-10  1.65199318387080E-02
 cg2d: Sum(rhs),rhsMax =   7.89399282052905E-10  1.65195793746390E-02
 cg2d: Sum(rhs),rhsMax =   7.89470752660115E-10  1.65192253279866E-02
 cg2d: Sum(rhs),rhsMax =   7.89520657185072E-10  1.65188695281643E-02
 cg2d: Sum(rhs),rhsMax =   7.89567411452197E-10  1.65185118080234E-02
 cg2d: Sum(rhs),rhsMax =   7.89618134766634E-10  1.65181519984872E-02
 cg2d: Sum(rhs),rhsMax =   7.89673326728746E-10  1.65177899373855E-02
 cg2d: Sum(rhs),rhsMax =   7.89720525085080E-10  1.65174254656895E-02
 cg2d: Sum(rhs),rhsMax =   7.89773024756357E-10  1.65170584310097E-02
 cg2d: Sum(rhs),rhsMax =   7.89823068059192E-10  1.65166886833999E-02
 cg2d: Sum(rhs),rhsMax =   7.89887030783198E-10  1.65163160859516E-02
 cg2d: Sum(rhs),rhsMax =   7.89946427715016E-10  1.65159405029329E-02
 cg2d: Sum(rhs),rhsMax =   7.90008433670941E-10  1.65155618169350E-02
 cg2d: Sum(rhs),rhsMax =   7.90078044654585E-10  1.65151799121985E-02
 cg2d: Sum(rhs),rhsMax =   7.90129642269655E-10  1.65147946860717E-02
 cg2d: Sum(rhs),rhsMax =   7.90184542798222E-10  1.65144060451414E-02
 cg2d: Sum(rhs),rhsMax =   7.90237431047558E-10  1.65140139146232E-02
 cg2d: Sum(rhs),rhsMax =   7.90289417240686E-10  1.65136182278580E-02
 cg2d: Sum(rhs),rhsMax =   7.90357293500854E-10  1.65132189371740E-02
 cg2d: Sum(rhs),rhsMax =   7.90411777695788E-10  1.65128160025864E-02
 cg2d: Sum(rhs),rhsMax =   7.90483095647332E-10  1.65124094055905E-02
 cg2d: Sum(rhs),rhsMax =   7.90550971907500E-10  1.65119991375419E-02
 cg2d: Sum(rhs),rhsMax =   7.90615059531596E-10  1.65115852058466E-02
 cg2d: Sum(rhs),rhsMax =   7.90672652350999E-10  1.65111676365576E-02
 cg2d: Sum(rhs),rhsMax =   7.90735518729768E-10  1.65107464672093E-02
 cg2d: Sum(rhs),rhsMax =   7.90798024286055E-10  1.65103217531799E-02
 cg2d: Sum(rhs),rhsMax =   7.90871645950375E-10  1.65098935667959E-02
 cg2d: Sum(rhs),rhsMax =   7.90934179262237E-10  1.65094619935995E-02
 cg2d: Sum(rhs),rhsMax =   7.90994339472384E-10  1.65090271363418E-02
 cg2d: Sum(rhs),rhsMax =   7.91041177006235E-10  1.65085891121180E-02
 cg2d: Sum(rhs),rhsMax =   7.91099435959453E-10  1.65081480554944E-02
 cg2d: Sum(rhs),rhsMax =   7.91165688518447E-10  1.65077041133232E-02
 cg2d: Sum(rhs),rhsMax =   7.91221282936405E-10  1.65072574450376E-02
 cg2d: Sum(rhs),rhsMax =   7.91293558455308E-10  1.65068082275764E-02
 cg2d: Sum(rhs),rhsMax =   7.91355356244416E-10  1.65063566470779E-02
 cg2d: Sum(rhs),rhsMax =   7.91404400346529E-10  1.65059029049286E-02
 cg2d: Sum(rhs),rhsMax =   7.91468557359565E-10  1.65054472098669E-02
 cg2d: Sum(rhs),rhsMax =   7.91532686617025E-10  1.65049897832555E-02
 cg2d: Sum(rhs),rhsMax =   7.91603865790691E-10  1.65045308554621E-02
 cg2d: Sum(rhs),rhsMax =   7.91677043365802E-10  1.65040706668316E-02
 cg2d: Sum(rhs),rhsMax =   7.91726573190488E-10  1.65036094619422E-02
 cg2d: Sum(rhs),rhsMax =   7.91791521237428E-10  1.65031474947263E-02
 cg2d: Sum(rhs),rhsMax =   7.91854776194256E-10  1.65026850221869E-02
 cg2d: Sum(rhs),rhsMax =   7.91915893971762E-10  1.65022223083190E-02
 cg2d: Sum(rhs),rhsMax =   7.91988405413058E-10  1.65017596177064E-02
 cg2d: Sum(rhs),rhsMax =   7.92063289956069E-10  1.65012972181831E-02
 cg2d: Sum(rhs),rhsMax =   7.92133830751496E-10  1.65008353801689E-02
 cg2d: Sum(rhs),rhsMax =   7.92187371256858E-10  1.65003743701637E-02
 cg2d: Sum(rhs),rhsMax =   7.92263671334226E-10  1.64999144558278E-02
 cg2d: Sum(rhs),rhsMax =   7.92323179288346E-10  1.64994559019032E-02
 cg2d: Sum(rhs),rhsMax =   7.92375401403866E-10  1.64989989700174E-02
 cg2d: Sum(rhs),rhsMax =   7.92438323293787E-10  1.64985438822040E-02
 cg2d: Sum(rhs),rhsMax =   7.92507254265828E-10  1.64980909245682E-02
 cg2d: Sum(rhs),rhsMax =   7.92576296260172E-10  1.64976403530302E-02
 cg2d: Sum(rhs),rhsMax =   7.92625340362285E-10  1.64971924011178E-02
 cg2d: Sum(rhs),rhsMax =   7.92695936668864E-10  1.64967472947194E-02
 cg2d: Sum(rhs),rhsMax =   7.92757859358062E-10  1.64963052478818E-02
 cg2d: Sum(rhs),rhsMax =   7.92825347040171E-10  1.64958664598573E-02
 cg2d: Sum(rhs),rhsMax =   7.92886256650860E-10  1.64954311203232E-02
 cg2d: Sum(rhs),rhsMax =   7.92943335992113E-10  1.64949994118145E-02
 cg2d: Sum(rhs),rhsMax =   7.93013738009662E-10  1.64945715054218E-02
 cg2d: Sum(rhs),rhsMax =   7.93074689253714E-10  1.64941475579182E-02
 cg2d: Sum(rhs),rhsMax =   7.93125537468242E-10  1.64937277186692E-02
 cg2d: Sum(rhs),rhsMax =   7.93177204472251E-10  1.64933121166145E-02
 cg2d: Sum(rhs),rhsMax =   7.93243554175760E-10  1.64929008710043E-02
 cg2d: Sum(rhs),rhsMax =   7.93305227064778E-10  1.64924940838594E-02
 cg2d: Sum(rhs),rhsMax =   7.93369495100116E-10  1.64920918439429E-02
 cg2d: Sum(rhs),rhsMax =   7.93435622759020E-10  1.64916942248120E-02
 cg2d: Sum(rhs),rhsMax =   7.93492632711335E-10  1.64913012767118E-02
 cg2d: Sum(rhs),rhsMax =   7.93547186295207E-10  1.64909130444681E-02
 cg2d: Sum(rhs),rhsMax =   7.93601018234114E-10  1.64905295511594E-02
 cg2d: Sum(rhs),rhsMax =   7.93655682840289E-10  1.64901508083866E-02
 cg2d: Sum(rhs),rhsMax =   7.93727902848040E-10  1.64897768109968E-02
 cg2d: Sum(rhs),rhsMax =   7.93790699837871E-10  1.64894075409427E-02
 cg2d: Sum(rhs),rhsMax =   7.93846377522556E-10  1.64890429656957E-02
 cg2d: Sum(rhs),rhsMax =   7.93905302609588E-10  1.64886830396273E-02
 cg2d: Sum(rhs),rhsMax =   7.93961951739419E-10  1.64883277082560E-02
 cg2d: Sum(rhs),rhsMax =   7.94019336392005E-10  1.64879768994437E-02
 cg2d: Sum(rhs),rhsMax =   7.94072446685945E-10  1.64876305258801E-02
 cg2d: Sum(rhs),rhsMax =   7.94129345615957E-10  1.64872883902112E-02
 cg2d: Sum(rhs),rhsMax =   7.94176613361230E-10  1.64869504766444E-02
 cg2d: Sum(rhs),rhsMax =   7.94222465572147E-10  1.64866165132374E-02
 cg2d: Sum(rhs),rhsMax =   7.94285137661888E-10  1.64862863505715E-02
 cg2d: Sum(rhs),rhsMax =   7.94341051268965E-10  1.64859598352719E-02
 cg2d: Sum(rhs),rhsMax =   7.94393592573606E-10  1.64856367946305E-02
 cg2d: Sum(rhs),rhsMax =   7.94450047414408E-10  1.64853170338593E-02
 cg2d: Sum(rhs),rhsMax =   7.94509527612952E-10  1.64850003722086E-02
 cg2d: Sum(rhs),rhsMax =   7.94561902384139E-10  1.64846866333013E-02
 cg2d: Sum(rhs),rhsMax =   7.94634191780830E-10  1.64843756381342E-02
 cg2d: Sum(rhs),rhsMax =   7.94688634342400E-10  1.64840672110825E-02
 cg2d: Sum(rhs),rhsMax =   7.94740023790652E-10  1.64837611792856E-02
 cg2d: Sum(rhs),rhsMax =   7.94795909642154E-10  1.64834573738377E-02
 cg2d: Sum(rhs),rhsMax =   7.94849491780880E-10  1.64831556314699E-02
 cg2d: Sum(rhs),rhsMax =   7.94904933543172E-10  1.64828557931831E-02
 cg2d: Sum(rhs),rhsMax =   7.94962484729211E-10  1.64825577095595E-02
 cg2d: Sum(rhs),rhsMax =   7.95033289202607E-10  1.64822612348700E-02
 cg2d: Sum(rhs),rhsMax =   7.95072521708740E-10  1.64819662341028E-02
 cg2d: Sum(rhs),rhsMax =   7.95120566610130E-10  1.64816725807330E-02
 cg2d: Sum(rhs),rhsMax =   7.95165058797842E-10  1.64813801554568E-02
 cg2d: Sum(rhs),rhsMax =   7.95222665495032E-10  1.64810888523552E-02
 cg2d: Sum(rhs),rhsMax =   7.95283894294840E-10  1.64807985702252E-02
 cg2d: Sum(rhs),rhsMax =   7.95345206361375E-10  1.64805092225411E-02
 cg2d: Sum(rhs),rhsMax =   7.95394292096852E-10  1.64802207305823E-02
 cg2d: Sum(rhs),rhsMax =   7.95452981261491E-10  1.64799330264009E-02
 cg2d: Sum(rhs),rhsMax =   7.95512336559945E-10  1.64796460541832E-02
 cg2d: Sum(rhs),rhsMax =   7.95562893340929E-10  1.64793597648381E-02
 cg2d: Sum(rhs),rhsMax =   7.95625745841910E-10  1.64790741228065E-02
 cg2d: Sum(rhs),rhsMax =   7.95672180919915E-10  1.64787891020362E-02
 cg2d: Sum(rhs),rhsMax =   7.95721183388665E-10  1.64785046821333E-02
 cg2d: Sum(rhs),rhsMax =   7.95783910989556E-10  1.64782208584679E-02
 cg2d: Sum(rhs),rhsMax =   7.95846819001689E-10  1.64779376303702E-02
 cg2d: Sum(rhs),rhsMax =   7.95887258875361E-10  1.64776550053822E-02
 cg2d: Sum(rhs),rhsMax =   7.95948806864288E-10  1.64773730003490E-02
 cg2d: Sum(rhs),rhsMax =   7.95998197911096E-10  1.64770916407401E-02
 cg2d: Sum(rhs),rhsMax =   7.96064755781423E-10  1.64768109548142E-02
 cg2d: Sum(rhs),rhsMax =   7.96139848491251E-10  1.64765309776091E-02
 cg2d: Sum(rhs),rhsMax =   7.96194207786094E-10  1.64762517478141E-02
 cg2d: Sum(rhs),rhsMax =   7.96252966339672E-10  1.64759733125839E-02
 cg2d: Sum(rhs),rhsMax =   7.96308907702326E-10  1.64756957179004E-02
 cg2d: Sum(rhs),rhsMax =   7.96361490640329E-10  1.64754190129193E-02
 Computing Diagnostic #    26 "THETA   " (list#  1) Parms "SMR     MR      ", Count=     144
 Computing Diagnostic #    27 "SALT    " (list#  1) Parms "SMR     MR      ", Count=     144
 Computing Diagnostic #    30 "UVEL    " (list#  1) Parms "UUR     MR      ", Count=     144
             Vector  Mate for "UVEL    " :  Diagnostic #     31 "VVEL    " exists
 Computing Diagnostic #    32 "WVEL    " (list#  1) Parms "WM      LR      ", Count=     144
 Computing Diagnostic #    31 "VVEL    " (list#  1) Parms "VVR     MR      ", Count=     144
             Vector  Mate for "VVEL    " :  Diagnostic #     30 "UVEL    " exists
 Computing Diagnostic #   197 "BRGfwFlx" (list#  2) Parms "SM      MR      ", Count=     144
 Computing Diagnostic #   198 "BRGhtFlx" (list#  2) Parms "SM      MR      ", Count=     144
 Computing Diagnostic #   199 "BRGmltRt" (list#  2) Parms "SM      MR      ", Count=     144
 Computing Diagnostic #   201 "BRG_TauX" (list#  2) Parms "UU      MR      ", Count=    1728
 Computing Diagnostic #   202 "BRG_TauY" (list#  2) Parms "VV      MR      ", Count=    1728
 Computing Diagnostic #   203 "BRGhFacC" (list#  2) Parms "SM      MR      ", Count=    1728
 cg2d: Sum(rhs),rhsMax =   7.96423052507045E-10  1.64751432477408E-02
 cg2d: Sum(rhs),rhsMax =   7.96487958920622E-10  1.64748684762164E-02
 cg2d: Sum(rhs),rhsMax =   7.96538696112847E-10  1.64745947481030E-02
 cg2d: Sum(rhs),rhsMax =   7.96595706065162E-10  1.64743221167501E-02
 cg2d: Sum(rhs),rhsMax =   7.96655283408221E-10  1.64740506271385E-02
 cg2d: Sum(rhs),rhsMax =   7.96706936534441E-10  1.64737803285505E-02
 cg2d: Sum(rhs),rhsMax =   7.96759491716870E-10  1.64735112610216E-02
 cg2d: Sum(rhs),rhsMax =   7.96819193960019E-10  1.64732434670023E-02
 cg2d: Sum(rhs),rhsMax =   7.96857593798883E-10  1.64729769771386E-02
 cg2d: Sum(rhs),rhsMax =   7.96924110035846E-10  1.64727118191531E-02
 cg2d: Sum(rhs),rhsMax =   7.96977220329786E-10  1.64724480182070E-02
 cg2d: Sum(rhs),rhsMax =   7.97054561241239E-10  1.64721855878318E-02
 cg2d: Sum(rhs),rhsMax =   7.97104202088228E-10  1.64719245368321E-02
 cg2d: Sum(rhs),rhsMax =   7.97151747389258E-10  1.64716648666879E-02
 cg2d: Sum(rhs),rhsMax =   7.97215224390690E-10  1.64714065690926E-02
 cg2d: Sum(rhs),rhsMax =   7.97279728348421E-10  1.64711496300411E-02
 cg2d: Sum(rhs),rhsMax =   7.97329952062498E-10  1.64708940275920E-02
 cg2d: Sum(rhs),rhsMax =   7.97385033002307E-10  1.64706397271073E-02
 cg2d: Sum(rhs),rhsMax =   7.97446955691505E-10  1.64703866897020E-02
 cg2d: Sum(rhs),rhsMax =   7.97510127381607E-10  1.64701348656536E-02
 cg2d: Sum(rhs),rhsMax =   7.97574270516854E-10  1.64698841980714E-02
 cg2d: Sum(rhs),rhsMax =   7.97636345861719E-10  1.64696346182449E-02
 cg2d: Sum(rhs),rhsMax =   7.97689969633808E-10  1.64693860544047E-02
 cg2d: Sum(rhs),rhsMax =   7.97746813052669E-10  1.64691384223303E-02
 cg2d: Sum(rhs),rhsMax =   7.97806348762364E-10  1.64688916323689E-02
 cg2d: Sum(rhs),rhsMax =   7.97875959746008E-10  1.64686455854959E-02
 cg2d: Sum(rhs),rhsMax =   7.97920174377964E-10  1.64684001795594E-02
 cg2d: Sum(rhs),rhsMax =   7.97986288159080E-10  1.64681553019406E-02
 cg2d: Sum(rhs),rhsMax =   7.98048585548550E-10  1.64679108378815E-02
 cg2d: Sum(rhs),rhsMax =   7.98104762833596E-10  1.64676666624362E-02
 cg2d: Sum(rhs),rhsMax =   7.98158483750200E-10  1.64674226525375E-02
 cg2d: Sum(rhs),rhsMax =   7.98217422715020E-10  1.64671786772141E-02
 cg2d: Sum(rhs),rhsMax =   7.98272101198982E-10  1.64669346037003E-02
 cg2d: Sum(rhs),rhsMax =   7.98324309436715E-10  1.64666902970303E-02
 cg2d: Sum(rhs),rhsMax =   7.98378321786863E-10  1.64664456206341E-02
 cg2d: Sum(rhs),rhsMax =   7.98440327742789E-10  1.64662004368160E-02
 cg2d: Sum(rhs),rhsMax =   7.98499724674606E-10  1.64659546096029E-02
 cg2d: Sum(rhs),rhsMax =   7.98560370607326E-10  1.64657080043455E-02
 cg2d: Sum(rhs),rhsMax =   7.98608831842351E-10  1.64654604866703E-02
 cg2d: Sum(rhs),rhsMax =   7.98657986966766E-10  1.64652119265428E-02
 cg2d: Sum(rhs),rhsMax =   7.98705657167886E-10  1.64649621951259E-02
 cg2d: Sum(rhs),rhsMax =   7.98753660435914E-10  1.64647111596547E-02
 cg2d: Sum(rhs),rhsMax =   7.98811794489040E-10  1.64644587032292E-02
 cg2d: Sum(rhs),rhsMax =   7.98863419859686E-10  1.64642047356365E-02
 cg2d: Sum(rhs),rhsMax =   7.98920471445363E-10  1.64639491614219E-02
 cg2d: Sum(rhs),rhsMax =   7.98983934569009E-10  1.64636918800128E-02
 cg2d: Sum(rhs),rhsMax =   7.99038668564123E-10  1.64634327938146E-02
 cg2d: Sum(rhs),rhsMax =   7.99098662240816E-10  1.64631718230763E-02
 cg2d: Sum(rhs),rhsMax =   7.99135202456114E-10  1.64629088990430E-02
 cg2d: Sum(rhs),rhsMax =   7.99197499845583E-10  1.64626055767838E-02
 cg2d: Sum(rhs),rhsMax =   7.99265403861327E-10  1.64622741733157E-02
 cg2d: Sum(rhs),rhsMax =   7.99330310274904E-10  1.64619420955141E-02
 cg2d: Sum(rhs),rhsMax =   7.99387445127309E-10  1.64616099569612E-02
 cg2d: Sum(rhs),rhsMax =   7.99445704080526E-10  1.64612783786543E-02
 cg2d: Sum(rhs),rhsMax =   7.99500465831215E-10  1.64609480488381E-02
 cg2d: Sum(rhs),rhsMax =   7.99569327414318E-10  1.64606195947097E-02
 cg2d: Sum(rhs),rhsMax =   7.99619981339816E-10  1.64602936247341E-02
 cg2d: Sum(rhs),rhsMax =   7.99680738294839E-10  1.64599707219870E-02
 cg2d: Sum(rhs),rhsMax =   7.99733251843904E-10  1.64596514475623E-02
 cg2d: Sum(rhs),rhsMax =   7.99781976756897E-10  1.64593363373754E-02
 cg2d: Sum(rhs),rhsMax =   7.99844926402393E-10  1.64590258905390E-02
 cg2d: Sum(rhs),rhsMax =   7.99895372161075E-10  1.64587205742609E-02
 cg2d: Sum(rhs),rhsMax =   7.99940280682421E-10  1.64584208199461E-02
 cg2d: Sum(rhs),rhsMax =   7.99988242317085E-10  1.64581270051338E-02
 cg2d: Sum(rhs),rhsMax =   8.00045543702943E-10  1.64578394928342E-02
 cg2d: Sum(rhs),rhsMax =   8.00092644914763E-10  1.64575585917065E-02
 cg2d: Sum(rhs),rhsMax =   8.00130017797329E-10  1.64572845516944E-02
 cg2d: Sum(rhs),rhsMax =   8.00189706162691E-10  1.64570175771312E-02
 cg2d: Sum(rhs),rhsMax =   8.00239888243404E-10  1.64567578307346E-02
 cg2d: Sum(rhs),rhsMax =   8.00295815728269E-10  1.64565054261403E-02
 cg2d: Sum(rhs),rhsMax =   8.00359806207851E-10  1.64562604236284E-02
 cg2d: Sum(rhs),rhsMax =   8.00400704048521E-10  1.64560228337507E-02
 cg2d: Sum(rhs),rhsMax =   8.00461572025846E-10  1.64557926126589E-02
 cg2d: Sum(rhs),rhsMax =   8.00499472264349E-10  1.64555696706332E-02
 cg2d: Sum(rhs),rhsMax =   8.00564961545014E-10  1.64553538615350E-02
 cg2d: Sum(rhs),rhsMax =   8.00613936258188E-10  1.64551449967651E-02
 cg2d: Sum(rhs),rhsMax =   8.00658081501204E-10  1.64549428337441E-02
 cg2d: Sum(rhs),rhsMax =   8.00718019666746E-10  1.64547470809648E-02
 cg2d: Sum(rhs),rhsMax =   8.00769575648452E-10  1.64545574059537E-02
 cg2d: Sum(rhs),rhsMax =   8.00818494850475E-10  1.64543734255740E-02
 cg2d: Sum(rhs),rhsMax =   8.00875504802789E-10  1.64541947164162E-02
 cg2d: Sum(rhs),rhsMax =   8.00917804300028E-10  1.64540208131970E-02
 cg2d: Sum(rhs),rhsMax =   8.00976424075728E-10  1.64538512141288E-02
 cg2d: Sum(rhs),rhsMax =   8.01017793761183E-10  1.64536853824946E-02
 cg2d: Sum(rhs),rhsMax =   8.01056276866774E-10  1.64535227412517E-02
 cg2d: Sum(rhs),rhsMax =   8.01106139758367E-10  1.64533626894408E-02
 cg2d: Sum(rhs),rhsMax =   8.01154712015695E-10  1.64532045964309E-02
 cg2d: Sum(rhs),rhsMax =   8.01202063027695E-10  1.64530478110870E-02
 cg2d: Sum(rhs),rhsMax =   8.01239477543625E-10  1.64528916602548E-02
 cg2d: Sum(rhs),rhsMax =   8.01290048202397E-10  1.64527354532127E-02
 cg2d: Sum(rhs),rhsMax =   8.01345462209113E-10  1.64525784889788E-02
 cg2d: Sum(rhs),rhsMax =   8.01403804429057E-10  1.64524200544243E-02
 cg2d: Sum(rhs),rhsMax =   8.01462132771213E-10  1.64522594336097E-02
 cg2d: Sum(rhs),rhsMax =   8.01495148028408E-10  1.64520959048060E-02
 cg2d: Sum(rhs),rhsMax =   8.01554683738104E-10  1.64519287524630E-02
 cg2d: Sum(rhs),rhsMax =   8.01603727840217E-10  1.64517572619254E-02
 cg2d: Sum(rhs),rhsMax =   8.01657365490094E-10  1.64515807324191E-02
 cg2d: Sum(rhs),rhsMax =   8.01720134724349E-10  1.64513984737961E-02
 cg2d: Sum(rhs),rhsMax =   8.01767513491924E-10  1.64512098149449E-02
 cg2d: Sum(rhs),rhsMax =   8.01805968841940E-10  1.64510141017706E-02
 cg2d: Sum(rhs),rhsMax =   8.01862645727347E-10  1.64508107087428E-02
 cg2d: Sum(rhs),rhsMax =   8.01909358361108E-10  1.64505990333324E-02
 cg2d: Sum(rhs),rhsMax =   8.01960955976178E-10  1.64503785057375E-02
 cg2d: Sum(rhs),rhsMax =   8.02001465238789E-10  1.64501485931308E-02
 cg2d: Sum(rhs),rhsMax =   8.02057406601442E-10  1.64499087942376E-02
 cg2d: Sum(rhs),rhsMax =   8.02107255615248E-10  1.64496586511452E-02
 cg2d: Sum(rhs),rhsMax =   8.02171190583678E-10  1.64493977460541E-02
 cg2d: Sum(rhs),rhsMax =   8.02220817552879E-10  1.64491257079096E-02
 cg2d: Sum(rhs),rhsMax =   8.02281310829933E-10  1.64488422120425E-02
 cg2d: Sum(rhs),rhsMax =   8.02342831063285E-10  1.64485469815300E-02
 cg2d: Sum(rhs),rhsMax =   8.02411526112934E-10  1.64482397905297E-02
 cg2d: Sum(rhs),rhsMax =   8.02461375126740E-10  1.64479204669235E-02
 cg2d: Sum(rhs),rhsMax =   8.02539062982888E-10  1.64475888905358E-02
 cg2d: Sum(rhs),rhsMax =   8.02601957117233E-10  1.64472449988875E-02
 cg2d: Sum(rhs),rhsMax =   8.02654387399571E-10  1.64468887725662E-02
 cg2d: Sum(rhs),rhsMax =   8.02713173708725E-10  1.64465202631093E-02
 cg2d: Sum(rhs),rhsMax =   8.02756860984744E-10  1.64461395736659E-02
 cg2d: Sum(rhs),rhsMax =   8.02813926448209E-10  1.64457468600179E-02
 cg2d: Sum(rhs),rhsMax =   8.02872351934880E-10  1.64453423328921E-02
 cg2d: Sum(rhs),rhsMax =   8.02935412602679E-10  1.64449262649193E-02
 cg2d: Sum(rhs),rhsMax =   8.02990202108944E-10  1.64444989785511E-02
 cg2d: Sum(rhs),rhsMax =   8.03052943587623E-10  1.64440608472194E-02
 cg2d: Sum(rhs),rhsMax =   8.03118835324135E-10  1.64436122976962E-02
 cg2d: Sum(rhs),rhsMax =   8.03179356356765E-10  1.64431538054000E-02
 cg2d: Sum(rhs),rhsMax =   8.03246524849754E-10  1.64426858953262E-02
 cg2d: Sum(rhs),rhsMax =   8.03314581521164E-10  1.64422091352944E-02
 cg2d: Sum(rhs),rhsMax =   8.03384692105169E-10  1.64417241414882E-02
 cg2d: Sum(rhs),rhsMax =   8.03458508058519E-10  1.64412315670158E-02
 cg2d: Sum(rhs),rhsMax =   8.03537528182297E-10  1.64407321029751E-02
 cg2d: Sum(rhs),rhsMax =   8.03597785536958E-10  1.64402264794337E-02
 cg2d: Sum(rhs),rhsMax =   8.03674210514416E-10  1.64397154555844E-02
 cg2d: Sum(rhs),rhsMax =   8.03747665645282E-10  1.64391998264629E-02
 cg2d: Sum(rhs),rhsMax =   8.03810379368386E-10  1.64386804043328E-02
 cg2d: Sum(rhs),rhsMax =   8.03871302856862E-10  1.64381580290317E-02
 cg2d: Sum(rhs),rhsMax =   8.03939539939513E-10  1.64376335589855E-02
 cg2d: Sum(rhs),rhsMax =   8.03998395637606E-10  1.64371078676691E-02
 cg2d: Sum(rhs),rhsMax =   8.04063635118091E-10  1.64365818386099E-02
 cg2d: Sum(rhs),rhsMax =   8.04134134280154E-10  1.64360563637809E-02
 cg2d: Sum(rhs),rhsMax =   8.04199776216485E-10  1.64355323390462E-02
 cg2d: Sum(rhs),rhsMax =   8.04258770692456E-10  1.64350106601735E-02
 cg2d: Sum(rhs),rhsMax =   8.04321650949014E-10  1.64344922211804E-02
 cg2d: Sum(rhs),rhsMax =   8.04373720408869E-10  1.64339779033453E-02
 cg2d: Sum(rhs),rhsMax =   8.04441235846554E-10  1.64334685810063E-02
 cg2d: Sum(rhs),rhsMax =   8.04508584750785E-10  1.64329651107963E-02
(PID.TID 0000.0001)      cg2d_init_res =   1.02646991233217E-04
(PID.TID 0000.0001)      cg2d_iters(min,last) =      -1      39
(PID.TID 0000.0001)      cg2d_last_res =   6.18807830316353E-14
(PID.TID 0000.0001) // =======================================================
(PID.TID 0000.0001) // Begin MONITOR dynamic field statistics
(PID.TID 0000.0001) // =======================================================
(PID.TID 0000.0001) %MON time_tsnumber                =                 19008
(PID.TID 0000.0001) %MON time_secondsf                =   4.7520000000000E+05
(PID.TID 0000.0001) %MON dynstat_eta_max              =   5.1121676664337E-03
(PID.TID 0000.0001) %MON dynstat_eta_min              =  -2.5327001825721E-03
(PID.TID 0000.0001) %MON dynstat_eta_mean             =  -8.8534890641643E-14
(PID.TID 0000.0001) %MON dynstat_eta_sd               =   2.5921979715656E-03
(PID.TID 0000.0001) %MON dynstat_eta_del2             =   2.1499518668235E-05
(PID.TID 0000.0001) %MON dynstat_uvel_max             =   4.5465664982123E-02
(PID.TID 0000.0001) %MON dynstat_uvel_min             =  -4.1542962947338E-02
(PID.TID 0000.0001) %MON dynstat_uvel_mean            =   6.9764619283729E-09
(PID.TID 0000.0001) %MON dynstat_uvel_sd              =   6.4399456242252E-03
(PID.TID 0000.0001) %MON dynstat_uvel_del2            =   1.0205170326083E-04
(PID.TID 0000.0001) %MON dynstat_vvel_max             =   2.3046446420179E-02
(PID.TID 0000.0001) %MON dynstat_vvel_min             =  -3.2152137651630E-02
(PID.TID 0000.0001) %MON dynstat_vvel_mean            =  -8.0919744898992E-03
(PID.TID 0000.0001) %MON dynstat_vvel_sd              =   1.1507478560979E-02
(PID.TID 0000.0001) %MON dynstat_vvel_del2            =   9.1454636789556E-05
(PID.TID 0000.0001) %MON dynstat_wvel_max             =   1.4092745114986E-03
(PID.TID 0000.0001) %MON dynstat_wvel_min             =  -1.0849903125011E-03
(PID.TID 0000.0001) %MON dynstat_wvel_mean            =  -8.8832666063997E-21
(PID.TID 0000.0001) %MON dynstat_wvel_sd              =   1.2563492651033E-04
(PID.TID 0000.0001) %MON dynstat_wvel_del2            =   6.3704303830711E-06
(PID.TID 0000.0001) %MON dynstat_theta_max            =   2.6931451612903E+00
(PID.TID 0000.0001) %MON dynstat_theta_min            =  -5.9018160241924E-01
(PID.TID 0000.0001) %MON dynstat_theta_mean           =   2.2240723763682E+00
(PID.TID 0000.0001) %MON dynstat_theta_sd             =   5.1781306339436E-01
(PID.TID 0000.0001) %MON dynstat_theta_del2           =   1.5878373241322E-03
(PID.TID 0000.0001) %MON dynstat_salt_max             =   3.4699999999999E+01
(PID.TID 0000.0001) %MON dynstat_salt_min             =   3.3027016347093E+01
(PID.TID 0000.0001) %MON dynstat_salt_mean            =   3.4364123316682E+01
(PID.TID 0000.0001) %MON dynstat_salt_sd              =   3.2243248517152E-01
(PID.TID 0000.0001) %MON dynstat_salt_del2            =   1.9555075686946E-04
(PID.TID 0000.0001) %MON advcfl_uvel_max              =   2.2732832491061E-03
(PID.TID 0000.0001) %MON advcfl_vvel_max              =   1.6076068825815E-03
(PID.TID 0000.0001) %MON advcfl_wvel_max              =   6.6986842468536E-04
(PID.TID 0000.0001) %MON advcfl_W_hf_max              =   1.4022337417590E-03
(PID.TID 0000.0001) %MON pe_b_mean                    =   5.6063603058462E-08
(PID.TID 0000.0001) %MON ke_max                       =   9.5817117170819E-04
(PID.TID 0000.0001) %MON ke_mean                      =   1.0972617095365E-04
(PID.TID 0000.0001) %MON ke_vol                       =   3.2921708585402E+10
(PID.TID 0000.0001) // =======================================================
(PID.TID 0000.0001) // End MONITOR dynamic field statistics
(PID.TID 0000.0001) // =======================================================
(PID.TID 0000.0001) // =======================================================
(PID.TID 0000.0001) // Begin OBCS MONITOR field statistics
(PID.TID 0000.0001) // =======================================================
(PID.TID 0000.0001) %MON obc_E_uVel_max               =   0.0000000000000E+00
(PID.TID 0000.0001) %MON obc_E_uVel_min               =   0.0000000000000E+00
(PID.TID 0000.0001) %MON obc_E_uVel_mean              =   0.0000000000000E+00
(PID.TID 0000.0001) %MON obc_E_uVel_sd                =   0.0000000000000E+00
(PID.TID 0000.0001) %MON obc_E_uVel_Int               =   0.0000000000000E+00
(PID.TID 0000.0001) %MON obc_N_vVel_max               =  -3.6115799844846E-05
(PID.TID 0000.0001) %MON obc_N_vVel_min               =  -3.0000000000000E-02
(PID.TID 0000.0001) %MON obc_N_vVel_mean              =  -1.3225455303334E-02
(PID.TID 0000.0001) %MON obc_N_vVel_sd                =   1.1350864292742E-02
(PID.TID 0000.0001) %MON obc_N_vVel_Int               =  -5.9514548865004E+04
(PID.TID 0000.0001) %MON obc_S_vVel_max               =  -3.6115799844846E-05
(PID.TID 0000.0001) %MON obc_S_vVel_min               =  -3.0000000000000E-02
(PID.TID 0000.0001) %MON obc_S_vVel_mean              =  -1.3225455303334E-02
(PID.TID 0000.0001) %MON obc_S_vVel_sd                =   1.1350864292742E-02
(PID.TID 0000.0001) %MON obc_S_vVel_Int               =  -5.9514548865004E+04
(PID.TID 0000.0001) // =======================================================
(PID.TID 0000.0001) // End OBCS MONITOR field statistics
(PID.TID 0000.0001) // =======================================================
 Computing Diagnostic #    26 "THETA   " (list#  1) Parms "SMR     MR      ", Count=     144
 Computing Diagnostic #    27 "SALT    " (list#  1) Parms "SMR     MR      ", Count=     144
 Computing Diagnostic #    30 "UVEL    " (list#  1) Parms "UUR     MR      ", Count=     144
             Vector  Mate for "UVEL    " :  Diagnostic #     31 "VVEL    " exists
 Computing Diagnostic #    32 "WVEL    " (list#  1) Parms "WM      LR      ", Count=     144
 Computing Diagnostic #    31 "VVEL    " (list#  1) Parms "VVR     MR      ", Count=     144
             Vector  Mate for "VVEL    " :  Diagnostic #     30 "UVEL    " exists
 Computing Diagnostic #   197 "BRGfwFlx" (list#  2) Parms "SM      MR      ", Count=     144
 Computing Diagnostic #   198 "BRGhtFlx" (list#  2) Parms "SM      MR      ", Count=     144
 Computing Diagnostic #   199 "BRGmltRt" (list#  2) Parms "SM      MR      ", Count=     144
 Computing Diagnostic #   201 "BRG_TauX" (list#  2) Parms "UU      MR      ", Count=    1728
 Computing Diagnostic #   202 "BRG_TauY" (list#  2) Parms "VV      MR      ", Count=    1728
 Computing Diagnostic #   203 "BRGhFacC" (list#  2) Parms "SM      MR      ", Count=    1728
 cg2d: Sum(rhs),rhsMax =   8.04582234170681E-10  1.64324683319770E-02
 cg2d: Sum(rhs),rhsMax =   8.04648292440646E-10  1.64319790592678E-02
 cg2d: Sum(rhs),rhsMax =   8.04700570067318E-10  1.64314980828941E-02
 cg2d: Sum(rhs),rhsMax =   8.04767044670918E-10  1.64310261651009E-02
 cg2d: Sum(rhs),rhsMax =   8.04829064504631E-10  1.64305640325030E-02
 cg2d: Sum(rhs),rhsMax =   8.04893859895905E-10  1.64301123768364E-02
 cg2d: Sum(rhs),rhsMax =   8.04955185840228E-10  1.64296718526117E-02
 cg2d: Sum(rhs),rhsMax =   8.05015817895161E-10  1.64292430702696E-02
 cg2d: Sum(rhs),rhsMax =   8.05088593014425E-10  1.64288265992787E-02
 cg2d: Sum(rhs),rhsMax =   8.05141536774912E-10  1.64284229589201E-02
 cg2d: Sum(rhs),rhsMax =   8.05199920628219E-10  1.64280326249196E-02
 cg2d: Sum(rhs),rhsMax =   8.05267963421841E-10  1.64276560180723E-02
 cg2d: Sum(rhs),rhsMax =   8.05327929342958E-10  1.64272935082635E-02
 cg2d: Sum(rhs),rhsMax =   8.05386923818929E-10  1.64269454121184E-02
 cg2d: Sum(rhs),rhsMax =   8.05452302077292E-10  1.64266119918532E-02
 cg2d: Sum(rhs),rhsMax =   8.05522495928024E-10  1.64262934511733E-02
 cg2d: Sum(rhs),rhsMax =   8.05587554997267E-10  1.64259899417932E-02
 cg2d: Sum(rhs),rhsMax =   8.05641289791659E-10  1.64257015539070E-02
 cg2d: Sum(rhs),rhsMax =   8.05699076900090E-10  1.64254283187659E-02
 cg2d: Sum(rhs),rhsMax =   8.05756183996920E-10  1.64251702172225E-02
 cg2d: Sum(rhs),rhsMax =   8.05811500859122E-10  1.64249271662712E-02
 cg2d: Sum(rhs),rhsMax =   8.05849525997715E-10  1.64246990298654E-02
 cg2d: Sum(rhs),rhsMax =   8.05904010192648E-10  1.64244856128181E-02
 cg2d: Sum(rhs),rhsMax =   8.05961006267175E-10  1.64242866674655E-02
 cg2d: Sum(rhs),rhsMax =   8.06009703424593E-10  1.64241018932595E-02
 cg2d: Sum(rhs),rhsMax =   8.06045716283954E-10  1.64239309332815E-02
 cg2d: Sum(rhs),rhsMax =   8.06099853534192E-10  1.64237733819270E-02
 cg2d: Sum(rhs),rhsMax =   8.06151659316079E-10  1.64236287866988E-02
 cg2d: Sum(rhs),rhsMax =   8.06195429858825E-10  1.64234966441192E-02
 cg2d: Sum(rhs),rhsMax =   8.06245376017145E-10  1.64233764091183E-02
 cg2d: Sum(rhs),rhsMax =   8.06287023258356E-10  1.64232674962119E-02
 cg2d: Sum(rhs),rhsMax =   8.06323979807289E-10  1.64231692733248E-02
 cg2d: Sum(rhs),rhsMax =   8.06378366857707E-10  1.64230810806021E-02
 cg2d: Sum(rhs),rhsMax =   8.06425856647586E-10  1.64230022184194E-02
 cg2d: Sum(rhs),rhsMax =   8.06478717141346E-10  1.64229319548580E-02
 cg2d: Sum(rhs),rhsMax =   8.06508124173710E-10  1.64228695375578E-02
 cg2d: Sum(rhs),rhsMax =   8.06569130928914E-10  1.64228141846763E-02
 cg2d: Sum(rhs),rhsMax =   8.06620506499378E-10  1.64227650928881E-02
 cg2d: Sum(rhs),rhsMax =   8.06664901542575E-10  1.64227214411200E-02
 cg2d: Sum(rhs),rhsMax =   8.06705632849791E-10  1.64226823974834E-02
 cg2d: Sum(rhs),rhsMax =   8.06755412474658E-10  1.64226471147268E-02
 cg2d: Sum(rhs),rhsMax =   8.06784444806752E-10  1.64226147402938E-02
 cg2d: Sum(rhs),rhsMax =   8.06833488908865E-10  1.64225844182691E-02
 cg2d: Sum(rhs),rhsMax =   8.06883962423122E-10  1.64225552913281E-02
 cg2d: Sum(rhs),rhsMax =   8.06936031882977E-10  1.64225265036189E-02
 cg2d: Sum(rhs),rhsMax =   8.06982952683555E-10  1.64224972078367E-02
 cg2d: Sum(rhs),rhsMax =   8.07028444071989E-10  1.64224665659783E-02
 cg2d: Sum(rhs),rhsMax =   8.07073533004576E-10  1.64224337486484E-02
 cg2d: Sum(rhs),rhsMax =   8.07105896005744E-10  1.64223979455082E-02
 cg2d: Sum(rhs),rhsMax =   8.07148861636797E-10  1.64223583642431E-02
 cg2d: Sum(rhs),rhsMax =   8.07203956454394E-10  1.64223142353654E-02
 cg2d: Sum(rhs),rhsMax =   8.07251029910638E-10  1.64222648169523E-02
 cg2d: Sum(rhs),rhsMax =   8.07287292570180E-10  1.64222093921558E-02
 cg2d: Sum(rhs),rhsMax =   8.07323791152115E-10  1.64221472733456E-02
 cg2d: Sum(rhs),rhsMax =   8.07363384480730E-10  1.64220778100979E-02
 cg2d: Sum(rhs),rhsMax =   8.07409528125191E-10  1.64220003842792E-02
 cg2d: Sum(rhs),rhsMax =   8.07453617857057E-10  1.64219144167317E-02
 cg2d: Sum(rhs),rhsMax =   8.07499900279396E-10  1.64218193649768E-02
 cg2d: Sum(rhs),rhsMax =   8.07544628389500E-10  1.64217147305385E-02
 cg2d: Sum(rhs),rhsMax =   8.07598682373012E-10  1.64216000550632E-02
 cg2d: Sum(rhs),rhsMax =   8.07651681644650E-10  1.64214749227854E-02
 cg2d: Sum(rhs),rhsMax =   8.07697644877869E-10  1.64213389710892E-02
 cg2d: Sum(rhs),rhsMax =   8.07747757569643E-10  1.64211918657686E-02
 cg2d: Sum(rhs),rhsMax =   8.07789321544128E-10  1.64210333346202E-02
 cg2d: Sum(rhs),rhsMax =   8.07839128924570E-10  1.64208631506716E-02
 cg2d: Sum(rhs),rhsMax =   8.07888492215803E-10  1.64206811283558E-02
 cg2d: Sum(rhs),rhsMax =   8.07937342028886E-10  1.64204871300764E-02
 cg2d: Sum(rhs),rhsMax =   8.07985844897274E-10  1.64202810671283E-02
 cg2d: Sum(rhs),rhsMax =   8.08038344568551E-10  1.64200628956928E-02
 cg2d: Sum(rhs),rhsMax =   8.08091621395945E-10  1.64198326210813E-02
 cg2d: Sum(rhs),rhsMax =   8.08142872066320E-10  1.64195902897092E-02
 cg2d: Sum(rhs),rhsMax =   8.08197828106039E-10  1.64193359955090E-02
 cg2d: Sum(rhs),rhsMax =   8.08254171924538E-10  1.64190698718018E-02
 cg2d: Sum(rhs),rhsMax =   8.08307545896447E-10  1.64187920970656E-02
 cg2d: Sum(rhs),rhsMax =   8.08358643911156E-10  1.64185028890236E-02
 cg2d: Sum(rhs),rhsMax =   8.08412517483426E-10  1.64182025016480E-02
 cg2d: Sum(rhs),rhsMax =   8.08456981915562E-10  1.64178912307673E-02
 cg2d: Sum(rhs),rhsMax =   8.08508815453024E-10  1.64175694022886E-02
 cg2d: Sum(rhs),rhsMax =   8.08581548938925E-10  1.64172373775680E-02
 cg2d: Sum(rhs),rhsMax =   8.08639766258779E-10  1.64168955466505E-02
 cg2d: Sum(rhs),rhsMax =   8.08696179466217E-10  1.64165443302610E-02
 cg2d: Sum(rhs),rhsMax =   8.08748429337314E-10  1.64161841742615E-02
 cg2d: Sum(rhs),rhsMax =   8.08796085660646E-10  1.64158155472775E-02
 cg2d: Sum(rhs),rhsMax =   8.08860950440859E-10  1.64154389413063E-02
 cg2d: Sum(rhs),rhsMax =   8.08922706596604E-10  1.64150548645119E-02
 cg2d: Sum(rhs),rhsMax =   8.08992636769368E-10  1.64146638422266E-02
 cg2d: Sum(rhs),rhsMax =   8.09049507943804E-10  1.64142664122612E-02
 cg2d: Sum(rhs),rhsMax =   8.09117481348487E-10  1.64138631261999E-02
 cg2d: Sum(rhs),rhsMax =   8.09183969829874E-10  1.64134545385371E-02
 cg2d: Sum(rhs),rhsMax =   8.09249015021329E-10  1.64130412128860E-02
 cg2d: Sum(rhs),rhsMax =   8.09320194194996E-10  1.64126237158555E-02
 cg2d: Sum(rhs),rhsMax =   8.09365532927764E-10  1.64122026112901E-02
 cg2d: Sum(rhs),rhsMax =   8.09431244253034E-10  1.64117784626278E-02
 cg2d: Sum(rhs),rhsMax =   8.09483952091128E-10  1.64113518284356E-02
 cg2d: Sum(rhs),rhsMax =   8.09542377577799E-10  1.64109232637566E-02
 cg2d: Sum(rhs),rhsMax =   8.09596389927947E-10  1.64104933085132E-02
 cg2d: Sum(rhs),rhsMax =   8.09647668353897E-10  1.64100624923030E-02
 cg2d: Sum(rhs),rhsMax =   8.09704997495331E-10  1.64096314200205E-02
 cg2d: Sum(rhs),rhsMax =   8.09779687749312E-10  1.64092006513752E-02
 cg2d: Sum(rhs),rhsMax =   8.09831701698016E-10  1.64087706759661E-02
 cg2d: Sum(rhs),rhsMax =   8.09894595832361E-10  1.64083419489712E-02
 cg2d: Sum(rhs),rhsMax =   8.09951092306527E-10  1.64079149115052E-02
 cg2d: Sum(rhs),rhsMax =   8.10022229846830E-10  1.64074899769517E-02
 cg2d: Sum(rhs),rhsMax =   8.10083028435216E-10  1.64070675366117E-02
 cg2d: Sum(rhs),rhsMax =   8.10131281503423E-10  1.64066479515441E-02
 cg2d: Sum(rhs),rhsMax =   8.10198311218535E-10  1.64062315613278E-02
 cg2d: Sum(rhs),rhsMax =   8.10262287820329E-10  1.64058186725058E-02
 cg2d: Sum(rhs),rhsMax =   8.10329872646953E-10  1.64054095642632E-02
 cg2d: Sum(rhs),rhsMax =   8.10379111038095E-10  1.64050044850335E-02
 cg2d: Sum(rhs),rhsMax =   8.10441574961018E-10  1.64046036528666E-02
 cg2d: Sum(rhs),rhsMax =   8.10502290282678E-10  1.64042072580964E-02
 cg2d: Sum(rhs),rhsMax =   8.10558078989665E-10  1.64038154570391E-02
 cg2d: Sum(rhs),rhsMax =   8.10642705739717E-10  1.64034283772013E-02
 cg2d: Sum(rhs),rhsMax =   8.10703337794649E-10  1.64030461158987E-02
 cg2d: Sum(rhs),rhsMax =   8.10759973046693E-10  1.64026687395885E-02
 cg2d: Sum(rhs),rhsMax =   8.10811778828580E-10  1.64022962837323E-02
 cg2d: Sum(rhs),rhsMax =   8.10878003631998E-10  1.64019287568323E-02
 cg2d: Sum(rhs),rhsMax =   8.10929642880431E-10  1.64015661393030E-02
 cg2d: Sum(rhs),rhsMax =   8.10986874877351E-10  1.64012083833224E-02
 cg2d: Sum(rhs),rhsMax =   8.11039208015174E-10  1.64008554126175E-02
 cg2d: Sum(rhs),rhsMax =   8.11110706377960E-10  1.64005071296820E-02
 cg2d: Sum(rhs),rhsMax =   8.11166175895828E-10  1.64001634093025E-02
 cg2d: Sum(rhs),rhsMax =   8.11240394305024E-10  1.63998241059571E-02
 cg2d: Sum(rhs),rhsMax =   8.11286454682758E-10  1.63994890499315E-02
 cg2d: Sum(rhs),rhsMax =   8.11351749674394E-10  1.63991580612967E-02
 cg2d: Sum(rhs),rhsMax =   8.11410369450094E-10  1.63988309365239E-02
 cg2d: Sum(rhs),rhsMax =   8.11472652961776E-10  1.63985074528680E-02
 cg2d: Sum(rhs),rhsMax =   8.11524694666055E-10  1.63981873727229E-02
 cg2d: Sum(rhs),rhsMax =   8.11566938652142E-10  1.63978704478018E-02
 cg2d: Sum(rhs),rhsMax =   8.11627084984501E-10  1.63975564169645E-02
 cg2d: Sum(rhs),rhsMax =   8.11674741307833E-10  1.63972450092178E-02
 cg2d: Sum(rhs),rhsMax =   8.11724493177124E-10  1.63969359458207E-02
 cg2d: Sum(rhs),rhsMax =   8.11783015808309E-10  1.63966289396331E-02
 cg2d: Sum(rhs),rhsMax =   8.11846562198681E-10  1.63963237019733E-02
 cg2d: Sum(rhs),rhsMax =   8.11904293795962E-10  1.63960199392724E-02
 cg2d: Sum(rhs),rhsMax =   8.11970615743896E-10  1.63957173574353E-02
 cg2d: Sum(rhs),rhsMax =   8.12026682006639E-10  1.63954156627412E-02
 cg2d: Sum(rhs),rhsMax =   8.12080402923243E-10  1.63951145659269E-02
 cg2d: Sum(rhs),rhsMax =   8.12132805450005E-10  1.63948137782157E-02
 cg2d: Sum(rhs),rhsMax =   8.12193368115999E-10  1.63945130195371E-02
 cg2d: Sum(rhs),rhsMax =   8.12245104508946E-10  1.63942120156062E-02
 cg2d: Sum(rhs),rhsMax =   8.12314659981439E-10  1.63939105023800E-02
 cg2d: Sum(rhs),rhsMax =   8.12374403857952E-10  1.63936082227812E-02
 cg2d: Sum(rhs),rhsMax =   8.12424377771848E-10  1.63933049330830E-02
 Computing Diagnostic #    26 "THETA   " (list#  1) Parms "SMR     MR      ", Count=     144
 Computing Diagnostic #    27 "SALT    " (list#  1) Parms "SMR     MR      ", Count=     144
 Computing Diagnostic #    30 "UVEL    " (list#  1) Parms "UUR     MR      ", Count=     144
             Vector  Mate for "UVEL    " :  Diagnostic #     31 "VVEL    " exists
 Computing Diagnostic #    32 "WVEL    " (list#  1) Parms "WM      LR      ", Count=     144
 Computing Diagnostic #    31 "VVEL    " (list#  1) Parms "VVR     MR      ", Count=     144
             Vector  Mate for "VVEL    " :  Diagnostic #     30 "UVEL    " exists
 Computing Diagnostic #   197 "BRGfwFlx" (list#  2) Parms "SM      MR      ", Count=     144
 Computing Diagnostic #   198 "BRGhtFlx" (list#  2) Parms "SM      MR      ", Count=     144
 Computing Diagnostic #   199 "BRGmltRt" (list#  2) Parms "SM      MR      ", Count=     144
 Computing Diagnostic #   201 "BRG_TauX" (list#  2) Parms "UU      MR      ", Count=    1728
 Computing Diagnostic #   202 "BRG_TauY" (list#  2) Parms "VV      MR      ", Count=    1728
 Computing Diagnostic #   203 "BRGhFacC" (list#  2) Parms "SM      MR      ", Count=    1728
 cg2d: Sum(rhs),rhsMax =   8.12476627642944E-10  1.63930004027083E-02
 cg2d: Sum(rhs),rhsMax =   8.12534789451647E-10  1.63926944136748E-02
 cg2d: Sum(rhs),rhsMax =   8.12593825560981E-10  1.63923867618549E-02
 cg2d: Sum(rhs),rhsMax =   8.12640094105532E-10  1.63920772619458E-02
 cg2d: Sum(rhs),rhsMax =   8.12704140096265E-10  1.63917657422206E-02
 cg2d: Sum(rhs),rhsMax =   8.12753517265286E-10  1.63914520489228E-02
 cg2d: Sum(rhs),rhsMax =   8.12806155714441E-10  1.63911360468749E-02
 cg2d: Sum(rhs),rhsMax =   8.12873823807791E-10  1.63908176194088E-02
 cg2d: Sum(rhs),rhsMax =   8.12933623195455E-10  1.63904966666835E-02
 cg2d: Sum(rhs),rhsMax =   8.12997363874857E-10  1.63901731107816E-02
 cg2d: Sum(rhs),rhsMax =   8.13067210780893E-10  1.63898468908952E-02
 cg2d: Sum(rhs),rhsMax =   8.13114825470862E-10  1.63895179666742E-02
 cg2d: Sum(rhs),rhsMax =   8.13179398817532E-10  1.63891863146471E-02
 cg2d: Sum(rhs),rhsMax =   8.13238879016076E-10  1.63888519358645E-02
 cg2d: Sum(rhs),rhsMax =   8.13288936196699E-10  1.63885148444130E-02
 cg2d: Sum(rhs),rhsMax =   8.13350067851992E-10  1.63881750779906E-02
 cg2d: Sum(rhs),rhsMax =   8.13417513900738E-10  1.63878326868881E-02
 cg2d: Sum(rhs),rhsMax =   8.13477549210795E-10  1.63874877481851E-02
 cg2d: Sum(rhs),rhsMax =   8.13544481781392E-10  1.63871403503937E-02
 cg2d: Sum(rhs),rhsMax =   8.13608014293976E-10  1.63867906029932E-02
 cg2d: Sum(rhs),rhsMax =   8.13666994892159E-10  1.63864386302177E-02
 cg2d: Sum(rhs),rhsMax =   8.13714040592828E-10  1.63860845693245E-02
 cg2d: Sum(rhs),rhsMax =   8.13777462083110E-10  1.63857285711847E-02
 cg2d: Sum(rhs),rhsMax =   8.13832598534070E-10  1.63853708003386E-02
 cg2d: Sum(rhs),rhsMax =   8.13886555373067E-10  1.63850114340161E-02
 cg2d: Sum(rhs),rhsMax =   8.13941622435088E-10  1.63846506588578E-02
 cg2d: Sum(rhs),rhsMax =   8.13993650261580E-10  1.63842886715539E-02
 cg2d: Sum(rhs),rhsMax =   8.14043263352993E-10  1.63839256760323E-02
 cg2d: Sum(rhs),rhsMax =   8.14107101176909E-10  1.63835618839817E-02
 cg2d: Sum(rhs),rhsMax =   8.14170245111434E-10  1.63831975150148E-02
 cg2d: Sum(rhs),rhsMax =   8.14229780821130E-10  1.63828327905595E-02
 cg2d: Sum(rhs),rhsMax =   8.14275383231866E-10  1.63824679375601E-02
 cg2d: Sum(rhs),rhsMax =   8.14330894383097E-10  1.63821031848777E-02
 cg2d: Sum(rhs),rhsMax =   8.14378078861644E-10  1.63817387626024E-02
 cg2d: Sum(rhs),rhsMax =   8.14427650319693E-10  1.63813749012728E-02
 cg2d: Sum(rhs),rhsMax =   8.14479719779548E-10  1.63810118286704E-02
 cg2d: Sum(rhs),rhsMax =   8.14545819682877E-10  1.63806497727704E-02
 cg2d: Sum(rhs),rhsMax =   8.14589812270228E-10  1.63802889562895E-02
 cg2d: Sum(rhs),rhsMax =   8.14643907887103E-10  1.63799295965290E-02
 cg2d: Sum(rhs),rhsMax =   8.14714393171379E-10  1.63795719098488E-02
 cg2d: Sum(rhs),rhsMax =   8.14792969205946E-10  1.63792161006647E-02
 cg2d: Sum(rhs),rhsMax =   8.14866923937174E-10  1.63788623690145E-02
 cg2d: Sum(rhs),rhsMax =   8.14922809788676E-10  1.63785109416940E-02
 cg2d: Sum(rhs),rhsMax =   8.14985051666994E-10  1.63781618859323E-02
 cg2d: Sum(rhs),rhsMax =   8.15049513991362E-10  1.63778155009097E-02
 cg2d: Sum(rhs),rhsMax =   8.15111200758167E-10  1.63774719032124E-02
 cg2d: Sum(rhs),rhsMax =   8.15160897116307E-10  1.63771312385984E-02
 cg2d: Sum(rhs),rhsMax =   8.15207040760768E-10  1.63767936483787E-02
 cg2d: Sum(rhs),rhsMax =   8.15258152653264E-10  1.63764592594948E-02
 cg2d: Sum(rhs),rhsMax =   8.15305004064903E-10  1.63761281857747E-02
 cg2d: Sum(rhs),rhsMax =   8.15362555250942E-10  1.63758005303883E-02
 cg2d: Sum(rhs),rhsMax =   8.15419246014137E-10  1.63754763809120E-02
 cg2d: Sum(rhs),rhsMax =   8.15474091031554E-10  1.63751558094911E-02
 cg2d: Sum(rhs),rhsMax =   8.15530365461115E-10  1.63748388797067E-02
 cg2d: Sum(rhs),rhsMax =   8.15588541147605E-10  1.63745256380927E-02
 cg2d: Sum(rhs),rhsMax =   8.15652601016126E-10  1.63742161205325E-02
 cg2d: Sum(rhs),rhsMax =   8.15715009427898E-10  1.63739103463279E-02
 cg2d: Sum(rhs),rhsMax =   8.15756018290870E-10  1.63736083237848E-02
 cg2d: Sum(rhs),rhsMax =   8.15817594035373E-10  1.63733100466045E-02
 cg2d: Sum(rhs),rhsMax =   8.15863709924258E-10  1.63730154961424E-02
 cg2d: Sum(rhs),rhsMax =   8.15927728159416E-10  1.63727246449943E-02
 cg2d: Sum(rhs),rhsMax =   8.15982878488164E-10  1.63724374462969E-02
 cg2d: Sum(rhs),rhsMax =   8.16051518026661E-10  1.63721538470671E-02
 cg2d: Sum(rhs),rhsMax =   8.16110082291210E-10  1.63718737878578E-02
 cg2d: Sum(rhs),rhsMax =   8.16163692185512E-10  1.63715971775717E-02
 cg2d: Sum(rhs),rhsMax =   8.16224587918413E-10  1.63713239411346E-02
 cg2d: Sum(rhs),rhsMax =   8.16275907977726E-10  1.63710539832744E-02
 cg2d: Sum(rhs),rhsMax =   8.16336359621417E-10  1.63707872001605E-02
 cg2d: Sum(rhs),rhsMax =   8.16386250268586E-10  1.63705234782057E-02
 cg2d: Sum(rhs),rhsMax =   8.16437029094175E-10  1.63702626958701E-02
 cg2d: Sum(rhs),rhsMax =   8.16492193300711E-10  1.63700047317630E-02
 cg2d: Sum(rhs),rhsMax =   8.16547551796276E-10  1.63697494532040E-02
 cg2d: Sum(rhs),rhsMax =   8.16609793674594E-10  1.63694967229317E-02
 cg2d: Sum(rhs),rhsMax =   8.16657255708897E-10  1.63692464005211E-02
 cg2d: Sum(rhs),rhsMax =   8.16692186100809E-10  1.63689983413256E-02
 cg2d: Sum(rhs),rhsMax =   8.16749348708790E-10  1.63687523985783E-02
 cg2d: Sum(rhs),rhsMax =   8.16800724279254E-10  1.63685084238526E-02
 cg2d: Sum(rhs),rhsMax =   8.16856832175361E-10  1.63682662640184E-02
 cg2d: Sum(rhs),rhsMax =   8.16919254464921E-10  1.63680257702948E-02
 cg2d: Sum(rhs),rhsMax =   8.16965578520623E-10  1.63677867900111E-02
 cg2d: Sum(rhs),rhsMax =   8.17024087274021E-10  1.63675491725431E-02
 cg2d: Sum(rhs),rhsMax =   8.17077308590264E-10  1.63673127704685E-02
 cg2d: Sum(rhs),rhsMax =   8.17117276619150E-10  1.63670774364223E-02
 cg2d: Sum(rhs),rhsMax =   8.17171830203023E-10  1.63668430264817E-02
 cg2d: Sum(rhs),rhsMax =   8.17223760885000E-10  1.63666094009162E-02
 cg2d: Sum(rhs),rhsMax =   8.17283976606298E-10  1.63663764231587E-02
 cg2d: Sum(rhs),rhsMax =   8.17342776793240E-10  1.63661439595450E-02
 cg2d: Sum(rhs),rhsMax =   8.17386977547407E-10  1.63659118847999E-02
 cg2d: Sum(rhs),rhsMax =   8.17434883670920E-10  1.63656800746723E-02
 cg2d: Sum(rhs),rhsMax =   8.17478321146758E-10  1.63654484151436E-02
 cg2d: Sum(rhs),rhsMax =   8.17534803743136E-10  1.63652167935069E-02
 cg2d: Sum(rhs),rhsMax =   8.17575313005747E-10  1.63649851081788E-02
 cg2d: Sum(rhs),rhsMax =   8.17630935179281E-10  1.63647532588547E-02
 cg2d: Sum(rhs),rhsMax =   8.17689194132498E-10  1.63645211586121E-02
 cg2d: Sum(rhs),rhsMax =   8.17738973757365E-10  1.63642887214487E-02
 cg2d: Sum(rhs),rhsMax =   8.17786519058394E-10  1.63640558716500E-02
 cg2d: Sum(rhs),rhsMax =   8.17839115874186E-10  1.63638225392633E-02
 cg2d: Sum(rhs),rhsMax =   8.17891698812190E-10  1.63635886631592E-02
 cg2d: Sum(rhs),rhsMax =   8.17936607333536E-10  1.63633541865121E-02
 cg2d: Sum(rhs),rhsMax =   8.17991938073526E-10  1.63631190649268E-02
 cg2d: Sum(rhs),rhsMax =   8.18052417472792E-10  1.63628832553795E-02
 cg2d: Sum(rhs),rhsMax =   8.18098616628404E-10  1.63626467230879E-02
 cg2d: Sum(rhs),rhsMax =   8.18148646053452E-10  1.63624094438435E-02
 cg2d: Sum(rhs),rhsMax =   8.18193915397281E-10  1.63621713954390E-02
 cg2d: Sum(rhs),rhsMax =   8.18243139910635E-10  1.63619325671641E-02
 cg2d: Sum(rhs),rhsMax =   8.18300760485613E-10  1.63616929467835E-02
 cg2d: Sum(rhs),rhsMax =   8.18353496079283E-10  1.63614525197128E-02
 cg2d: Sum(rhs),rhsMax =   8.18407272507038E-10  1.63612113078525E-02
 cg2d: Sum(rhs),rhsMax =   8.18455234141702E-10  1.63609693200731E-02
 cg2d: Sum(rhs),rhsMax =   8.18505208055598E-10  1.63607265672475E-02
 cg2d: Sum(rhs),rhsMax =   8.18563536397754E-10  1.63604830678446E-02
 cg2d: Sum(rhs),rhsMax =   8.18615494835306E-10  1.63602388506315E-02
 cg2d: Sum(rhs),rhsMax =   8.18661666235343E-10  1.63599939502679E-02
 cg2d: Sum(rhs),rhsMax =   8.18730791496414E-10  1.63597483849700E-02
 cg2d: Sum(rhs),rhsMax =   8.18787204703852E-10  1.63595021843368E-02
 cg2d: Sum(rhs),rhsMax =   8.18844492211923E-10  1.63592553938027E-02
 cg2d: Sum(rhs),rhsMax =   8.18899364984915E-10  1.63590080167709E-02
 cg2d: Sum(rhs),rhsMax =   8.18946674363552E-10  1.63587600856891E-02
 cg2d: Sum(rhs),rhsMax =   8.19009873809229E-10  1.63585116348550E-02
 cg2d: Sum(rhs),rhsMax =   8.19059362000552E-10  1.63582627002784E-02
 cg2d: Sum(rhs),rhsMax =   8.19101175775216E-10  1.63580133142437E-02
 cg2d: Sum(rhs),rhsMax =   8.19163389897959E-10  1.63577635116746E-02
 cg2d: Sum(rhs),rhsMax =   8.19206188995558E-10  1.63575133264043E-02
 cg2d: Sum(rhs),rhsMax =   8.19264572848866E-10  1.63572627926784E-02
 cg2d: Sum(rhs),rhsMax =   8.19322221179419E-10  1.63570119462610E-02
 cg2d: Sum(rhs),rhsMax =   8.19375706173631E-10  1.63567608198780E-02
 cg2d: Sum(rhs),rhsMax =   8.19422807385450E-10  1.63565094472749E-02
 cg2d: Sum(rhs),rhsMax =   8.19483564340473E-10  1.63562578599176E-02
 cg2d: Sum(rhs),rhsMax =   8.19524170747599E-10  1.63560060881852E-02
 cg2d: Sum(rhs),rhsMax =   8.19570578070028E-10  1.63557541627537E-02
 cg2d: Sum(rhs),rhsMax =   8.19627102299769E-10  1.63555021109500E-02
 cg2d: Sum(rhs),rhsMax =   8.19674758623101E-10  1.63552499587152E-02
 cg2d: Sum(rhs),rhsMax =   8.19743176116994E-10  1.63549977288345E-02
 cg2d: Sum(rhs),rhsMax =   8.19796883155810E-10  1.63547454458091E-02
 cg2d: Sum(rhs),rhsMax =   8.19857293166137E-10  1.63544931302713E-02
 cg2d: Sum(rhs),rhsMax =   8.19904796833804E-10  1.63542407981739E-02
 cg2d: Sum(rhs),rhsMax =   8.19957254871717E-10  1.63539884675815E-02
 cg2d: Sum(rhs),rhsMax =   8.20003245860512E-10  1.63537361526052E-02
 cg2d: Sum(rhs),rhsMax =   8.20067583284789E-10  1.63534838652621E-02
 cg2d: Sum(rhs),rhsMax =   8.20131393353130E-10  1.63532316142986E-02
 cg2d: Sum(rhs),rhsMax =   8.20198339801514E-10  1.63529794074224E-02
 cg2d: Sum(rhs),rhsMax =   8.20256126909946E-10  1.63527272510498E-02
 cg2d: Sum(rhs),rhsMax =   8.20309056792645E-10  1.63524751478191E-02
 cg2d: Sum(rhs),rhsMax =   8.20369883136607E-10  1.63522230997039E-02
 Computing Diagnostic #    26 "THETA   " (list#  1) Parms "SMR     MR      ", Count=     144
 Computing Diagnostic #    27 "SALT    " (list#  1) Parms "SMR     MR      ", Count=     144
 Computing Diagnostic #    30 "UVEL    " (list#  1) Parms "UUR     MR      ", Count=     144
             Vector  Mate for "UVEL    " :  Diagnostic #     31 "VVEL    " exists
 Computing Diagnostic #    32 "WVEL    " (list#  1) Parms "WM      LR      ", Count=     144
 Computing Diagnostic #    31 "VVEL    " (list#  1) Parms "VVR     MR      ", Count=     144
             Vector  Mate for "VVEL    " :  Diagnostic #     30 "UVEL    " exists
 Computing Diagnostic #   197 "BRGfwFlx" (list#  2) Parms "SM      MR      ", Count=     144
 Computing Diagnostic #   198 "BRGhtFlx" (list#  2) Parms "SM      MR      ", Count=     144
 Computing Diagnostic #   199 "BRGmltRt" (list#  2) Parms "SM      MR      ", Count=     144
 Computing Diagnostic #   201 "BRG_TauX" (list#  2) Parms "UU      MR      ", Count=    1728
 Computing Diagnostic #   202 "BRG_TauY" (list#  2) Parms "VV      MR      ", Count=    1728
 Computing Diagnostic #   203 "BRGhFacC" (list#  2) Parms "SM      MR      ", Count=    1728
 cg2d: Sum(rhs),rhsMax =   8.20425602454655E-10  1.63519711066972E-02
 cg2d: Sum(rhs),rhsMax =   8.20468443185618E-10  1.63517191676165E-02
 cg2d: Sum(rhs),rhsMax =   8.20508563870170E-10  1.63514670419481E-02
 cg2d: Sum(rhs),rhsMax =   8.20574400095531E-10  1.63512146044531E-02
 cg2d: Sum(rhs),rhsMax =   8.20639264875744E-10  1.63509621930955E-02
 cg2d: Sum(rhs),rhsMax =   8.20714343707785E-10  1.63507098915726E-02
 cg2d: Sum(rhs),rhsMax =   8.20756532182720E-10  1.63504577159503E-02
 cg2d: Sum(rhs),rhsMax =   8.20814097246547E-10  1.63502056658976E-02
 cg2d: Sum(rhs),rhsMax =   8.20875978302382E-10  1.63499537348702E-02
 cg2d: Sum(rhs),rhsMax =   8.20924092592712E-10  1.63497019124313E-02
 cg2d: Sum(rhs),rhsMax =   8.20980380900060E-10  1.63494501867530E-02
 cg2d: Sum(rhs),rhsMax =   8.21032089537432E-10  1.63491985195155E-02
 cg2d: Sum(rhs),rhsMax =   8.21092110969701E-10  1.63489468549398E-02
 cg2d: Sum(rhs),rhsMax =   8.21143736340346E-10  1.63486951754822E-02
 cg2d: Sum(rhs),rhsMax =   8.21191198374649E-10  1.63484434684233E-02
 cg2d: Sum(rhs),rhsMax =   8.21248125060237E-10  1.63481917258062E-02
 cg2d: Sum(rhs),rhsMax =   8.21292173158739E-10  1.63479399418267E-02
 cg2d: Sum(rhs),rhsMax =   8.21364087855159E-10  1.63476881110376E-02
 cg2d: Sum(rhs),rhsMax =   8.21425566455147E-10  1.63474362291434E-02
 cg2d: Sum(rhs),rhsMax =   8.21489876123849E-10  1.63471842962812E-02
 cg2d: Sum(rhs),rhsMax =   8.21540391271469E-10  1.63469323100085E-02
 cg2d: Sum(rhs),rhsMax =   8.21591766841934E-10  1.63466802739615E-02
 cg2d: Sum(rhs),rhsMax =   8.21646028992262E-10  1.63464281915805E-02
 cg2d: Sum(rhs),rhsMax =   8.21689161156769E-10  1.63461760670432E-02
 cg2d: Sum(rhs),rhsMax =   8.21752943469534E-10  1.63459239111911E-02
 cg2d: Sum(rhs),rhsMax =   8.21799878147900E-10  1.63456717333031E-02
 cg2d: Sum(rhs),rhsMax =   8.21855347665768E-10  1.63454195456685E-02
 cg2d: Sum(rhs),rhsMax =   8.21915369098036E-10  1.63451673640191E-02
 cg2d: Sum(rhs),rhsMax =   8.21970005948636E-10  1.63449152068790E-02
 cg2d: Sum(rhs),rhsMax =   8.22024295854540E-10  1.63446630936365E-02
 cg2d: Sum(rhs),rhsMax =   8.22074047723831E-10  1.63444110461235E-02
 cg2d: Sum(rhs),rhsMax =   8.22132723010682E-10  1.63441590912524E-02
 cg2d: Sum(rhs),rhsMax =   8.22205026285161E-10  1.63439072553446E-02
 cg2d: Sum(rhs),rhsMax =   8.22254681009937E-10  1.63436555668192E-02
 cg2d: Sum(rhs),rhsMax =   8.22310886050559E-10  1.63434040608702E-02
 cg2d: Sum(rhs),rhsMax =   8.22368145803054E-10  1.63431527685795E-02
 cg2d: Sum(rhs),rhsMax =   8.22430262781282E-10  1.63429017282601E-02
 cg2d: Sum(rhs),rhsMax =   8.22483900431159E-10  1.63426509765953E-02
 cg2d: Sum(rhs),rhsMax =   8.22531362465462E-10  1.63424005552362E-02
 cg2d: Sum(rhs),rhsMax =   8.22578324899403E-10  1.63421505032391E-02
 cg2d: Sum(rhs),rhsMax =   8.22632212349461E-10  1.63419008649851E-02
 cg2d: Sum(rhs),rhsMax =   8.22686987977939E-10  1.63416516838514E-02
 cg2d: Sum(rhs),rhsMax =   8.22729509519782E-10  1.63414030042151E-02
 cg2d: Sum(rhs),rhsMax =   8.22781301423881E-10  1.63411548738670E-02
 cg2d: Sum(rhs),rhsMax =   8.22840476311093E-10  1.63409073368781E-02
 cg2d: Sum(rhs),rhsMax =   8.22894807850361E-10  1.63406604399138E-02
 cg2d: Sum(rhs),rhsMax =   8.22960921631477E-10  1.63404142309195E-02
 cg2d: Sum(rhs),rhsMax =   8.23016779727404E-10  1.63401687507265E-02
 cg2d: Sum(rhs),rhsMax =   8.23076218292584E-10  1.63399240407094E-02
 cg2d: Sum(rhs),rhsMax =   8.23123569304585E-10  1.63396801621882E-02
 cg2d: Sum(rhs),rhsMax =   8.23180912323807E-10  1.63394371592815E-02
 cg2d: Sum(rhs),rhsMax =   8.23230053570434E-10  1.63391950715000E-02
 cg2d: Sum(rhs),rhsMax =   8.23283233253314E-10  1.63389539433447E-02
 cg2d: Sum(rhs),rhsMax =   8.23343018763190E-10  1.63387018254810E-02
 cg2d: Sum(rhs),rhsMax =   8.23403858984939E-10  1.63384508473558E-02
 cg2d: Sum(rhs),rhsMax =   8.23449863851522E-10  1.63382012202369E-02
 cg2d: Sum(rhs),rhsMax =   8.23506929314988E-10  1.63379530784228E-02
 cg2d: Sum(rhs),rhsMax =   8.23553308881841E-10  1.63377066030285E-02
 cg2d: Sum(rhs),rhsMax =   8.23608667377407E-10  1.63374619519819E-02
 cg2d: Sum(rhs),rhsMax =   8.23671700289630E-10  1.63372192732725E-02
 cg2d: Sum(rhs),rhsMax =   8.23724144449756E-10  1.63369787053281E-02
 cg2d: Sum(rhs),rhsMax =   8.23772883240537E-10  1.63367403716146E-02
 cg2d: Sum(rhs),rhsMax =   8.23823634310550E-10  1.63365043925261E-02
 cg2d: Sum(rhs),rhsMax =   8.23888332557310E-10  1.63362708717439E-02
 cg2d: Sum(rhs),rhsMax =   8.23951282202806E-10  1.63360398980664E-02
 cg2d: Sum(rhs),rhsMax =   8.24012844069522E-10  1.63358115471011E-02
 cg2d: Sum(rhs),rhsMax =   8.24065177207345E-10  1.63355858817257E-02
 cg2d: Sum(rhs),rhsMax =   8.24122894926838E-10  1.63353629474807E-02
 cg2d: Sum(rhs),rhsMax =   8.24168608359876E-10  1.63351427777357E-02
 cg2d: Sum(rhs),rhsMax =   8.24217180617204E-10  1.63349132516663E-02
 cg2d: Sum(rhs),rhsMax =   8.24268361898639E-10  1.63346692859733E-02
 cg2d: Sum(rhs),rhsMax =   8.24323373449509E-10  1.63344237041306E-02
 cg2d: Sum(rhs),rhsMax =   8.24377538455323E-10  1.63341799445347E-02
 cg2d: Sum(rhs),rhsMax =   8.24428983414727E-10  1.63339389685238E-02
 cg2d: Sum(rhs),rhsMax =   8.24490059558869E-10  1.63337011123313E-02
 cg2d: Sum(rhs),rhsMax =   8.24545126620890E-10  1.63334665095060E-02
 cg2d: Sum(rhs),rhsMax =   8.24606133376093E-10  1.63332352221750E-02
 cg2d: Sum(rhs),rhsMax =   8.24659174281095E-10  1.63330072794306E-02
 cg2d: Sum(rhs),rhsMax =   8.24709564528625E-10  1.63327842059761E-02
 cg2d: Sum(rhs),rhsMax =   8.24758678019677E-10  1.63325644539138E-02
 cg2d: Sum(rhs),rhsMax =   8.24815118982691E-10  1.63323479637338E-02
 cg2d: Sum(rhs),rhsMax =   8.24862178561148E-10  1.63321346675861E-02
 cg2d: Sum(rhs),rhsMax =   8.24913942709671E-10  1.63320578459606E-02
 cg2d: Sum(rhs),rhsMax =   8.24946180810748E-10  1.63320255394941E-02
 cg2d: Sum(rhs),rhsMax =   8.25001705839767E-10  1.63319929525076E-02
 cg2d: Sum(rhs),rhsMax =   8.25039439544817E-10  1.63319588670816E-02
 cg2d: Sum(rhs),rhsMax =   8.25107759894195E-10  1.63319216197335E-02
 cg2d: Sum(rhs),rhsMax =   8.25146492799966E-10  1.63318795025806E-02
 cg2d: Sum(rhs),rhsMax =   8.25189375164292E-10  1.63318308923023E-02
 cg2d: Sum(rhs),rhsMax =   8.25243040569745E-10  1.63317742224296E-02
 cg2d: Sum(rhs),rhsMax =   8.25276985638723E-10  1.63317079681274E-02
 cg2d: Sum(rhs),rhsMax =   8.25315260577497E-10  1.63316306578347E-02
 cg2d: Sum(rhs),rhsMax =   8.25365970014147E-10  1.63315408746286E-02
 cg2d: Sum(rhs),rhsMax =   8.25402204918113E-10  1.63314372708464E-02
 cg2d: Sum(rhs),rhsMax =   8.25437454499145E-10  1.63313185757252E-02
 cg2d: Sum(rhs),rhsMax =   8.25493048917103E-10  1.63311836002002E-02
 cg2d: Sum(rhs),rhsMax =   8.25539234194927E-10  1.63310312429518E-02
 cg2d: Sum(rhs),rhsMax =   8.25588611363948E-10  1.63308604981243E-02
 cg2d: Sum(rhs),rhsMax =   8.25647897273463E-10  1.63306704614221E-02
 cg2d: Sum(rhs),rhsMax =   8.25703116991150E-10  1.63304603346627E-02
 cg2d: Sum(rhs),rhsMax =   8.25757115463510E-10  1.63302294283462E-02
 cg2d: Sum(rhs),rhsMax =   8.25816762195508E-10  1.63299771678724E-02
 cg2d: Sum(rhs),rhsMax =   8.25878365695587E-10  1.63297030936088E-02
 cg2d: Sum(rhs),rhsMax =   8.25933765824516E-10  1.63294068692252E-02
 cg2d: Sum(rhs),rhsMax =   8.25991941511006E-10  1.63290882786386E-02
 cg2d: Sum(rhs),rhsMax =   8.26040000290185E-10  1.63287472290604E-02
 cg2d: Sum(rhs),rhsMax =   8.26107626750172E-10  1.63283837498517E-02
 cg2d: Sum(rhs),rhsMax =   8.26163720768491E-10  1.63279979947407E-02
 cg2d: Sum(rhs),rhsMax =   8.26226378980444E-10  1.63275902449240E-02
 cg2d: Sum(rhs),rhsMax =   8.26288162891764E-10  1.63271608978699E-02
 cg2d: Sum(rhs),rhsMax =   8.26360771477574E-10  1.63267104747029E-02
 cg2d: Sum(rhs),rhsMax =   8.26426052591422E-10  1.63262396146041E-02
 cg2d: Sum(rhs),rhsMax =   8.26504031881115E-10  1.63257490727006E-02
 cg2d: Sum(rhs),rhsMax =   8.26559959365980E-10  1.63252397156370E-02
 cg2d: Sum(rhs),rhsMax =   8.26629417693958E-10  1.63247125138181E-02
 cg2d: Sum(rhs),rhsMax =   8.26701637701710E-10  1.63241685463068E-02
 cg2d: Sum(rhs),rhsMax =   8.26756940686124E-10  1.63236089867047E-02
 cg2d: Sum(rhs),rhsMax =   8.26843565837621E-10  1.63230351012954E-02
 cg2d: Sum(rhs),rhsMax =   8.26906487727541E-10  1.63224482443309E-02
 cg2d: Sum(rhs),rhsMax =   8.26966189970690E-10  1.63218498471745E-02
 cg2d: Sum(rhs),rhsMax =   8.27043489248780E-10  1.63212414145097E-02
 cg2d: Sum(rhs),rhsMax =   8.27128407432376E-10  1.63206245175359E-02
 cg2d: Sum(rhs),rhsMax =   8.27201904196606E-10  1.63200007854896E-02
 cg2d: Sum(rhs),rhsMax =   8.27274471149053E-10  1.63193718955600E-02
 cg2d: Sum(rhs),rhsMax =   8.27370241762715E-10  1.63187395678904E-02
 cg2d: Sum(rhs),rhsMax =   8.27463098040937E-10  1.63181055579091E-02
 cg2d: Sum(rhs),rhsMax =   8.27533513936274E-10  1.63174716435470E-02
 cg2d: Sum(rhs),rhsMax =   8.27622720356302E-10  1.63168396226162E-02
 cg2d: Sum(rhs),rhsMax =   8.27701018835114E-10  1.63162112994689E-02
 cg2d: Sum(rhs),rhsMax =   8.27778762202414E-10  1.63155884767244E-02
 cg2d: Sum(rhs),rhsMax =   8.27850607509895E-10  1.63149729516512E-02
 cg2d: Sum(rhs),rhsMax =   8.27919163781665E-10  1.63143664996738E-02
 cg2d: Sum(rhs),rhsMax =   8.27996338159664E-10  1.63137708743209E-02
 cg2d: Sum(rhs),rhsMax =   8.28070695346739E-10  1.63131877916754E-02
 cg2d: Sum(rhs),rhsMax =   8.28137600161760E-10  1.63126189280385E-02
 cg2d: Sum(rhs),rhsMax =   8.28211360603959E-10  1.63120659054091E-02
 cg2d: Sum(rhs),rhsMax =   8.28287549659024E-10  1.63115302939627E-02
 cg2d: Sum(rhs),rhsMax =   8.28366306104833E-10  1.63110135924145E-02
 cg2d: Sum(rhs),rhsMax =   8.28437832223194E-10  1.63105172318229E-02
 cg2d: Sum(rhs),rhsMax =   8.28492510707157E-10  1.63100425602475E-02
 cg2d: Sum(rhs),rhsMax =   8.28568824662312E-10  1.63095908432713E-02
 cg2d: Sum(rhs),rhsMax =   8.28623919479909E-10  1.63091632562854E-02
 cg2d: Sum(rhs),rhsMax =   8.28695140286939E-10  1.63087608746239E-02
 cg2d: Sum(rhs),rhsMax =   8.28752483306161E-10  1.63083846739797E-02
 Computing Diagnostic #    26 "THETA   " (list#  1) Parms "SMR     MR      ", Count=     144
 Computing Diagnostic #    27 "SALT    " (list#  1) Parms "SMR     MR      ", Count=     144
 Computing Diagnostic #    30 "UVEL    " (list#  1) Parms "UUR     MR      ", Count=     144
             Vector  Mate for "UVEL    " :  Diagnostic #     31 "VVEL    " exists
 Computing Diagnostic #    32 "WVEL    " (list#  1) Parms "WM      LR      ", Count=     144
 Computing Diagnostic #    31 "VVEL    " (list#  1) Parms "VVR     MR      ", Count=     144
             Vector  Mate for "VVEL    " :  Diagnostic #     30 "UVEL    " exists
 Computing Diagnostic #   197 "BRGfwFlx" (list#  2) Parms "SM      MR      ", Count=     144
 Computing Diagnostic #   198 "BRGhtFlx" (list#  2) Parms "SM      MR      ", Count=     144
 Computing Diagnostic #   199 "BRGmltRt" (list#  2) Parms "SM      MR      ", Count=     144
 Computing Diagnostic #   201 "BRG_TauX" (list#  2) Parms "UU      MR      ", Count=    1728
 Computing Diagnostic #   202 "BRG_TauY" (list#  2) Parms "VV      MR      ", Count=    1728
 Computing Diagnostic #   203 "BRGhFacC" (list#  2) Parms "SM      MR      ", Count=    1728
 cg2d: Sum(rhs),rhsMax =   8.28799001650893E-10  1.63080355257023E-02
 cg2d: Sum(rhs),rhsMax =   8.28851390299867E-10  1.63077141886660E-02
 cg2d: Sum(rhs),rhsMax =   8.28903612415388E-10  1.63074213103929E-02
 cg2d: Sum(rhs),rhsMax =   8.28947591124951E-10  1.63071574215737E-02
 cg2d: Sum(rhs),rhsMax =   8.29000146307379E-10  1.63069229347910E-02
 cg2d: Sum(rhs),rhsMax =   8.29042029470983E-10  1.63067184659285E-02
 cg2d: Sum(rhs),rhsMax =   8.29093613208265E-10  1.63065451538011E-02
 cg2d: Sum(rhs),rhsMax =   8.29138396829521E-10  1.63064030280544E-02
 cg2d: Sum(rhs),rhsMax =   8.29178226080529E-10  1.63062919745925E-02
 cg2d: Sum(rhs),rhsMax =   8.29219387599167E-10  1.63062117428423E-02
 cg2d: Sum(rhs),rhsMax =   8.29267501889497E-10  1.63061619477677E-02
 cg2d: Sum(rhs),rhsMax =   8.29314325545560E-10  1.63061420626637E-02
 cg2d: Sum(rhs),rhsMax =   8.29353891118600E-10  1.63061514324448E-02
 cg2d: Sum(rhs),rhsMax =   8.29395607748751E-10  1.63061892722501E-02
 cg2d: Sum(rhs),rhsMax =   8.29443097538629E-10  1.63062546728147E-02
 cg2d: Sum(rhs),rhsMax =   8.29495902521238E-10  1.63063466117359E-02
 cg2d: Sum(rhs),rhsMax =   8.29526419776627E-10  1.63064639459527E-02
 cg2d: Sum(rhs),rhsMax =   8.29553314929399E-10  1.63066054278258E-02
 cg2d: Sum(rhs),rhsMax =   8.29591825790565E-10  1.63067697067579E-02
 cg2d: Sum(rhs),rhsMax =   8.29630378285096E-10  1.63069553428121E-02
 cg2d: Sum(rhs),rhsMax =   8.29642993194213E-10  1.63071608053104E-02
 cg2d: Sum(rhs),rhsMax =   8.29681365277501E-10  1.63073844889699E-02
 cg2d: Sum(rhs),rhsMax =   8.29713173167157E-10  1.63076247177021E-02
 cg2d: Sum(rhs),rhsMax =   8.29739638108506E-10  1.63078797554389E-02
 cg2d: Sum(rhs),rhsMax =   8.29771765187282E-10  1.63081478149219E-02
 cg2d: Sum(rhs),rhsMax =   8.29803434299059E-10  1.63084270576561E-02
 cg2d: Sum(rhs),rhsMax =   8.29831467430431E-10  1.63087156140366E-02
 cg2d: Sum(rhs),rhsMax =   8.29854351902526E-10  1.63090115890308E-02
 cg2d: Sum(rhs),rhsMax =   8.29887006337238E-10  1.63093130800948E-02
 cg2d: Sum(rhs),rhsMax =   8.29906171562200E-10  1.63096181747333E-02
 cg2d: Sum(rhs),rhsMax =   8.29937216173526E-10  1.63099249623966E-02
 cg2d: Sum(rhs),rhsMax =   8.29948568203953E-10  1.63102315419738E-02
 cg2d: Sum(rhs),rhsMax =   8.29973367810766E-10  1.63105360335995E-02
 cg2d: Sum(rhs),rhsMax =   8.30011129271391E-10  1.63108365916803E-02
 cg2d: Sum(rhs),rhsMax =   8.30036969712289E-10  1.63111314067558E-02
 cg2d: Sum(rhs),rhsMax =   8.30060228884655E-10  1.63114187153126E-02
 cg2d: Sum(rhs),rhsMax =   8.30083696223838E-10  1.63116968100866E-02
 cg2d: Sum(rhs),rhsMax =   8.30123317308029E-10  1.63119640442891E-02
 cg2d: Sum(rhs),rhsMax =   8.30137888985227E-10  1.63122188425315E-02
 cg2d: Sum(rhs),rhsMax =   8.30158747300302E-10  1.63124594754083E-02
 cg2d: Sum(rhs),rhsMax =   8.30189347822419E-10  1.63126847589019E-02
 cg2d: Sum(rhs),rhsMax =   8.30226470904805E-10  1.63128933674802E-02
 cg2d: Sum(rhs),rhsMax =   8.30267563034504E-10  1.63130840716476E-02
 cg2d: Sum(rhs),rhsMax =   8.30301924437116E-10  1.63132557386630E-02
 cg2d: Sum(rhs),rhsMax =   8.30344126789839E-10  1.63134073387560E-02
 cg2d: Sum(rhs),rhsMax =   8.30378002469878E-10  1.63135379535082E-02
 cg2d: Sum(rhs),rhsMax =   8.30415028407749E-10  1.63136467680798E-02
 cg2d: Sum(rhs),rhsMax =   8.30445712196592E-10  1.63137330833210E-02
 cg2d: Sum(rhs),rhsMax =   8.30480892388685E-10  1.63137963107728E-02
 cg2d: Sum(rhs),rhsMax =   8.30516155847505E-10  1.63138359793743E-02
 cg2d: Sum(rhs),rhsMax =   8.30566879161942E-10  1.63138517321378E-02
 cg2d: Sum(rhs),rhsMax =   8.30604696133719E-10  1.63138433266001E-02
 cg2d: Sum(rhs),rhsMax =   8.30645371929783E-10  1.63138106412389E-02
 cg2d: Sum(rhs),rhsMax =   8.30694624198713E-10  1.63137536671721E-02
 cg2d: Sum(rhs),rhsMax =   8.30735105705749E-10  1.63136725046888E-02
 cg2d: Sum(rhs),rhsMax =   8.30795113260230E-10  1.63135674789065E-02
 cg2d: Sum(rhs),rhsMax =   8.30850596655885E-10  1.63134389444748E-02
 cg2d: Sum(rhs),rhsMax =   8.30894089642875E-10  1.63132873228653E-02
 cg2d: Sum(rhs),rhsMax =   8.30941690455056E-10  1.63131131386651E-02
 cg2d: Sum(rhs),rhsMax =   8.30996799150441E-10  1.63129170073657E-02
 cg2d: Sum(rhs),rhsMax =   8.31053850736119E-10  1.63126996434378E-02
 cg2d: Sum(rhs),rhsMax =   8.31111568455611E-10  1.63124618418855E-02
 cg2d: Sum(rhs),rhsMax =   8.31173144200115E-10  1.63122044786859E-02
 cg2d: Sum(rhs),rhsMax =   8.31227572883897E-10  1.63119285062502E-02
 cg2d: Sum(rhs),rhsMax =   8.31280891344655E-10  1.63116349440923E-02
 cg2d: Sum(rhs),rhsMax =   8.31343244245275E-10  1.63113248761285E-02
 cg2d: Sum(rhs),rhsMax =   8.31409829871177E-10  1.63109994425850E-02
 cg2d: Sum(rhs),rhsMax =   8.31460442163312E-10  1.63106598213680E-02
 cg2d: Sum(rhs),rhsMax =   8.31528762512690E-10  1.63103071969179E-02
 cg2d: Sum(rhs),rhsMax =   8.31580235227669E-10  1.63099428362202E-02
 cg2d: Sum(rhs),rhsMax =   8.31639271337004E-10  1.63095680395754E-02
 cg2d: Sum(rhs),rhsMax =   8.31693477976181E-10  1.63091841262071E-02
 cg2d: Sum(rhs),rhsMax =   8.31747296037300E-10  1.63087924323892E-02
 cg2d: Sum(rhs),rhsMax =   8.31789553901174E-10  1.63083943017899E-02
 cg2d: Sum(rhs),rhsMax =   8.31845356485950E-10  1.63079910776691E-02
 cg2d: Sum(rhs),rhsMax =   8.31905613840611E-10  1.63075840937416E-02
 cg2d: Sum(rhs),rhsMax =   8.31966093239878E-10  1.63071746713265E-02
 cg2d: Sum(rhs),rhsMax =   8.32045182752594E-10  1.63067641119580E-02
 cg2d: Sum(rhs),rhsMax =   8.32100097158950E-10  1.63063536885070E-02
 cg2d: Sum(rhs),rhsMax =   8.32172136755460E-10  1.63059446398099E-02
 cg2d: Sum(rhs),rhsMax =   8.32224983371432E-10  1.63055381691423E-02
 cg2d: Sum(rhs),rhsMax =   8.32274832385238E-10  1.63051354313013E-02
 cg2d: Sum(rhs),rhsMax =   8.32326610411549E-10  1.63047375292281E-02
 cg2d: Sum(rhs),rhsMax =   8.32392751948241E-10  1.63043455137520E-02
 cg2d: Sum(rhs),rhsMax =   8.32456242827462E-10  1.63039603746622E-02
 cg2d: Sum(rhs),rhsMax =   8.32519289617473E-10  1.63035830379762E-02
 cg2d: Sum(rhs),rhsMax =   8.32582752741118E-10  1.63032143629273E-02
 cg2d: Sum(rhs),rhsMax =   8.32645882797856E-10  1.63028551309403E-02
 cg2d: Sum(rhs),rhsMax =   8.32704710740373E-10  1.63025060276534E-02
 cg2d: Sum(rhs),rhsMax =   8.32761637425961E-10  1.63021677486230E-02
 cg2d: Sum(rhs),rhsMax =   8.32823809915340E-10  1.63018407541709E-02
 cg2d: Sum(rhs),rhsMax =   8.32894933577855E-10  1.63015255278954E-02
 cg2d: Sum(rhs),rhsMax =   8.32941993156311E-10  1.63012224599090E-02
 cg2d: Sum(rhs),rhsMax =   8.32987803733864E-10  1.63009318513707E-02
 cg2d: Sum(rhs),rhsMax =   8.33045327164328E-10  1.63006539169524E-02
 cg2d: Sum(rhs),rhsMax =   8.33094274121926E-10  1.63003887904212E-02
 cg2d: Sum(rhs),rhsMax =   8.33140334499660E-10  1.63001365244822E-02
 cg2d: Sum(rhs),rhsMax =   8.33186269977304E-10  1.62998970910470E-02
 cg2d: Sum(rhs),rhsMax =   8.33250107801220E-10  1.62996703818773E-02
 cg2d: Sum(rhs),rhsMax =   8.33303856473400E-10  1.62994562116941E-02
 cg2d: Sum(rhs),rhsMax =   8.33345878414882E-10  1.62992543190730E-02
 cg2d: Sum(rhs),rhsMax =   8.33395602528597E-10  1.62990643719827E-02
 cg2d: Sum(rhs),rhsMax =   8.33438901226558E-10  1.62988859654252E-02
 cg2d: Sum(rhs),rhsMax =   8.33495994445599E-10  1.62987186276181E-02
 cg2d: Sum(rhs),rhsMax =   8.33547439405002E-10  1.62985618249411E-02
 cg2d: Sum(rhs),rhsMax =   8.33587796011948E-10  1.62984149609826E-02
 cg2d: Sum(rhs),rhsMax =   8.33643501452208E-10  1.62982773860642E-02
 cg2d: Sum(rhs),rhsMax =   8.33699706492830E-10  1.62981483951665E-02
 cg2d: Sum(rhs),rhsMax =   8.33762711649477E-10  1.62980272356507E-02
 cg2d: Sum(rhs),rhsMax =   8.33802374367032E-10  1.62979131136200E-02
 cg2d: Sum(rhs),rhsMax =   8.33854721382643E-10  1.62978051976432E-02
 cg2d: Sum(rhs),rhsMax =   8.33902502606065E-10  1.62977026205393E-02
 cg2d: Sum(rhs),rhsMax =   8.33956403933911E-10  1.62976044879552E-02
 cg2d: Sum(rhs),rhsMax =   8.33999341809388E-10  1.62975098807108E-02
 cg2d: Sum(rhs),rhsMax =   8.34055935428069E-10  1.62974178594381E-02
 cg2d: Sum(rhs),rhsMax =   8.34101787638986E-10  1.62973274729914E-02
 cg2d: Sum(rhs),rhsMax =   8.34140020944396E-10  1.62972377592888E-02
 cg2d: Sum(rhs),rhsMax =   8.34183611075900E-10  1.62971477518330E-02
 cg2d: Sum(rhs),rhsMax =   8.34240634906003E-10  1.62970564837536E-02
 cg2d: Sum(rhs),rhsMax =   8.34277813499540E-10  1.62969629949814E-02
 cg2d: Sum(rhs),rhsMax =   8.34329313970095E-10  1.62968663341748E-02
 cg2d: Sum(rhs),rhsMax =   8.34375873948190E-10  1.62967655642686E-02
 cg2d: Sum(rhs),rhsMax =   8.34422239637256E-10  1.62966597654927E-02
 cg2d: Sum(rhs),rhsMax =   8.34455587961358E-10  1.62965480423793E-02
 cg2d: Sum(rhs),rhsMax =   8.34507477009971E-10  1.62964295256108E-02
 cg2d: Sum(rhs),rhsMax =   8.34548444239580E-10  1.62963033740516E-02
 cg2d: Sum(rhs),rhsMax =   8.34589466980340E-10  1.62961687828871E-02
 cg2d: Sum(rhs),rhsMax =   8.34648808401006E-10  1.62960249823373E-02
 cg2d: Sum(rhs),rhsMax =   8.34696034512916E-10  1.62958712436597E-02
 cg2d: Sum(rhs),rhsMax =   8.34742899802343E-10  1.62957068814300E-02
 cg2d: Sum(rhs),rhsMax =   8.34787877712628E-10  1.62955312542159E-02
 cg2d: Sum(rhs),rhsMax =   8.34822475037633E-10  1.62953437673677E-02
 cg2d: Sum(rhs),rhsMax =   8.34879901323582E-10  1.62951438773469E-02
 cg2d: Sum(rhs),rhsMax =   8.34922658787818E-10  1.62949706131498E-02
 cg2d: Sum(rhs),rhsMax =   8.34967400775710E-10  1.62947835226505E-02
 cg2d: Sum(rhs),rhsMax =   8.35036303992176E-10  1.62945816779106E-02
 cg2d: Sum(rhs),rhsMax =   8.35094660089908E-10  1.62943644358101E-02
 cg2d: Sum(rhs),rhsMax =   8.35150587574773E-10  1.62941310265791E-02
 cg2d: Sum(rhs),rhsMax =   8.35208249783115E-10  1.62938808116946E-02
 cg2d: Sum(rhs),rhsMax =   8.35253449738005E-10  1.62936132244076E-02
 cg2d: Sum(rhs),rhsMax =   8.35308433533299E-10  1.62933277798483E-02
 cg2d: Sum(rhs),rhsMax =   8.35373353824664E-10  1.62930240677630E-02
 cg2d: Sum(rhs),rhsMax =   8.35437968804698E-10  1.62927017566984E-02
 cg2d: Sum(rhs),rhsMax =   8.35513144781252E-10  1.62923605969163E-02
 Computing Diagnostic #    26 "THETA   " (list#  1) Parms "SMR     MR      ", Count=     144
 Computing Diagnostic #    27 "SALT    " (list#  1) Parms "SMR     MR      ", Count=     144
 Computing Diagnostic #    30 "UVEL    " (list#  1) Parms "UUR     MR      ", Count=     144
             Vector  Mate for "UVEL    " :  Diagnostic #     31 "VVEL    " exists
 Computing Diagnostic #    32 "WVEL    " (list#  1) Parms "WM      LR      ", Count=     144
 Computing Diagnostic #    31 "VVEL    " (list#  1) Parms "VVR     MR      ", Count=     144
             Vector  Mate for "VVEL    " :  Diagnostic #     30 "UVEL    " exists
 Computing Diagnostic #   197 "BRGfwFlx" (list#  2) Parms "SM      MR      ", Count=     144
 Computing Diagnostic #   198 "BRGhtFlx" (list#  2) Parms "SM      MR      ", Count=     144
 Computing Diagnostic #   199 "BRGmltRt" (list#  2) Parms "SM      MR      ", Count=     144
 Computing Diagnostic #   201 "BRG_TauX" (list#  2) Parms "UU      MR      ", Count=    1728
 Computing Diagnostic #   202 "BRG_TauY" (list#  2) Parms "VV      MR      ", Count=    1728
 Computing Diagnostic #   203 "BRGhFacC" (list#  2) Parms "SM      MR      ", Count=    1728
 cg2d: Sum(rhs),rhsMax =   8.35580063474062E-10  1.62920004192327E-02
 cg2d: Sum(rhs),rhsMax =   8.35635394214052E-10  1.62916211384663E-02
 cg2d: Sum(rhs),rhsMax =   8.35700883494717E-10  1.62912227501371E-02
 cg2d: Sum(rhs),rhsMax =   8.35759947359627E-10  1.62908053305759E-02
 cg2d: Sum(rhs),rhsMax =   8.35821398204040E-10  1.62903690415496E-02
 cg2d: Sum(rhs),rhsMax =   8.35901334261813E-10  1.62899141214169E-02
 cg2d: Sum(rhs),rhsMax =   8.35965005552275E-10  1.62894408907353E-02
 cg2d: Sum(rhs),rhsMax =   8.36039459883864E-10  1.62889497433044E-02
 cg2d: Sum(rhs),rhsMax =   8.36103547507960E-10  1.62884411513054E-02
 cg2d: Sum(rhs),rhsMax =   8.36183580710248E-10  1.62879156819641E-02
 cg2d: Sum(rhs),rhsMax =   8.36258715053440E-10  1.62873739726941E-02
 cg2d: Sum(rhs),rhsMax =   8.36340177667871E-10  1.62868167000931E-02
 cg2d: Sum(rhs),rhsMax =   8.36406457982442E-10  1.62862446047161E-02
 cg2d: Sum(rhs),rhsMax =   8.36488475708386E-10  1.62856584814060E-02
 cg2d: Sum(rhs),rhsMax =   8.36581748320242E-10  1.62850591819671E-02
 cg2d: Sum(rhs),rhsMax =   8.36658090030973E-10  1.62844476101896E-02
 cg2d: Sum(rhs),rhsMax =   8.36729241449063E-10  1.62838247143574E-02
 cg2d: Sum(rhs),rhsMax =   8.36817129479250E-10  1.62831914858415E-02
 cg2d: Sum(rhs),rhsMax =   8.36882230181857E-10  1.62825489530606E-02
 cg2d: Sum(rhs),rhsMax =   8.36953034655252E-10  1.62818981776260E-02
 cg2d: Sum(rhs),rhsMax =   8.37027336331175E-10  1.62812402520669E-02
 cg2d: Sum(rhs),rhsMax =   8.37094213390621E-10  1.62805762869090E-02
 cg2d: Sum(rhs),rhsMax =   8.37176203360990E-10  1.62799074175437E-02
 cg2d: Sum(rhs),rhsMax =   8.37238819939579E-10  1.62792347846868E-02
 cg2d: Sum(rhs),rhsMax =   8.37319227842137E-10  1.62785595451414E-02
 cg2d: Sum(rhs),rhsMax =   8.37396291197834E-10  1.62778828544954E-02
 cg2d: Sum(rhs),rhsMax =   8.37481597959489E-10  1.62772058646341E-02
 cg2d: Sum(rhs),rhsMax =   8.37554775534599E-10  1.62765297245742E-02
 cg2d: Sum(rhs),rhsMax =   8.37617655791156E-10  1.62758555708497E-02
 cg2d: Sum(rhs),rhsMax =   8.37690153354664E-10  1.62751845238597E-02
 cg2d: Sum(rhs),rhsMax =   8.37751368276685E-10  1.62745176820896E-02
 cg2d: Sum(rhs),rhsMax =   8.37835800737707E-10  1.62738561167497E-02
 cg2d: Sum(rhs),rhsMax =   8.37911962037197E-10  1.62732008733668E-02
 cg2d: Sum(rhs),rhsMax =   8.37981975476687E-10  1.62725529631535E-02
 cg2d: Sum(rhs),rhsMax =   8.38044522666337E-10  1.62719133595256E-02
 cg2d: Sum(rhs),rhsMax =   8.38128413893635E-10  1.62712829954109E-02
 cg2d: Sum(rhs),rhsMax =   8.38200009400936E-10  1.62706627589731E-02
 cg2d: Sum(rhs),rhsMax =   8.38262723124039E-10  1.62700534925608E-02
 cg2d: Sum(rhs),rhsMax =   8.38324784591116E-10  1.62694559821989E-02
 cg2d: Sum(rhs),rhsMax =   8.38402056113630E-10  1.62688709678181E-02
 cg2d: Sum(rhs),rhsMax =   8.38462188568201E-10  1.62682991282159E-02
 cg2d: Sum(rhs),rhsMax =   8.38536476366336E-10  1.62677410847321E-02
 cg2d: Sum(rhs),rhsMax =   8.38593153251743E-10  1.62671974008124E-02
 cg2d: Sum(rhs),rhsMax =   8.38659017232679E-10  1.62666685747960E-02
 cg2d: Sum(rhs),rhsMax =   8.38720481954880E-10  1.62661550450607E-02
 cg2d: Sum(rhs),rhsMax =   8.38787039825206E-10  1.62656571847439E-02
 cg2d: Sum(rhs),rhsMax =   8.38862770913273E-10  1.62651753012780E-02
 cg2d: Sum(rhs),rhsMax =   8.38934283153847E-10  1.62647096369773E-02
 cg2d: Sum(rhs),rhsMax =   8.38997066265890E-10  1.62642603718998E-02
 cg2d: Sum(rhs),rhsMax =   8.39056518708858E-10  1.62638276132302E-02
 cg2d: Sum(rhs),rhsMax =   8.39119274065325E-10  1.62634114074614E-02
 cg2d: Sum(rhs),rhsMax =   8.39186109491408E-10  1.62630117339712E-02
 cg2d: Sum(rhs),rhsMax =   8.39253236351034E-10  1.62626285166947E-02
 cg2d: Sum(rhs),rhsMax =   8.39316269263257E-10  1.62622616092494E-02
 cg2d: Sum(rhs),rhsMax =   8.39371752658913E-10  1.62619108029515E-02
 cg2d: Sum(rhs),rhsMax =   8.39432606758450E-10  1.62615758398076E-02
 cg2d: Sum(rhs),rhsMax =   8.39490574278123E-10  1.62612563978714E-02
 cg2d: Sum(rhs),rhsMax =   8.39549596509670E-10  1.62609521024143E-02
 cg2d: Sum(rhs),rhsMax =   8.39612809833135E-10  1.62606625250999E-02
 cg2d: Sum(rhs),rhsMax =   8.39662325780033E-10  1.62603871925296E-02
 cg2d: Sum(rhs),rhsMax =   8.39722721912572E-10  1.62601255780097E-02
 cg2d: Sum(rhs),rhsMax =   8.39771599481232E-10  1.62598771132841E-02
 cg2d: Sum(rhs),rhsMax =   8.39822975051696E-10  1.62596411900392E-02
 cg2d: Sum(rhs),rhsMax =   8.39874780833583E-10  1.62594171621079E-02
 cg2d: Sum(rhs),rhsMax =   8.39943795072351E-10  1.62592043471029E-02
 cg2d: Sum(rhs),rhsMax =   8.39984679035233E-10  1.62590020330789E-02
 cg2d: Sum(rhs),rhsMax =   8.40034389271160E-10  1.62588094796181E-02
 cg2d: Sum(rhs),rhsMax =   8.40084238284966E-10  1.62586259226047E-02
 cg2d: Sum(rhs),rhsMax =   8.40130812140849E-10  1.62584505771051E-02
 cg2d: Sum(rhs),rhsMax =   8.40177066807613E-10  1.62582826424315E-02
 cg2d: Sum(rhs),rhsMax =   8.40225902742908E-10  1.62581213052438E-02
 cg2d: Sum(rhs),rhsMax =   8.40262831536265E-10  1.62579657393041E-02
 cg2d: Sum(rhs),rhsMax =   8.40313069128129E-10  1.62578151166240E-02
 cg2d: Sum(rhs),rhsMax =   8.40356423337241E-10  1.62576686058624E-02
 cg2d: Sum(rhs),rhsMax =   8.40401692681070E-10  1.62575253751640E-02
 cg2d: Sum(rhs),rhsMax =   8.40442590521739E-10  1.62573846001431E-02
 cg2d: Sum(rhs),rhsMax =   8.40478867059069E-10  1.62572454625030E-02
 cg2d: Sum(rhs),rhsMax =   8.40524247425201E-10  1.62571071585078E-02
 cg2d: Sum(rhs),rhsMax =   8.40581645955574E-10  1.62569688971445E-02
 cg2d: Sum(rhs),rhsMax =   8.40624930775746E-10  1.62568299061708E-02
 cg2d: Sum(rhs),rhsMax =   8.40670311141878E-10  1.62566894347815E-02
 cg2d: Sum(rhs),rhsMax =   8.40723587969272E-10  1.62565467545679E-02
 cg2d: Sum(rhs),rhsMax =   8.40763597631522E-10  1.62564011662719E-02
 cg2d: Sum(rhs),rhsMax =   8.40806479995848E-10  1.62562519989765E-02
 cg2d: Sum(rhs),rhsMax =   8.40856953510105E-10  1.62560986099702E-02
 cg2d: Sum(rhs),rhsMax =   8.40898295439985E-10  1.62559403969616E-02
 cg2d: Sum(rhs),rhsMax =   8.40944897051443E-10  1.62557767884344E-02
 cg2d: Sum(rhs),rhsMax =   8.40985614480871E-10  1.62556072516788E-02
 cg2d: Sum(rhs),rhsMax =   8.41048272692824E-10  1.62554312941962E-02
 cg2d: Sum(rhs),rhsMax =   8.41108155347214E-10  1.62552484648602E-02
 cg2d: Sum(rhs),rhsMax =   8.41159392139801E-10  1.62550583532613E-02
 cg2d: Sum(rhs),rhsMax =   8.41209393809272E-10  1.62548605918515E-02
 cg2d: Sum(rhs),rhsMax =   8.41251554528633E-10  1.62546548543884E-02
 cg2d: Sum(rhs),rhsMax =   8.41313643751285E-10  1.62544408645721E-02
 cg2d: Sum(rhs),rhsMax =   8.41365421777596E-10  1.62542183862722E-02
 cg2d: Sum(rhs),rhsMax =   8.41421612940429E-10  1.62539872288531E-02
 cg2d: Sum(rhs),rhsMax =   8.41485256475316E-10  1.62537472490735E-02
 cg2d: Sum(rhs),rhsMax =   8.41543570939685E-10  1.62534983491002E-02
 cg2d: Sum(rhs),rhsMax =   8.41607325496874E-10  1.62532404745661E-02
 cg2d: Sum(rhs),rhsMax =   8.41662281536593E-10  1.62529736149045E-02
 cg2d: Sum(rhs),rhsMax =   8.41727784695046E-10  1.62526978063935E-02
 cg2d: Sum(rhs),rhsMax =   8.41789096761580E-10  1.62524131196580E-02
 cg2d: Sum(rhs),rhsMax =   8.41851713340169E-10  1.62521196740755E-02
 cg2d: Sum(rhs),rhsMax =   8.41906544479798E-10  1.62518176274629E-02
 cg2d: Sum(rhs),rhsMax =   8.41961000919156E-10  1.62515071761798E-02
 cg2d: Sum(rhs),rhsMax =   8.42032804593273E-10  1.62511885557376E-02
 cg2d: Sum(rhs),rhsMax =   8.42093977881930E-10  1.62508620373846E-02
 cg2d: Sum(rhs),rhsMax =   8.42147671042959E-10  1.62505279247971E-02
 cg2d: Sum(rhs),rhsMax =   8.42216671403939E-10  1.62501865595139E-02
 cg2d: Sum(rhs),rhsMax =   8.42270364564968E-10  1.62498383079725E-02
 cg2d: Sum(rhs),rhsMax =   8.42339309414797E-10  1.62494835658156E-02
 cg2d: Sum(rhs),rhsMax =   8.42397235301107E-10  1.62491227583652E-02
 cg2d: Sum(rhs),rhsMax =   8.42455563643263E-10  1.62487563333339E-02
 cg2d: Sum(rhs),rhsMax =   8.42514835674990E-10  1.62483847580527E-02
 cg2d: Sum(rhs),rhsMax =   8.42580755167077E-10  1.62480085214454E-02
 cg2d: Sum(rhs),rhsMax =   8.42645495047201E-10  1.62476281288810E-02
 cg2d: Sum(rhs),rhsMax =   8.42697037151119E-10  1.62472440978583E-02
 cg2d: Sum(rhs),rhsMax =   8.42763317465689E-10  1.62468569372614E-02
 cg2d: Sum(rhs),rhsMax =   8.42811834211865E-10  1.62464671996154E-02
 cg2d: Sum(rhs),rhsMax =   8.42895822583678E-10  1.62460753948492E-02
 cg2d: Sum(rhs),rhsMax =   8.42957342817030E-10  1.62456820653929E-02
 cg2d: Sum(rhs),rhsMax =   8.43024941521442E-10  1.62452877532852E-02
 cg2d: Sum(rhs),rhsMax =   8.43075942391636E-10  1.62448930000728E-02
 cg2d: Sum(rhs),rhsMax =   8.43119907223411E-10  1.62444983475603E-02
 cg2d: Sum(rhs),rhsMax =   8.43183661780600E-10  1.62441043274389E-02
 cg2d: Sum(rhs),rhsMax =   8.43231914848808E-10  1.62437114717972E-02
 cg2d: Sum(rhs),rhsMax =   8.43289063579000E-10  1.62433203014071E-02
 cg2d: Sum(rhs),rhsMax =   8.43338301970142E-10  1.62429313262663E-02
 cg2d: Sum(rhs),rhsMax =   8.43399239336406E-10  1.62425450447104E-02
 cg2d: Sum(rhs),rhsMax =   8.43465880473460E-10  1.62421619430387E-02
 cg2d: Sum(rhs),rhsMax =   8.43529440741619E-10  1.62417824854797E-02
 cg2d: Sum(rhs),rhsMax =   8.43598940702961E-10  1.62414071257292E-02
 cg2d: Sum(rhs),rhsMax =   8.43659614391257E-10  1.62410362933374E-02
 cg2d: Sum(rhs),rhsMax =   8.43720329712916E-10  1.62406704161276E-02
 cg2d: Sum(rhs),rhsMax =   8.43777644976562E-10  1.62403098864380E-02
 cg2d: Sum(rhs),rhsMax =   8.43833711239306E-10  1.62399550672755E-02
 cg2d: Sum(rhs),rhsMax =   8.43885572532344E-10  1.62396065910139E-02
 cg2d: Sum(rhs),rhsMax =   8.43946551531971E-10  1.62392644724239E-02
 cg2d: Sum(rhs),rhsMax =   8.44005740296971E-10  1.62389289918626E-02
 cg2d: Sum(rhs),rhsMax =   8.44049552473081E-10  1.62386004032619E-02
 cg2d: Sum(rhs),rhsMax =   8.44124492527243E-10  1.62382789298627E-02
 cg2d: Sum(rhs),rhsMax =   8.44182418413553E-10  1.62379647676666E-02
 cg2d: Sum(rhs),rhsMax =   8.44236638930518E-10  1.62376580806131E-02
 cg2d: Sum(rhs),rhsMax =   8.44296146884638E-10  1.62373590066759E-02
 Computing Diagnostic #    26 "THETA   " (list#  1) Parms "SMR     MR      ", Count=     144
 Computing Diagnostic #    27 "SALT    " (list#  1) Parms "SMR     MR      ", Count=     144
 Computing Diagnostic #    30 "UVEL    " (list#  1) Parms "UUR     MR      ", Count=     144
             Vector  Mate for "UVEL    " :  Diagnostic #     31 "VVEL    " exists
 Computing Diagnostic #    32 "WVEL    " (list#  1) Parms "WM      LR      ", Count=     144
 Computing Diagnostic #    31 "VVEL    " (list#  1) Parms "VVR     MR      ", Count=     144
             Vector  Mate for "VVEL    " :  Diagnostic #     30 "UVEL    " exists
 Computing Diagnostic #   197 "BRGfwFlx" (list#  2) Parms "SM      MR      ", Count=     144
 Computing Diagnostic #   198 "BRGhtFlx" (list#  2) Parms "SM      MR      ", Count=     144
 Computing Diagnostic #   199 "BRGmltRt" (list#  2) Parms "SM      MR      ", Count=     144
 Computing Diagnostic #   201 "BRG_TauX" (list#  2) Parms "UU      MR      ", Count=    1728
 Computing Diagnostic #   202 "BRG_TauY" (list#  2) Parms "VV      MR      ", Count=    1728
 Computing Diagnostic #   203 "BRGhFacC" (list#  2) Parms "SM      MR      ", Count=    1728
 cg2d: Sum(rhs),rhsMax =   8.44350145356998E-10  1.62370676511775E-02
 cg2d: Sum(rhs),rhsMax =   8.44406197741954E-10  1.62367840904362E-02
 cg2d: Sum(rhs),rhsMax =   8.44466899185825E-10  1.62365083711158E-02
 cg2d: Sum(rhs),rhsMax =   8.44505715358324E-10  1.62362405091974E-02
 cg2d: Sum(rhs),rhsMax =   8.44573466718401E-10  1.62359804915629E-02
 cg2d: Sum(rhs),rhsMax =   8.44623579410175E-10  1.62357282781665E-02
 cg2d: Sum(rhs),rhsMax =   8.44673372912830E-10  1.62354837981907E-02
 cg2d: Sum(rhs),rhsMax =   8.44729383664422E-10  1.62352469533713E-02
 cg2d: Sum(rhs),rhsMax =   8.44786324227798E-10  1.62350176189000E-02
 cg2d: Sum(rhs),rhsMax =   8.44829969870453E-10  1.62347956446310E-02
 cg2d: Sum(rhs),rhsMax =   8.44883718542633E-10  1.62345808536845E-02
 cg2d: Sum(rhs),rhsMax =   8.44930805876665E-10  1.62343730484249E-02
 cg2d: Sum(rhs),rhsMax =   8.44990258319633E-10  1.62341720017160E-02
 cg2d: Sum(rhs),rhsMax =   8.45030906360122E-10  1.62339774708873E-02
 cg2d: Sum(rhs),rhsMax =   8.45082809286524E-10  1.62337891906473E-02
 cg2d: Sum(rhs),rhsMax =   8.45115991077172E-10  1.62336068751645E-02
 cg2d: Sum(rhs),rhsMax =   8.45170169960774E-10  1.62334302205363E-02
 cg2d: Sum(rhs),rhsMax =   8.45220463063789E-10  1.62332589090096E-02
 cg2d: Sum(rhs),rhsMax =   8.45277445260528E-10  1.62330926046414E-02
 cg2d: Sum(rhs),rhsMax =   8.45324518716772E-10  1.62329309617757E-02
 cg2d: Sum(rhs),rhsMax =   8.45378808622677E-10  1.62327736158531E-02
 cg2d: Sum(rhs),rhsMax =   8.45429559692690E-10  1.62326202001144E-02
 cg2d: Sum(rhs),rhsMax =   8.45478700939317E-10  1.62324703335299E-02
 cg2d: Sum(rhs),rhsMax =   8.45524983361656E-10  1.62323236285648E-02
 cg2d: Sum(rhs),rhsMax =   8.45570669039120E-10  1.62321796936486E-02
 cg2d: Sum(rhs),rhsMax =   8.45613662425748E-10  1.62320381295175E-02
 cg2d: Sum(rhs),rhsMax =   8.45675904304066E-10  1.62318985393128E-02
 cg2d: Sum(rhs),rhsMax =   8.45721867537286E-10  1.62317605196682E-02
 cg2d: Sum(rhs),rhsMax =   8.45776518265673E-10  1.62316236725468E-02
 cg2d: Sum(rhs),rhsMax =   8.45830572249184E-10  1.62314875968406E-02
 cg2d: Sum(rhs),rhsMax =   8.45873163179967E-10  1.62313518982179E-02
 cg2d: Sum(rhs),rhsMax =   8.45927272674629E-10  1.62312161863816E-02
 cg2d: Sum(rhs),rhsMax =   8.45967254581304E-10  1.62310800774203E-02
 cg2d: Sum(rhs),rhsMax =   8.46018421984951E-10  1.62309431916750E-02
 cg2d: Sum(rhs),rhsMax =   8.46062275794424E-10  1.62308051633564E-02
 cg2d: Sum(rhs),rhsMax =   8.46110084773422E-10  1.62306656326220E-02
 cg2d: Sum(rhs),rhsMax =   8.46175296498330E-10  1.62305242531148E-02
 cg2d: Sum(rhs),rhsMax =   8.46207701132862E-10  1.62303806878702E-02
 cg2d: Sum(rhs),rhsMax =   8.46255177044952E-10  1.62302346155320E-02
 cg2d: Sum(rhs),rhsMax =   8.46306011381692E-10  1.62300857256576E-02
 cg2d: Sum(rhs),rhsMax =   8.46354278327688E-10  1.62299337270721E-02
 cg2d: Sum(rhs),rhsMax =   8.46419087596750E-10  1.62297783400583E-02
 cg2d: Sum(rhs),rhsMax =   8.46464884296516E-10  1.62296193040466E-02
 cg2d: Sum(rhs),rhsMax =   8.46516648445039E-10  1.62294563735327E-02
 cg2d: Sum(rhs),rhsMax =   8.46565414991396E-10  1.62292893217270E-02
 cg2d: Sum(rhs),rhsMax =   8.46609504723261E-10  1.62291179385147E-02
 cg2d: Sum(rhs),rhsMax =   8.46659589659460E-10  1.62289420336014E-02
 cg2d: Sum(rhs),rhsMax =   8.46703762658052E-10  1.62287614345924E-02
 cg2d: Sum(rhs),rhsMax =   8.46757441941293E-10  1.62285759878506E-02
 cg2d: Sum(rhs),rhsMax =   8.46813383303946E-10  1.62283855583787E-02
 cg2d: Sum(rhs),rhsMax =   8.46858375092019E-10  1.62281900295326E-02
 cg2d: Sum(rhs),rhsMax =   8.46910819252145E-10  1.62279893059257E-02
 cg2d: Sum(rhs),rhsMax =   8.46960349076831E-10  1.62277833086335E-02
 cg2d: Sum(rhs),rhsMax =   8.47016373706211E-10  1.62275719781181E-02
 cg2d: Sum(rhs),rhsMax =   8.47079989485522E-10  1.62273552757078E-02
 cg2d: Sum(rhs),rhsMax =   8.47139303150612E-10  1.62271331747301E-02
 cg2d: Sum(rhs),rhsMax =   8.47195966158232E-10  1.62269056742993E-02
 cg2d: Sum(rhs),rhsMax =   8.47249173596687E-10  1.62266727856902E-02
 cg2d: Sum(rhs),rhsMax =   8.47293693539974E-10  1.62264345377426E-02
 cg2d: Sum(rhs),rhsMax =   8.47353007205065E-10  1.62261909773589E-02
 cg2d: Sum(rhs),rhsMax =   8.47407893855845E-10  1.62259421663227E-02
 cg2d: Sum(rhs),rhsMax =   8.47463502151591E-10  1.62256881819847E-02
 cg2d: Sum(rhs),rhsMax =   8.47533529468869E-10  1.62254291141448E-02
 cg2d: Sum(rhs),rhsMax =   8.47589901042944E-10  1.62251650678356E-02
 cg2d: Sum(rhs),rhsMax =   8.47642248058555E-10  1.62248961626743E-02
 cg2d: Sum(rhs),rhsMax =   8.47692652183873E-10  1.62246225277706E-02
 cg2d: Sum(rhs),rhsMax =   8.47759057398534E-10  1.62243443061594E-02
 cg2d: Sum(rhs),rhsMax =   8.47820147420464E-10  1.62240616498862E-02
 cg2d: Sum(rhs),rhsMax =   8.47867123732193E-10  1.62237747216034E-02
 cg2d: Sum(rhs),rhsMax =   8.47917333568482E-10  1.62234836939233E-02
 cg2d: Sum(rhs),rhsMax =   8.47968112394071E-10  1.62231887443801E-02
 cg2d: Sum(rhs),rhsMax =   8.48027079114466E-10  1.62228900627511E-02
 cg2d: Sum(rhs),rhsMax =   8.48085379701047E-10  1.62225878420338E-02
 cg2d: Sum(rhs),rhsMax =   8.48147371779184E-10  1.62222822823340E-02
 cg2d: Sum(rhs),rhsMax =   8.48212805548698E-10  1.62219735880071E-02
 cg2d: Sum(rhs),rhsMax =   8.48278669529634E-10  1.62216619677186E-02
 cg2d: Sum(rhs),rhsMax =   8.48323383761951E-10  1.62213476348898E-02
 cg2d: Sum(rhs),rhsMax =   8.48383682749976E-10  1.62210308035654E-02
 cg2d: Sum(rhs),rhsMax =   8.48441081280349E-10  1.62207116921856E-02
 cg2d: Sum(rhs),rhsMax =   8.48501616190767E-10  1.62203905169188E-02
 cg2d: Sum(rhs),rhsMax =   8.48572212497345E-10  1.62200674978906E-02
 cg2d: Sum(rhs),rhsMax =   8.48633274763699E-10  1.62197428547165E-02
 cg2d: Sum(rhs),rhsMax =   8.48698208932852E-10  1.62194168033699E-02
 cg2d: Sum(rhs),rhsMax =   8.48758632820967E-10  1.62190895619674E-02
 cg2d: Sum(rhs),rhsMax =   8.48807246711658E-10  1.62187613460518E-02
 cg2d: Sum(rhs),rhsMax =   8.48869780023520E-10  1.62184323675311E-02
 cg2d: Sum(rhs),rhsMax =   8.48933798258678E-10  1.62181028377589E-02
 cg2d: Sum(rhs),rhsMax =   8.48986103640925E-10  1.62177729626164E-02
 cg2d: Sum(rhs),rhsMax =   8.49049872075902E-10  1.62174429471151E-02
 cg2d: Sum(rhs),rhsMax =   8.49117692824919E-10  1.62171129901085E-02
 cg2d: Sum(rhs),rhsMax =   8.49174799921748E-10  1.62167832891133E-02
 cg2d: Sum(rhs),rhsMax =   8.49220971321785E-10  1.62164540340791E-02
 cg2d: Sum(rhs),rhsMax =   8.49282200121593E-10  1.62161254119577E-02
 cg2d: Sum(rhs),rhsMax =   8.49344344855396E-10  1.62157976075157E-02
 cg2d: Sum(rhs),rhsMax =   8.49406531222563E-10  1.62154707964261E-02
 cg2d: Sum(rhs),rhsMax =   8.49465872643229E-10  1.62151451518418E-02
 cg2d: Sum(rhs),rhsMax =   8.49526116120103E-10  1.62148208413534E-02
 cg2d: Sum(rhs),rhsMax =   8.49586775930611E-10  1.62144980284892E-02
 cg2d: Sum(rhs),rhsMax =   8.49643744249562E-10  1.62141768712505E-02
 cg2d: Sum(rhs),rhsMax =   8.49700879101967E-10  1.62138575208275E-02
 cg2d: Sum(rhs),rhsMax =   8.49761594423626E-10  1.62135401280656E-02
 cg2d: Sum(rhs),rhsMax =   8.49803047375808E-10  1.62132248311287E-02
 cg2d: Sum(rhs),rhsMax =   8.49864026375435E-10  1.62129117734231E-02
 cg2d: Sum(rhs),rhsMax =   8.49920425705086E-10  1.62126010869767E-02
 cg2d: Sum(rhs),rhsMax =   8.49988829321191E-10  1.62122929012068E-02
 cg2d: Sum(rhs),rhsMax =   8.50043258004973E-10  1.62119873393237E-02
 cg2d: Sum(rhs),rhsMax =   8.50112660821800E-10  1.62116841830763E-02
 cg2d: Sum(rhs),rhsMax =   8.50162218402062E-10  1.62113838922694E-02
 cg2d: Sum(rhs),rhsMax =   8.50230982840650E-10  1.62110865855334E-02
 cg2d: Sum(rhs),rhsMax =   8.50289533227411E-10  1.62107923754483E-02
 cg2d: Sum(rhs),rhsMax =   8.50349415881801E-10  1.62105013714401E-02
 cg2d: Sum(rhs),rhsMax =   8.50416251307884E-10  1.62102136822849E-02
 cg2d: Sum(rhs),rhsMax =   8.50462034129862E-10  1.62099294082558E-02
 cg2d: Sum(rhs),rhsMax =   8.50511369665519E-10  1.62096486483901E-02
 cg2d: Sum(rhs),rhsMax =   8.50557305143163E-10  1.62093715003981E-02
 cg2d: Sum(rhs),rhsMax =   8.50625514470238E-10  1.62090980563565E-02
 cg2d: Sum(rhs),rhsMax =   8.50687756348556E-10  1.62088284061758E-02
 cg2d: Sum(rhs),rhsMax =   8.50743378522090E-10  1.62085626351936E-02
 cg2d: Sum(rhs),rhsMax =   8.50794087958739E-10  1.62083008279080E-02
 cg2d: Sum(rhs),rhsMax =   8.50848599909249E-10  1.62080430642497E-02
 cg2d: Sum(rhs),rhsMax =   8.50904860461021E-10  1.62077894198999E-02
 cg2d: Sum(rhs),rhsMax =   8.50957276865572E-10  1.62075399694125E-02
 cg2d: Sum(rhs),rhsMax =   8.51016257463755E-10  1.62072947863619E-02
 cg2d: Sum(rhs),rhsMax =   8.51073045371464E-10  1.62070539401112E-02
 cg2d: Sum(rhs),rhsMax =   8.51126391587798E-10  1.62068174952121E-02
 cg2d: Sum(rhs),rhsMax =   8.51188536321601E-10  1.62065855137934E-02
 cg2d: Sum(rhs),rhsMax =   8.51241688248905E-10  1.62063580505424E-02
 cg2d: Sum(rhs),rhsMax =   8.51300280269029E-10  1.62061351603088E-02
 cg2d: Sum(rhs),rhsMax =   8.51359233111637E-10  1.62059168931414E-02
 cg2d: Sum(rhs),rhsMax =   8.51416437352981E-10  1.62057032931346E-02
 cg2d: Sum(rhs),rhsMax =   8.51470838281188E-10  1.62054944031442E-02
 cg2d: Sum(rhs),rhsMax =   8.51523726530523E-10  1.62052902602920E-02
 cg2d: Sum(rhs),rhsMax =   8.51568607296294E-10  1.62050908950783E-02
 cg2d: Sum(rhs),rhsMax =   8.51634263110412E-10  1.62048963366627E-02
 cg2d: Sum(rhs),rhsMax =   8.51684972547062E-10  1.62047066084865E-02
 cg2d: Sum(rhs),rhsMax =   8.51728174100508E-10  1.62045217285940E-02
 cg2d: Sum(rhs),rhsMax =   8.51772735677159E-10  1.62043417076296E-02
 cg2d: Sum(rhs),rhsMax =   8.51835060822204E-10  1.62041665523099E-02
 cg2d: Sum(rhs),rhsMax =   8.51877832164227E-10  1.62039962637634E-02
 cg2d: Sum(rhs),rhsMax =   8.51933606993427E-10  1.62038308685012E-02
 cg2d: Sum(rhs),rhsMax =   8.51968967596761E-10  1.62036702807742E-02
 cg2d: Sum(rhs),rhsMax =   8.52018927632869E-10  1.62035145088165E-02
 cg2d: Sum(rhs),rhsMax =   8.52052386979274E-10  1.62033635594474E-02
 cg2d: Sum(rhs),rhsMax =   8.52098502868159E-10  1.62032173919665E-02
(PID.TID 0000.0001)      cg2d_init_res =   1.00388641104345E-04
(PID.TID 0000.0001)      cg2d_iters(min,last) =      -1      39
(PID.TID 0000.0001)      cg2d_last_res =   7.05993935440382E-14
(PID.TID 0000.0001) // =======================================================
(PID.TID 0000.0001) // Begin MONITOR dynamic field statistics
(PID.TID 0000.0001) // =======================================================
(PID.TID 0000.0001) %MON time_tsnumber                =                 19872
(PID.TID 0000.0001) %MON time_secondsf                =   4.9680000000000E+05
(PID.TID 0000.0001) %MON dynstat_eta_max              =   5.0669557367292E-03
(PID.TID 0000.0001) %MON dynstat_eta_min              =  -2.5124770777307E-03
(PID.TID 0000.0001) %MON dynstat_eta_mean             =  -9.2461158790553E-14
(PID.TID 0000.0001) %MON dynstat_eta_sd               =   2.5681503881401E-03
(PID.TID 0000.0001) %MON dynstat_eta_del2             =   2.1244393955999E-05
(PID.TID 0000.0001) %MON dynstat_uvel_max             =   4.5365645360126E-02
(PID.TID 0000.0001) %MON dynstat_uvel_min             =  -4.2162441832217E-02
(PID.TID 0000.0001) %MON dynstat_uvel_mean            =   6.7231823610235E-09
(PID.TID 0000.0001) %MON dynstat_uvel_sd              =   6.4722122023579E-03
(PID.TID 0000.0001) %MON dynstat_uvel_del2            =   1.0192786601319E-04
(PID.TID 0000.0001) %MON dynstat_vvel_max             =   2.3099254834295E-02
(PID.TID 0000.0001) %MON dynstat_vvel_min             =  -3.2487671980875E-02
(PID.TID 0000.0001) %MON dynstat_vvel_mean            =  -8.0919745111375E-03
(PID.TID 0000.0001) %MON dynstat_vvel_sd              =   1.1518658330134E-02
(PID.TID 0000.0001) %MON dynstat_vvel_del2            =   9.1328828011405E-05
(PID.TID 0000.0001) %MON dynstat_wvel_max             =   1.4017490656160E-03
(PID.TID 0000.0001) %MON dynstat_wvel_min             =  -1.0868706119981E-03
(PID.TID 0000.0001) %MON dynstat_wvel_mean            =   1.9625052428061E-20
(PID.TID 0000.0001) %MON dynstat_wvel_sd              =   1.2572549026519E-04
(PID.TID 0000.0001) %MON dynstat_wvel_del2            =   6.3947832431786E-06
(PID.TID 0000.0001) %MON dynstat_theta_max            =   2.6931451612903E+00
(PID.TID 0000.0001) %MON dynstat_theta_min            =  -6.1011118477169E-01
(PID.TID 0000.0001) %MON dynstat_theta_mean           =   2.2234409930684E+00
(PID.TID 0000.0001) %MON dynstat_theta_sd             =   5.1977970539026E-01
(PID.TID 0000.0001) %MON dynstat_theta_del2           =   1.5994865723458E-03
(PID.TID 0000.0001) %MON dynstat_salt_max             =   3.4699999999999E+01
(PID.TID 0000.0001) %MON dynstat_salt_min             =   3.3029677053139E+01
(PID.TID 0000.0001) %MON dynstat_salt_mean            =   3.4364102857259E+01
(PID.TID 0000.0001) %MON dynstat_salt_sd              =   3.2242543539419E-01
(PID.TID 0000.0001) %MON dynstat_salt_del2            =   1.9487946244675E-04
(PID.TID 0000.0001) %MON advcfl_uvel_max              =   2.2682822680063E-03
(PID.TID 0000.0001) %MON advcfl_vvel_max              =   1.6243835990438E-03
(PID.TID 0000.0001) %MON advcfl_wvel_max              =   6.6130511226587E-04
(PID.TID 0000.0001) %MON advcfl_W_hf_max              =   1.4059931492632E-03
(PID.TID 0000.0001) %MON pe_b_mean                    =   5.5028234117191E-08
(PID.TID 0000.0001) %MON ke_max                       =   9.5519106815411E-04
(PID.TID 0000.0001) %MON ke_mean                      =   1.1006281254279E-04
(PID.TID 0000.0001) %MON ke_vol                       =   3.2921708585402E+10
(PID.TID 0000.0001) // =======================================================
(PID.TID 0000.0001) // End MONITOR dynamic field statistics
(PID.TID 0000.0001) // =======================================================
(PID.TID 0000.0001) // =======================================================
(PID.TID 0000.0001) // Begin OBCS MONITOR field statistics
(PID.TID 0000.0001) // =======================================================
(PID.TID 0000.0001) %MON obc_E_uVel_max               =   0.0000000000000E+00
(PID.TID 0000.0001) %MON obc_E_uVel_min               =   0.0000000000000E+00
(PID.TID 0000.0001) %MON obc_E_uVel_mean              =   0.0000000000000E+00
(PID.TID 0000.0001) %MON obc_E_uVel_sd                =   0.0000000000000E+00
(PID.TID 0000.0001) %MON obc_E_uVel_Int               =   0.0000000000000E+00
(PID.TID 0000.0001) %MON obc_N_vVel_max               =  -3.6115799844846E-05
(PID.TID 0000.0001) %MON obc_N_vVel_min               =  -3.0000000000000E-02
(PID.TID 0000.0001) %MON obc_N_vVel_mean              =  -1.3225455303334E-02
(PID.TID 0000.0001) %MON obc_N_vVel_sd                =   1.1350864292742E-02
(PID.TID 0000.0001) %MON obc_N_vVel_Int               =  -5.9514548865004E+04
(PID.TID 0000.0001) %MON obc_S_vVel_max               =  -3.6115799844846E-05
(PID.TID 0000.0001) %MON obc_S_vVel_min               =  -3.0000000000000E-02
(PID.TID 0000.0001) %MON obc_S_vVel_mean              =  -1.3225455303334E-02
(PID.TID 0000.0001) %MON obc_S_vVel_sd                =   1.1350864292742E-02
(PID.TID 0000.0001) %MON obc_S_vVel_Int               =  -5.9514548865004E+04
(PID.TID 0000.0001) // =======================================================
(PID.TID 0000.0001) // End OBCS MONITOR field statistics
(PID.TID 0000.0001) // =======================================================
 Computing Diagnostic #    26 "THETA   " (list#  1) Parms "SMR     MR      ", Count=     144
 Computing Diagnostic #    27 "SALT    " (list#  1) Parms "SMR     MR      ", Count=     144
 Computing Diagnostic #    30 "UVEL    " (list#  1) Parms "UUR     MR      ", Count=     144
             Vector  Mate for "UVEL    " :  Diagnostic #     31 "VVEL    " exists
 Computing Diagnostic #    32 "WVEL    " (list#  1) Parms "WM      LR      ", Count=     144
 Computing Diagnostic #    31 "VVEL    " (list#  1) Parms "VVR     MR      ", Count=     144
             Vector  Mate for "VVEL    " :  Diagnostic #     30 "UVEL    " exists
 Computing Diagnostic #   197 "BRGfwFlx" (list#  2) Parms "SM      MR      ", Count=     144
 Computing Diagnostic #   198 "BRGhtFlx" (list#  2) Parms "SM      MR      ", Count=     144
 Computing Diagnostic #   199 "BRGmltRt" (list#  2) Parms "SM      MR      ", Count=     144
 Computing Diagnostic #   201 "BRG_TauX" (list#  2) Parms "UU      MR      ", Count=    1728
 Computing Diagnostic #   202 "BRG_TauY" (list#  2) Parms "VV      MR      ", Count=    1728
 Computing Diagnostic #   203 "BRGhFacC" (list#  2) Parms "SM      MR      ", Count=    1728
 cg2d: Sum(rhs),rhsMax =   8.52147144514426E-10  1.62030759542414E-02
 cg2d: Sum(rhs),rhsMax =   8.52210524371344E-10  1.62029392018051E-02
 cg2d: Sum(rhs),rhsMax =   8.52253739802578E-10  1.62028070798764E-02
 cg2d: Sum(rhs),rhsMax =   8.52299314457738E-10  1.62026795307823E-02
 cg2d: Sum(rhs),rhsMax =   8.52349274493847E-10  1.62025564823150E-02
 cg2d: Sum(rhs),rhsMax =   8.52391573991085E-10  1.62024378602785E-02
 cg2d: Sum(rhs),rhsMax =   8.52450207644573E-10  1.62023544789540E-02
 cg2d: Sum(rhs),rhsMax =   8.52484666191700E-10  1.62022750551049E-02
 cg2d: Sum(rhs),rhsMax =   8.52533307837966E-10  1.62021991469249E-02
 cg2d: Sum(rhs),rhsMax =   8.52579326582337E-10  1.62021265095652E-02
 cg2d: Sum(rhs),rhsMax =   8.52625997582734E-10  1.62020567181407E-02
 cg2d: Sum(rhs),rhsMax =   8.52664744366294E-10  1.62019893966808E-02
 cg2d: Sum(rhs),rhsMax =   8.52712608856443E-10  1.62019241819097E-02
 cg2d: Sum(rhs),rhsMax =   8.52750037250161E-10  1.62018607085056E-02
 cg2d: Sum(rhs),rhsMax =   8.52794584949024E-10  1.62017986225249E-02
 cg2d: Sum(rhs),rhsMax =   8.52840603693394E-10  1.62017375739939E-02
 cg2d: Sum(rhs),rhsMax =   8.52880766011310E-10  1.62016772207477E-02
 cg2d: Sum(rhs),rhsMax =   8.52940135187552E-10  1.62016172351390E-02
 cg2d: Sum(rhs),rhsMax =   8.52984807786505E-10  1.62015572980606E-02
 cg2d: Sum(rhs),rhsMax =   8.53037959713809E-10  1.62014971046086E-02
 cg2d: Sum(rhs),rhsMax =   8.53086726260166E-10  1.62014363632179E-02
 cg2d: Sum(rhs),rhsMax =   8.53144443979659E-10  1.62013747950964E-02
 cg2d: Sum(rhs),rhsMax =   8.53177015147644E-10  1.62013121388197E-02
 cg2d: Sum(rhs),rhsMax =   8.53225740060637E-10  1.62012481497205E-02
 cg2d: Sum(rhs),rhsMax =   8.53277656864826E-10  1.62011825970116E-02
 cg2d: Sum(rhs),rhsMax =   8.53306647563556E-10  1.62011097654521E-02
 cg2d: Sum(rhs),rhsMax =   8.53347628670953E-10  1.62010332723119E-02
 cg2d: Sum(rhs),rhsMax =   8.53390372257401E-10  1.62009543409185E-02
 cg2d: Sum(rhs),rhsMax =   8.53427412073060E-10  1.62008731900318E-02
 cg2d: Sum(rhs),rhsMax =   8.53484366514223E-10  1.62007898161806E-02
 cg2d: Sum(rhs),rhsMax =   8.53513593135347E-10  1.62007041668004E-02
 cg2d: Sum(rhs),rhsMax =   8.53572712511408E-10  1.62006161903936E-02
 cg2d: Sum(rhs),rhsMax =   8.53616927143364E-10  1.62005258427667E-02
 cg2d: Sum(rhs),rhsMax =   8.53667789235679E-10  1.62004330994584E-02
 cg2d: Sum(rhs),rhsMax =   8.53722217919461E-10  1.62003379506180E-02
 cg2d: Sum(rhs),rhsMax =   8.53777229470332E-10  1.62002404106743E-02
 cg2d: Sum(rhs),rhsMax =   8.53844023263051E-10  1.62001404962267E-02
 cg2d: Sum(rhs),rhsMax =   8.53883172502456E-10  1.62000382399126E-02
 cg2d: Sum(rhs),rhsMax =   8.53943540879420E-10  1.61999336963032E-02
 cg2d: Sum(rhs),rhsMax =   8.53994708283068E-10  1.61998269321788E-02
 cg2d: Sum(rhs),rhsMax =   8.54050108411997E-10  1.61997180301525E-02
 cg2d: Sum(rhs),rhsMax =   8.54094489577406E-10  1.61996070906074E-02
 cg2d: Sum(rhs),rhsMax =   8.54141923856133E-10  1.61994942160033E-02
 cg2d: Sum(rhs),rhsMax =   8.54193799026959E-10  1.61993795217788E-02
 cg2d: Sum(rhs),rhsMax =   8.54249129766949E-10  1.61992631343573E-02
 cg2d: Sum(rhs),rhsMax =   8.54290582719130E-10  1.61991451883528E-02
 cg2d: Sum(rhs),rhsMax =   8.54336421052260E-10  1.61990258238078E-02
 cg2d: Sum(rhs),rhsMax =   8.54382231629813E-10  1.61989051909478E-02
 cg2d: Sum(rhs),rhsMax =   8.54429235697118E-10  1.61987834424282E-02
 cg2d: Sum(rhs),rhsMax =   8.54474643818826E-10  1.61986607374242E-02
 cg2d: Sum(rhs),rhsMax =   8.54537995920168E-10  1.61985372341889E-02
 cg2d: Sum(rhs),rhsMax =   8.54581655440612E-10  1.61984130975506E-02
 cg2d: Sum(rhs),rhsMax =   8.54626619473109E-10  1.61982884877937E-02
 cg2d: Sum(rhs),rhsMax =   8.54683698814362E-10  1.61981635690686E-02
 cg2d: Sum(rhs),rhsMax =   8.54736642574849E-10  1.61980385006235E-02
 cg2d: Sum(rhs),rhsMax =   8.54786644244321E-10  1.61979134418163E-02
 cg2d: Sum(rhs),rhsMax =   8.54832579721965E-10  1.61977885434682E-02
 cg2d: Sum(rhs),rhsMax =   8.54879167455636E-10  1.61976639554726E-02
 cg2d: Sum(rhs),rhsMax =   8.54929488314227E-10  1.61975398175941E-02
 cg2d: Sum(rhs),rhsMax =   8.54962017848848E-10  1.61974162637497E-02
 cg2d: Sum(rhs),rhsMax =   8.55013226885859E-10  1.61972934212885E-02
 cg2d: Sum(rhs),rhsMax =   8.55064741234202E-10  1.61971714028104E-02
 cg2d: Sum(rhs),rhsMax =   8.55113257980378E-10  1.61970503164936E-02
 cg2d: Sum(rhs),rhsMax =   8.55157167301002E-10  1.61969302547711E-02
 cg2d: Sum(rhs),rhsMax =   8.55207057948171E-10  1.61968113002116E-02
 cg2d: Sum(rhs),rhsMax =   8.55255546938771E-10  1.61966935233852E-02
 cg2d: Sum(rhs),rhsMax =   8.55300316682239E-10  1.61965769775347E-02
 cg2d: Sum(rhs),rhsMax =   8.55350637540830E-10  1.61964617086075E-02
 cg2d: Sum(rhs),rhsMax =   8.55394990950664E-10  1.61963477412550E-02
 cg2d: Sum(rhs),rhsMax =   8.55447476744153E-10  1.61962350898118E-02
 cg2d: Sum(rhs),rhsMax =   8.55493814677644E-10  1.61961237568036E-02
 cg2d: Sum(rhs),rhsMax =   8.55547535594248E-10  1.61960137059660E-02
 cg2d: Sum(rhs),rhsMax =   8.55600396088008E-10  1.61959049140134E-02
 cg2d: Sum(rhs),rhsMax =   8.55651480224928E-10  1.61957973312457E-02
 cg2d: Sum(rhs),rhsMax =   8.55706172586679E-10  1.61956908890317E-02
 cg2d: Sum(rhs),rhsMax =   8.55756354667392E-10  1.61955855046567E-02
 cg2d: Sum(rhs),rhsMax =   8.55805454280656E-10  1.61954810778699E-02
 cg2d: Sum(rhs),rhsMax =   8.55854193071437E-10  1.61953774974708E-02
 cg2d: Sum(rhs),rhsMax =   8.55901793883618E-10  1.61952746374460E-02
 cg2d: Sum(rhs),rhsMax =   8.55956153178461E-10  1.61951723641607E-02
 cg2d: Sum(rhs),rhsMax =   8.56004184202064E-10  1.61950704910886E-02
 cg2d: Sum(rhs),rhsMax =   8.56055407116862E-10  1.61949688608256E-02
 cg2d: Sum(rhs),rhsMax =   8.56101467494597E-10  1.61948672922804E-02
 cg2d: Sum(rhs),rhsMax =   8.56158186013367E-10  1.61947655845445E-02
 cg2d: Sum(rhs),rhsMax =   8.56211407329610E-10  1.61946635274157E-02
 cg2d: Sum(rhs),rhsMax =   8.56258841608337E-10  1.61945608989599E-02
 cg2d: Sum(rhs),rhsMax =   8.56294424256276E-10  1.61944574680777E-02
 cg2d: Sum(rhs),rhsMax =   8.56349435807147E-10  1.61943529919114E-02
 cg2d: Sum(rhs),rhsMax =   8.56395676596122E-10  1.61942472204684E-02
 cg2d: Sum(rhs),rhsMax =   8.56440557361893E-10  1.61941398960380E-02
 cg2d: Sum(rhs),rhsMax =   8.56497664458722E-10  1.61940307526427E-02
 cg2d: Sum(rhs),rhsMax =   8.56535592452801E-10  1.61939195214124E-02
 cg2d: Sum(rhs),rhsMax =   8.56585344322092E-10  1.61938059326823E-02
 cg2d: Sum(rhs),rhsMax =   8.56631668377794E-10  1.61936897008239E-02
 cg2d: Sum(rhs),rhsMax =   8.56690107742253E-10  1.61935705418122E-02
 cg2d: Sum(rhs),rhsMax =   8.56744911126306E-10  1.61934481791742E-02
 cg2d: Sum(rhs),rhsMax =   8.56796009141014E-10  1.61933223347021E-02
 cg2d: Sum(rhs),rhsMax =   8.56850382313645E-10  1.61931927272323E-02
 cg2d: Sum(rhs),rhsMax =   8.56905782442574E-10  1.61930590794957E-02
 cg2d: Sum(rhs),rhsMax =   8.56956020034438E-10  1.61929211192118E-02
 cg2d: Sum(rhs),rhsMax =   8.57001011822511E-10  1.61927785797606E-02
 cg2d: Sum(rhs),rhsMax =   8.57054302527693E-10  1.61926311992586E-02
 cg2d: Sum(rhs),rhsMax =   8.57103180096352E-10  1.61924787245394E-02
 cg2d: Sum(rhs),rhsMax =   8.57160259437606E-10  1.61923209082229E-02
 cg2d: Sum(rhs),rhsMax =   8.57217213878769E-10  1.61921575161854E-02
 cg2d: Sum(rhs),rhsMax =   8.57272780541152E-10  1.61919883259741E-02
 cg2d: Sum(rhs),rhsMax =   8.57334411796806E-10  1.61918131230090E-02
 cg2d: Sum(rhs),rhsMax =   8.57392781772326E-10  1.61916317101881E-02
 cg2d: Sum(rhs),rhsMax =   8.57439161339180E-10  1.61914439023984E-02
 cg2d: Sum(rhs),rhsMax =   8.57503776319213E-10  1.61912495315527E-02
 cg2d: Sum(rhs),rhsMax =   8.57576953894323E-10  1.61910484417743E-02
 cg2d: Sum(rhs),rhsMax =   8.57644733009977E-10  1.61908404987655E-02
 cg2d: Sum(rhs),rhsMax =   8.57702145418138E-10  1.61906255832448E-02
 cg2d: Sum(rhs),rhsMax =   8.57767371020834E-10  1.61904035939255E-02
 cg2d: Sum(rhs),rhsMax =   8.57811793819607E-10  1.61901744498855E-02
 cg2d: Sum(rhs),rhsMax =   8.57866583325873E-10  1.61899380875768E-02
 cg2d: Sum(rhs),rhsMax =   8.57917376029249E-10  1.61896944648184E-02
 cg2d: Sum(rhs),rhsMax =   8.57976759083279E-10  1.61894435607004E-02
 cg2d: Sum(rhs),rhsMax =   8.58025095418213E-10  1.61891853721450E-02
 cg2d: Sum(rhs),rhsMax =   8.58082729870979E-10  1.61889199192524E-02
 cg2d: Sum(rhs),rhsMax =   8.58139892478960E-10  1.61886472408984E-02
 cg2d: Sum(rhs),rhsMax =   8.58189130870102E-10  1.61883674001247E-02
 cg2d: Sum(rhs),rhsMax =   8.58242685253252E-10  1.61880804765756E-02
 cg2d: Sum(rhs),rhsMax =   8.58284124327646E-10  1.61877865755547E-02
 cg2d: Sum(rhs),rhsMax =   8.58340273857117E-10  1.61874858178624E-02
 cg2d: Sum(rhs),rhsMax =   8.58396811964646E-10  1.61871783475860E-02
 cg2d: Sum(rhs),rhsMax =   8.58457013808156E-10  1.61868643297799E-02
 cg2d: Sum(rhs),rhsMax =   8.58500673328599E-10  1.61865439448443E-02
 cg2d: Sum(rhs),rhsMax =   8.58562165806376E-10  1.61862173957405E-02
 cg2d: Sum(rhs),rhsMax =   8.58625032185145E-10  1.61858849022031E-02
 cg2d: Sum(rhs),rhsMax =   8.58683554816331E-10  1.61855467001099E-02
 cg2d: Sum(rhs),rhsMax =   8.58746823650947E-10  1.61852030438601E-02
 cg2d: Sum(rhs),rhsMax =   8.58814033777300E-10  1.61848541999250E-02
 cg2d: Sum(rhs),rhsMax =   8.58890125687850E-10  1.61845004594359E-02
 cg2d: Sum(rhs),rhsMax =   8.58946899717772E-10  1.61841421121226E-02
 cg2d: Sum(rhs),rhsMax =   8.59004867237445E-10  1.61837794678798E-02
 cg2d: Sum(rhs),rhsMax =   8.59067844638517E-10  1.61834128567539E-02
 cg2d: Sum(rhs),rhsMax =   8.59152554655296E-10  1.61830426052976E-02
 cg2d: Sum(rhs),rhsMax =   8.59217891280295E-10  1.61826690524434E-02
 cg2d: Sum(rhs),rhsMax =   8.59289708832200E-10  1.61822925487123E-02
 cg2d: Sum(rhs),rhsMax =   8.59351534376884E-10  1.61819134508348E-02
 cg2d: Sum(rhs),rhsMax =   8.59422075172311E-10  1.61815321171748E-02
 cg2d: Sum(rhs),rhsMax =   8.59479570847199E-10  1.61811489137892E-02
 cg2d: Sum(rhs),rhsMax =   8.59541271491793E-10  1.61807642058311E-02
 Computing Diagnostic #    26 "THETA   " (list#  1) Parms "SMR     MR      ", Count=     144
 Computing Diagnostic #    27 "SALT    " (list#  1) Parms "SMR     MR      ", Count=     144
 Computing Diagnostic #    30 "UVEL    " (list#  1) Parms "UUR     MR      ", Count=     144
             Vector  Mate for "UVEL    " :  Diagnostic #     31 "VVEL    " exists
 Computing Diagnostic #    32 "WVEL    " (list#  1) Parms "WM      LR      ", Count=     144
 Computing Diagnostic #    31 "VVEL    " (list#  1) Parms "VVR     MR      ", Count=     144
             Vector  Mate for "VVEL    " :  Diagnostic #     30 "UVEL    " exists
 Computing Diagnostic #   197 "BRGfwFlx" (list#  2) Parms "SM      MR      ", Count=     144
 Computing Diagnostic #   198 "BRGhtFlx" (list#  2) Parms "SM      MR      ", Count=     144
 Computing Diagnostic #   199 "BRGmltRt" (list#  2) Parms "SM      MR      ", Count=     144
 Computing Diagnostic #   201 "BRG_TauX" (list#  2) Parms "UU      MR      ", Count=    1728
 Computing Diagnostic #   202 "BRG_TauY" (list#  2) Parms "VV      MR      ", Count=    1728
 Computing Diagnostic #   203 "BRGhFacC" (list#  2) Parms "SM      MR      ", Count=    1728
 cg2d: Sum(rhs),rhsMax =   8.59614351922389E-10  1.61803783603823E-02
 cg2d: Sum(rhs),rhsMax =   8.59664936458948E-10  1.61799917441900E-02
 cg2d: Sum(rhs),rhsMax =   8.59709817224719E-10  1.61796047207247E-02
 cg2d: Sum(rhs),rhsMax =   8.59764523464257E-10  1.61792176490021E-02
 cg2d: Sum(rhs),rhsMax =   8.59831081334583E-10  1.61788308912444E-02
 cg2d: Sum(rhs),rhsMax =   8.59881763015657E-10  1.61784447944492E-02
 cg2d: Sum(rhs),rhsMax =   8.59942450581741E-10  1.61780597006666E-02
 cg2d: Sum(rhs),rhsMax =   8.60009105596582E-10  1.61776759430400E-02
 cg2d: Sum(rhs),rhsMax =   8.60066906582801E-10  1.61772938414619E-02
 cg2d: Sum(rhs),rhsMax =   8.60124846346899E-10  1.61769137131721E-02
 cg2d: Sum(rhs),rhsMax =   8.60184562467836E-10  1.61765358556927E-02
 cg2d: Sum(rhs),rhsMax =   8.60252855061638E-10  1.61761605537274E-02
 cg2d: Sum(rhs),rhsMax =   8.60318399853455E-10  1.61757880777394E-02
 cg2d: Sum(rhs),rhsMax =   8.60377408207214E-10  1.61754186807534E-02
 cg2d: Sum(rhs),rhsMax =   8.60424426152306E-10  1.61750526028139E-02
 cg2d: Sum(rhs),rhsMax =   8.60488819087735E-10  1.61746900612962E-02
 cg2d: Sum(rhs),rhsMax =   8.60557611281898E-10  1.61743312563719E-02
 cg2d: Sum(rhs),rhsMax =   8.60609222774755E-10  1.61739763708591E-02
 cg2d: Sum(rhs),rhsMax =   8.60665205770772E-10  1.61736255615130E-02
 cg2d: Sum(rhs),rhsMax =   8.60720647533064E-10  1.61732789700610E-02
 cg2d: Sum(rhs),rhsMax =   8.60783638811924E-10  1.61729367144636E-02
 cg2d: Sum(rhs),rhsMax =   8.60833085369883E-10  1.61725988911816E-02
 cg2d: Sum(rhs),rhsMax =   8.60886917308790E-10  1.61722655748258E-02
 cg2d: Sum(rhs),rhsMax =   8.60947438341420E-10  1.61719368170563E-02
 cg2d: Sum(rhs),rhsMax =   8.60999757601455E-10  1.61716126504701E-02
 cg2d: Sum(rhs),rhsMax =   8.61060237000721E-10  1.61712930795998E-02
 cg2d: Sum(rhs),rhsMax =   8.61119370254571E-10  1.61709780921365E-02
 cg2d: Sum(rhs),rhsMax =   8.61169011101559E-10  1.61706676501531E-02
 cg2d: Sum(rhs),rhsMax =   8.61239801697167E-10  1.61703616969595E-02
 cg2d: Sum(rhs),rhsMax =   8.61289234377338E-10  1.61700601515339E-02
 cg2d: Sum(rhs),rhsMax =   8.61352295045137E-10  1.61697630253909E-02
 cg2d: Sum(rhs),rhsMax =   8.61412274844042E-10  1.61694701434721E-02
 cg2d: Sum(rhs),rhsMax =   8.61461610379699E-10  1.61691815026233E-02
 cg2d: Sum(rhs),rhsMax =   8.61530527473953E-10  1.61688969718465E-02
 cg2d: Sum(rhs),rhsMax =   8.61585122691189E-10  1.61686164173849E-02
 cg2d: Sum(rhs),rhsMax =   8.61634333326755E-10  1.61683396886864E-02
 cg2d: Sum(rhs),rhsMax =   8.61687915465481E-10  1.61680666174552E-02
 cg2d: Sum(rhs),rhsMax =   8.61749574476711E-10  1.61677970131535E-02
 cg2d: Sum(rhs),rhsMax =   8.61813467811778E-10  1.61675306681435E-02
 cg2d: Sum(rhs),rhsMax =   8.61861679246623E-10  1.61672673518075E-02
 cg2d: Sum(rhs),rhsMax =   8.61912374805485E-10  1.61670068242016E-02
 cg2d: Sum(rhs),rhsMax =   8.61968316168138E-10  1.61667488213119E-02
 cg2d: Sum(rhs),rhsMax =   8.62018650904517E-10  1.61664930691740E-02
 cg2d: Sum(rhs),rhsMax =   8.62077076391188E-10  1.61662392781829E-02
 cg2d: Sum(rhs),rhsMax =   8.62120097533392E-10  1.61659871474558E-02
 cg2d: Sum(rhs),rhsMax =   8.62175678073562E-10  1.61657363634395E-02
 cg2d: Sum(rhs),rhsMax =   8.62232021892062E-10  1.61654866059743E-02
 cg2d: Sum(rhs),rhsMax =   8.62283008884468E-10  1.61652375437483E-02
 cg2d: Sum(rhs),rhsMax =   8.62329402329109E-10  1.61649888401781E-02
 cg2d: Sum(rhs),rhsMax =   8.62391963396547E-10  1.61647401543120E-02
 cg2d: Sum(rhs),rhsMax =   8.62442922633377E-10  1.61644911415005E-02
 cg2d: Sum(rhs),rhsMax =   8.62508245380589E-10  1.61642414539680E-02
 cg2d: Sum(rhs),rhsMax =   8.62578466986896E-10  1.61639907447211E-02
 cg2d: Sum(rhs),rhsMax =   8.62641527654695E-10  1.61637386694593E-02
 cg2d: Sum(rhs),rhsMax =   8.62700508252878E-10  1.61634848848489E-02
 cg2d: Sum(rhs),rhsMax =   8.62755672459414E-10  1.61632290542145E-02
 cg2d: Sum(rhs),rhsMax =   8.62807603141391E-10  1.61629708472579E-02
 cg2d: Sum(rhs),rhsMax =   8.62867111095511E-10  1.61627099412450E-02
 cg2d: Sum(rhs),rhsMax =   8.62910978782772E-10  1.61624460179995E-02
 cg2d: Sum(rhs),rhsMax =   8.62963853154319E-10  1.61621787787389E-02
 cg2d: Sum(rhs),rhsMax =   8.63014784635574E-10  1.61619081095171E-02
 cg2d: Sum(rhs),rhsMax =   8.63070101497776E-10  1.61616337948187E-02
 cg2d: Sum(rhs),rhsMax =   8.63124335892529E-10  1.61613553320782E-02
 cg2d: Sum(rhs),rhsMax =   8.63168814202453E-10  1.61610724738452E-02
 cg2d: Sum(rhs),rhsMax =   8.63224811076257E-10  1.61607849923478E-02
 cg2d: Sum(rhs),rhsMax =   8.63290772201708E-10  1.61604926775419E-02
 cg2d: Sum(rhs),rhsMax =   8.63342244916687E-10  1.61601953417887E-02
 cg2d: Sum(rhs),rhsMax =   8.63400170802997E-10  1.61598928195310E-02
 cg2d: Sum(rhs),rhsMax =   8.63461580014047E-10  1.61595849672735E-02
 cg2d: Sum(rhs),rhsMax =   8.63526306016382E-10  1.61592716672969E-02
 cg2d: Sum(rhs),rhsMax =   8.63588575650276E-10  1.61589528255324E-02
 cg2d: Sum(rhs),rhsMax =   8.63650331806021E-10  1.61586283725256E-02
 cg2d: Sum(rhs),rhsMax =   8.63724869404336E-10  1.61582982625242E-02
 cg2d: Sum(rhs),rhsMax =   8.63783627957915E-10  1.61579624783266E-02
 cg2d: Sum(rhs),rhsMax =   8.63839930143051E-10  1.61576210371347E-02
 cg2d: Sum(rhs),rhsMax =   8.63899007885749E-10  1.61572739804641E-02
 cg2d: Sum(rhs),rhsMax =   8.63961124863977E-10  1.61569213675537E-02
 cg2d: Sum(rhs),rhsMax =   8.64022894897509E-10  1.61565632895994E-02
 cg2d: Sum(rhs),rhsMax =   8.64085150653615E-10  1.61561998587485E-02
 cg2d: Sum(rhs),rhsMax =   8.64149279911075E-10  1.61558312189202E-02
 cg2d: Sum(rhs),rhsMax =   8.64212271189935E-10  1.61554575381305E-02
 cg2d: Sum(rhs),rhsMax =   8.64283311585723E-10  1.61550790105816E-02
 cg2d: Sum(rhs),rhsMax =   8.64345650608556E-10  1.61546958515455E-02
 cg2d: Sum(rhs),rhsMax =   8.64420007795630E-10  1.61543083058867E-02
 cg2d: Sum(rhs),rhsMax =   8.64471799699729E-10  1.61539166360395E-02
 cg2d: Sum(rhs),rhsMax =   8.64539065337233E-10  1.61535211266703E-02
 cg2d: Sum(rhs),rhsMax =   8.64597241023723E-10  1.61531220855160E-02
 cg2d: Sum(rhs),rhsMax =   8.64661203747730E-10  1.61527198365232E-02
 cg2d: Sum(rhs),rhsMax =   8.64723737059592E-10  1.61523147210024E-02
 cg2d: Sum(rhs),rhsMax =   8.64791668830911E-10  1.61519070652417E-02
 cg2d: Sum(rhs),rhsMax =   8.64851981696724E-10  1.61514972168572E-02
 cg2d: Sum(rhs),rhsMax =   8.64911975373417E-10  1.61510855623721E-02
 cg2d: Sum(rhs),rhsMax =   8.64971136382842E-10  1.61506724973585E-02
 cg2d: Sum(rhs),rhsMax =   8.65037569353078E-10  1.61502584321942E-02
 cg2d: Sum(rhs),rhsMax =   8.65098881419613E-10  1.61498437843020E-02
 cg2d: Sum(rhs),rhsMax =   8.65162386176621E-10  1.61494289769636E-02
 cg2d: Sum(rhs),rhsMax =   8.65225502355571E-10  1.61490144385026E-02
 cg2d: Sum(rhs),rhsMax =   8.65295640695152E-10  1.61486006022297E-02
 cg2d: Sum(rhs),rhsMax =   8.65354815582364E-10  1.61481879015821E-02
 cg2d: Sum(rhs),rhsMax =   8.65416294182353E-10  1.61477767701752E-02
 cg2d: Sum(rhs),rhsMax =   8.65484364731550E-10  1.61473676365702E-02
 cg2d: Sum(rhs),rhsMax =   8.65564217522596E-10  1.61469609305333E-02
 cg2d: Sum(rhs),rhsMax =   8.65625571222495E-10  1.61465570708244E-02
 cg2d: Sum(rhs),rhsMax =   8.65705146457785E-10  1.61461564643469E-02
 cg2d: Sum(rhs),rhsMax =   8.65776061953483E-10  1.61457595186870E-02
 cg2d: Sum(rhs),rhsMax =   8.65837637697986E-10  1.61453666205433E-02
 cg2d: Sum(rhs),rhsMax =   8.65893690082942E-10  1.61449781507093E-02
 cg2d: Sum(rhs),rhsMax =   8.65957319740041E-10  1.61445944708576E-02
 cg2d: Sum(rhs),rhsMax =   8.66023266987703E-10  1.61442159307362E-02
 cg2d: Sum(rhs),rhsMax =   8.66102176089178E-10  1.61438428597224E-02
 cg2d: Sum(rhs),rhsMax =   8.66156452117295E-10  1.61434755698234E-02
 cg2d: Sum(rhs),rhsMax =   8.66206648075796E-10  1.61431143521780E-02
 cg2d: Sum(rhs),rhsMax =   8.66260979615063E-10  1.61427594756824E-02
 cg2d: Sum(rhs),rhsMax =   8.66315172376453E-10  1.61424111905705E-02
 cg2d: Sum(rhs),rhsMax =   8.66366672847008E-10  1.61420697195879E-02
 cg2d: Sum(rhs),rhsMax =   8.66418506384470E-10  1.61417352650768E-02
 cg2d: Sum(rhs),rhsMax =   8.66462096515974E-10  1.61414080029569E-02
 cg2d: Sum(rhs),rhsMax =   8.66530014409506E-10  1.61410880848333E-02
 cg2d: Sum(rhs),rhsMax =   8.66576768676630E-10  1.61407756336599E-02
 cg2d: Sum(rhs),rhsMax =   8.66632834939374E-10  1.61404707511172E-02
 cg2d: Sum(rhs),rhsMax =   8.66692606571462E-10  1.61401735084984E-02
 cg2d: Sum(rhs),rhsMax =   8.66750032857411E-10  1.61398839523883E-02
 cg2d: Sum(rhs),rhsMax =   8.66804766852525E-10  1.61396021031220E-02
 cg2d: Sum(rhs),rhsMax =   8.66860763726329E-10  1.61393279540609E-02
 cg2d: Sum(rhs),rhsMax =   8.66907864938149E-10  1.61390614723887E-02
 cg2d: Sum(rhs),rhsMax =   8.66962654444414E-10  1.61388026018201E-02
 cg2d: Sum(rhs),rhsMax =   8.67021399120205E-10  1.61385512609548E-02
 cg2d: Sum(rhs),rhsMax =   8.67069374632656E-10  1.61383073394125E-02
 cg2d: Sum(rhs),rhsMax =   8.67126398462759E-10  1.61380707081525E-02
 cg2d: Sum(rhs),rhsMax =   8.67172791907400E-10  1.61378412139702E-02
 cg2d: Sum(rhs),rhsMax =   8.67221863765089E-10  1.61376186799006E-02
 cg2d: Sum(rhs),rhsMax =   8.67267216375645E-10  1.61374029114478E-02
 cg2d: Sum(rhs),rhsMax =   8.67332983212066E-10  1.61371936922548E-02
 cg2d: Sum(rhs),rhsMax =   8.67390367864651E-10  1.61369907875841E-02
 cg2d: Sum(rhs),rhsMax =   8.67428295858730E-10  1.61367939455616E-02
 cg2d: Sum(rhs),rhsMax =   8.67479643673619E-10  1.61366028995449E-02
 cg2d: Sum(rhs),rhsMax =   8.67529867387695E-10  1.61364173665437E-02
 cg2d: Sum(rhs),rhsMax =   8.67573499152563E-10  1.61362370521775E-02
 cg2d: Sum(rhs),rhsMax =   8.67615965183255E-10  1.61360616496792E-02
 cg2d: Sum(rhs),rhsMax =   8.67674113114170E-10  1.61358908428948E-02
 cg2d: Sum(rhs),rhsMax =   8.67724309072671E-10  1.61357243070455E-02
 cg2d: Sum(rhs),rhsMax =   8.67771618451307E-10  1.61355617110447E-02
 cg2d: Sum(rhs),rhsMax =   8.67829322293012E-10  1.61354027165906E-02
 cg2d: Sum(rhs),rhsMax =   8.67868998888355E-10  1.61352469857239E-02
 Computing Diagnostic #    26 "THETA   " (list#  1) Parms "SMR     MR      ", Count=     144
 Computing Diagnostic #    27 "SALT    " (list#  1) Parms "SMR     MR      ", Count=     144
 Computing Diagnostic #    30 "UVEL    " (list#  1) Parms "UUR     MR      ", Count=     144
             Vector  Mate for "UVEL    " :  Diagnostic #     31 "VVEL    " exists
 Computing Diagnostic #    32 "WVEL    " (list#  1) Parms "WM      LR      ", Count=     144
 Computing Diagnostic #    31 "VVEL    " (list#  1) Parms "VVR     MR      ", Count=     144
             Vector  Mate for "VVEL    " :  Diagnostic #     30 "UVEL    " exists
 Computing Diagnostic #   197 "BRGfwFlx" (list#  2) Parms "SM      MR      ", Count=     144
 Computing Diagnostic #   198 "BRGhtFlx" (list#  2) Parms "SM      MR      ", Count=     144
 Computing Diagnostic #   199 "BRGmltRt" (list#  2) Parms "SM      MR      ", Count=     144
 Computing Diagnostic #   201 "BRG_TauX" (list#  2) Parms "UU      MR      ", Count=    1728
 Computing Diagnostic #   202 "BRG_TauY" (list#  2) Parms "VV      MR      ", Count=    1728
 Computing Diagnostic #   203 "BRGhFacC" (list#  2) Parms "SM      MR      ", Count=    1728
 cg2d: Sum(rhs),rhsMax =   8.67913546587218E-10  1.61350941757046E-02
 cg2d: Sum(rhs),rhsMax =   8.67962396400301E-10  1.61349439438029E-02
 cg2d: Sum(rhs),rhsMax =   8.68005708976050E-10  1.61347959493389E-02
 cg2d: Sum(rhs),rhsMax =   8.68053934288682E-10  1.61346498539457E-02
 cg2d: Sum(rhs),rhsMax =   8.68086394434364E-10  1.61345053251574E-02
 cg2d: Sum(rhs),rhsMax =   8.68148705701621E-10  1.61343620338869E-02
 cg2d: Sum(rhs),rhsMax =   8.68196736725224E-10  1.61342196593648E-02
 cg2d: Sum(rhs),rhsMax =   8.68233943074337E-10  1.61340778906576E-02
 cg2d: Sum(rhs),rhsMax =   8.68284083521687E-10  1.61339364277701E-02
 cg2d: Sum(rhs),rhsMax =   8.68327437730798E-10  1.61337949562772E-02
 cg2d: Sum(rhs),rhsMax =   8.68379909646499E-10  1.61336532194607E-02
 cg2d: Sum(rhs),rhsMax =   8.68427274536288E-10  1.61335109518670E-02
 cg2d: Sum(rhs),rhsMax =   8.68484811844539E-10  1.61333679058671E-02
 cg2d: Sum(rhs),rhsMax =   8.68534105746832E-10  1.61332238443504E-02
 cg2d: Sum(rhs),rhsMax =   8.68583774349396E-10  1.61330785490194E-02
 cg2d: Sum(rhs),rhsMax =   8.68628835526408E-10  1.61329318191490E-02
 cg2d: Sum(rhs),rhsMax =   8.68672730969244E-10  1.61327834693064E-02
 cg2d: Sum(rhs),rhsMax =   8.68723440405894E-10  1.61326333343577E-02
 cg2d: Sum(rhs),rhsMax =   8.68787819463535E-10  1.61324812669121E-02
 cg2d: Sum(rhs),rhsMax =   8.68835600686957E-10  1.61323271377299E-02
 cg2d: Sum(rhs),rhsMax =   8.68885685623155E-10  1.61321708348210E-02
 cg2d: Sum(rhs),rhsMax =   8.68926444685947E-10  1.61320122691026E-02
 cg2d: Sum(rhs),rhsMax =   8.68961527733525E-10  1.61318513626904E-02
 cg2d: Sum(rhs),rhsMax =   8.69009059156767E-10  1.61316880626610E-02
 cg2d: Sum(rhs),rhsMax =   8.69069607944972E-10  1.61315223338114E-02
 cg2d: Sum(rhs),rhsMax =   8.69106647760631E-10  1.61313541590444E-02
 cg2d: Sum(rhs),rhsMax =   8.69155455940351E-10  1.61311835405044E-02
 cg2d: Sum(rhs),rhsMax =   8.69205984965760E-10  1.61310104957589E-02
 cg2d: Sum(rhs),rhsMax =   8.69269975445341E-10  1.61308350636844E-02
 cg2d: Sum(rhs),rhsMax =   8.69321906127318E-10  1.61306572959977E-02
 cg2d: Sum(rhs),rhsMax =   8.69392113855838E-10  1.61304772606703E-02
 cg2d: Sum(rhs),rhsMax =   8.69441380002556E-10  1.61302950421583E-02
 cg2d: Sum(rhs),rhsMax =   8.69499222622139E-10  1.61301107371803E-02
 cg2d: Sum(rhs),rhsMax =   8.69552263527140E-10  1.61299244566030E-02
 cg2d: Sum(rhs),rhsMax =   8.69599406372323E-10  1.61297363245948E-02
 cg2d: Sum(rhs),rhsMax =   8.69658692281838E-10  1.61295464738424E-02
 cg2d: Sum(rhs),rhsMax =   8.69720795382278E-10  1.61293550504821E-02
 cg2d: Sum(rhs),rhsMax =   8.69774488543307E-10  1.61291622053097E-02
 cg2d: Sum(rhs),rhsMax =   8.69836813688352E-10  1.61289681020435E-02
 cg2d: Sum(rhs),rhsMax =   8.69886607191006E-10  1.61287729058592E-02
 cg2d: Sum(rhs),rhsMax =   8.69926242152985E-10  1.61285767905630E-02
 cg2d: Sum(rhs),rhsMax =   8.69980226747558E-10  1.61283799338530E-02
 cg2d: Sum(rhs),rhsMax =   8.70023983412516E-10  1.61281825131678E-02
 cg2d: Sum(rhs),rhsMax =   8.70071403813455E-10  1.61279772576096E-02
 cg2d: Sum(rhs),rhsMax =   8.70108929351687E-10  1.61277715590990E-02
 cg2d: Sum(rhs),rhsMax =   8.70162622512716E-10  1.61275659831311E-02
 cg2d: Sum(rhs),rhsMax =   8.70223920701463E-10  1.61273608272711E-02
 cg2d: Sum(rhs),rhsMax =   8.70276989362040E-10  1.61271563210693E-02
 cg2d: Sum(rhs),rhsMax =   8.70335109537379E-10  1.61269527728334E-02
 cg2d: Sum(rhs),rhsMax =   8.70386679396873E-10  1.61267503819579E-02
 cg2d: Sum(rhs),rhsMax =   8.70452890322504E-10  1.61265494320281E-02
 cg2d: Sum(rhs),rhsMax =   8.70500740934865E-10  1.61263501010479E-02
 cg2d: Sum(rhs),rhsMax =   8.70555294518738E-10  1.61261526499117E-02
 cg2d: Sum(rhs),rhsMax =   8.70616800874302E-10  1.61259572247317E-02
 cg2d: Sum(rhs),rhsMax =   8.70681179931942E-10  1.61257640564880E-02
 cg2d: Sum(rhs),rhsMax =   8.70731972635319E-10  1.61255732599885E-02
 cg2d: Sum(rhs),rhsMax =   8.70790162199597E-10  1.61253850270379E-02
 cg2d: Sum(rhs),rhsMax =   8.70832267407806E-10  1.61251994351475E-02
 cg2d: Sum(rhs),rhsMax =   8.70882005399309E-10  1.61250166367344E-02
 cg2d: Sum(rhs),rhsMax =   8.70930522145485E-10  1.61248366708949E-02
 cg2d: Sum(rhs),rhsMax =   8.70981772815860E-10  1.61246596424293E-02
 cg2d: Sum(rhs),rhsMax =   8.71031080595941E-10  1.61244855507488E-02
 cg2d: Sum(rhs),rhsMax =   8.71079361419724E-10  1.61243144532336E-02
 cg2d: Sum(rhs),rhsMax =   8.71128058577142E-10  1.61241463059967E-02
 cg2d: Sum(rhs),rhsMax =   8.71173577721152E-10  1.61239811208680E-02
 cg2d: Sum(rhs),rhsMax =   8.71214211883853E-10  1.61238188090695E-02
 cg2d: Sum(rhs),rhsMax =   8.71265323776349E-10  1.61236593350801E-02
 cg2d: Sum(rhs),rhsMax =   8.71296271243160E-10  1.61235025690260E-02
 cg2d: Sum(rhs),rhsMax =   8.71342636932226E-10  1.61233484292315E-02
 cg2d: Sum(rhs),rhsMax =   8.71383798450864E-10  1.61231967414820E-02
 cg2d: Sum(rhs),rhsMax =   8.71434049920516E-10  1.61230473839839E-02
 cg2d: Sum(rhs),rhsMax =   8.71481969921817E-10  1.61229001447138E-02
 cg2d: Sum(rhs),rhsMax =   8.71533803459279E-10  1.61227548619524E-02
 cg2d: Sum(rhs),rhsMax =   8.71581015693401E-10  1.61226112873566E-02
 cg2d: Sum(rhs),rhsMax =   8.71624897258449E-10  1.61224692220980E-02
 cg2d: Sum(rhs),rhsMax =   8.71679950442683E-10  1.61223283917687E-02
 cg2d: Sum(rhs),rhsMax =   8.71726996143352E-10  1.61221885624825E-02
 cg2d: Sum(rhs),rhsMax =   8.71767755206143E-10  1.61220494357838E-02
 cg2d: Sum(rhs),rhsMax =   8.71816757674893E-10  1.61219107531129E-02
 cg2d: Sum(rhs),rhsMax =   8.71861707829602E-10  1.61217721954878E-02
 cg2d: Sum(rhs),rhsMax =   8.71900135424042E-10  1.61216334843497E-02
 cg2d: Sum(rhs),rhsMax =   8.71941352453831E-10  1.61214942881596E-02
 cg2d: Sum(rhs),rhsMax =   8.71980071481815E-10  1.61213543131423E-02
 cg2d: Sum(rhs),rhsMax =   8.72018540709618E-10  1.61212132215063E-02
 cg2d: Sum(rhs),rhsMax =   8.72052735578777E-10  1.61210707132645E-02
 cg2d: Sum(rhs),rhsMax =   8.72105915261656E-10  1.61209264489079E-02
 cg2d: Sum(rhs),rhsMax =   8.72150726638488E-10  1.61207801253448E-02
 cg2d: Sum(rhs),rhsMax =   8.72193262058119E-10  1.61206314141906E-02
 cg2d: Sum(rhs),rhsMax =   8.72238573035311E-10  1.61204800158795E-02
 cg2d: Sum(rhs),rhsMax =   8.72295902176745E-10  1.61203256124375E-02
 cg2d: Sum(rhs),rhsMax =   8.72340852331455E-10  1.61201679168773E-02
 cg2d: Sum(rhs),rhsMax =   8.72398750462189E-10  1.61200066388110E-02
 cg2d: Sum(rhs),rhsMax =   8.72447752930938E-10  1.61198415160688E-02
 cg2d: Sum(rhs),rhsMax =   8.72499600346188E-10  1.61196722624795E-02
 cg2d: Sum(rhs),rhsMax =   8.72553446162883E-10  1.61194986471956E-02
 cg2d: Sum(rhs),rhsMax =   8.72594260736825E-10  1.61193203603590E-02
 cg2d: Sum(rhs),rhsMax =   8.72665384399340E-10  1.61191371320311E-02
 cg2d: Sum(rhs),rhsMax =   8.72713012967097E-10  1.61189488857305E-02
 cg2d: Sum(rhs),rhsMax =   8.72760752557156E-10  1.61187554301766E-02
 cg2d: Sum(rhs),rhsMax =   8.72816333097326E-10  1.61185565544240E-02
 cg2d: Sum(rhs),rhsMax =   8.72865252299349E-10  1.61183520948932E-02
 cg2d: Sum(rhs),rhsMax =   8.72919070360467E-10  1.61181419252906E-02
 cg2d: Sum(rhs),rhsMax =   8.72973623944340E-10  1.61179259384764E-02
 cg2d: Sum(rhs),rhsMax =   8.73024499914443E-10  1.61177040424754E-02
 cg2d: Sum(rhs),rhsMax =   8.73097982800886E-10  1.61174761642588E-02
 cg2d: Sum(rhs),rhsMax =   8.73156394409769E-10  1.61172422491980E-02
 cg2d: Sum(rhs),rhsMax =   8.73206743023935E-10  1.61170022645513E-02
 cg2d: Sum(rhs),rhsMax =   8.73258423905732E-10  1.61167561964886E-02
 cg2d: Sum(rhs),rhsMax =   8.73299418890916E-10  1.61165040556488E-02
 cg2d: Sum(rhs),rhsMax =   8.73351696517588E-10  1.61162458751906E-02
 cg2d: Sum(rhs),rhsMax =   8.73404265577804E-10  1.61159817068642E-02
 cg2d: Sum(rhs),rhsMax =   8.73465716422217E-10  1.61157116217882E-02
 cg2d: Sum(rhs),rhsMax =   8.73524905187217E-10  1.61154357107074E-02
 cg2d: Sum(rhs),rhsMax =   8.73575836668472E-10  1.61151540841671E-02
 cg2d: Sum(rhs),rhsMax =   8.73632652331757E-10  1.61148668709388E-02
 cg2d: Sum(rhs),rhsMax =   8.73683833613192E-10  1.61145742160009E-02
 cg2d: Sum(rhs),rhsMax =   8.73739164353182E-10  1.61142762767595E-02
 cg2d: Sum(rhs),rhsMax =   8.73791525246581E-10  1.61139732329449E-02
 cg2d: Sum(rhs),rhsMax =   8.73845676374607E-10  1.61136652726445E-02
 cg2d: Sum(rhs),rhsMax =   8.73899050346516E-10  1.61133525991461E-02
 cg2d: Sum(rhs),rhsMax =   8.73959918323841E-10  1.61130354233940E-02
 cg2d: Sum(rhs),rhsMax =   8.74023617369879E-10  1.61127139712938E-02
 cg2d: Sum(rhs),rhsMax =   8.74083305735240E-10  1.61123884725781E-02
 cg2d: Sum(rhs),rhsMax =   8.74140232420828E-10  1.61120591719737E-02
 cg2d: Sum(rhs),rhsMax =   8.74209149515082E-10  1.61117263136785E-02
 cg2d: Sum(rhs),rhsMax =   8.74260705496788E-10  1.61113901501399E-02
 cg2d: Sum(rhs),rhsMax =   8.74322822475015E-10  1.61110509397887E-02
 cg2d: Sum(rhs),rhsMax =   8.74392960814596E-10  1.61107089392473E-02
 cg2d: Sum(rhs),rhsMax =   8.74450567511786E-10  1.61103644112934E-02
 cg2d: Sum(rhs),rhsMax =   8.74513392257192E-10  1.61100176138557E-02
 cg2d: Sum(rhs),rhsMax =   8.74572358977588E-10  1.61096688066290E-02
 cg2d: Sum(rhs),rhsMax =   8.74623234947691E-10  1.61093182443158E-02
 cg2d: Sum(rhs),rhsMax =   8.74689112806415E-10  1.61089661798736E-02
 cg2d: Sum(rhs),rhsMax =   8.74756198032678E-10  1.61086128592413E-02
 cg2d: Sum(rhs),rhsMax =   8.74818259499754E-10  1.61082585197801E-02
 cg2d: Sum(rhs),rhsMax =   8.74880182188953E-10  1.61079033974889E-02
 cg2d: Sum(rhs),rhsMax =   8.74944311446413E-10  1.61075477147713E-02
 cg2d: Sum(rhs),rhsMax =   8.75009786849290E-10  1.61071916850545E-02
 cg2d: Sum(rhs),rhsMax =   8.75056721527656E-10  1.61068355139013E-02
 cg2d: Sum(rhs),rhsMax =   8.75128469690623E-10  1.61064793932381E-02
 cg2d: Sum(rhs),rhsMax =   8.75190017679550E-10  1.61061235056483E-02
 cg2d: Sum(rhs),rhsMax =   8.75242114894981E-10  1.61057680183428E-02
 cg2d: Sum(rhs),rhsMax =   8.75292852087206E-10  1.61054129995075E-02
 cg2d: Sum(rhs),rhsMax =   8.75345976258934E-10  1.61050585477087E-02
 Computing Diagnostic #    26 "THETA   " (list#  1) Parms "SMR     MR      ", Count=     144
 Computing Diagnostic #    27 "SALT    " (list#  1) Parms "SMR     MR      ", Count=     144
 Computing Diagnostic #    30 "UVEL    " (list#  1) Parms "UUR     MR      ", Count=     144
             Vector  Mate for "UVEL    " :  Diagnostic #     31 "VVEL    " exists
 Computing Diagnostic #    32 "WVEL    " (list#  1) Parms "WM      LR      ", Count=     144
 Computing Diagnostic #    31 "VVEL    " (list#  1) Parms "VVR     MR      ", Count=     144
             Vector  Mate for "VVEL    " :  Diagnostic #     30 "UVEL    " exists
 Computing Diagnostic #   197 "BRGfwFlx" (list#  2) Parms "SM      MR      ", Count=     144
 Computing Diagnostic #   198 "BRGhtFlx" (list#  2) Parms "SM      MR      ", Count=     144
 Computing Diagnostic #   199 "BRGmltRt" (list#  2) Parms "SM      MR      ", Count=     144
 Computing Diagnostic #   201 "BRG_TauX" (list#  2) Parms "UU      MR      ", Count=    1728
 Computing Diagnostic #   202 "BRG_TauY" (list#  2) Parms "VV      MR      ", Count=    1728
 Computing Diagnostic #   203 "BRGhFacC" (list#  2) Parms "SM      MR      ", Count=    1728
 cg2d: Sum(rhs),rhsMax =   8.75416739098966E-10  1.61047047577763E-02
 cg2d: Sum(rhs),rhsMax =   8.75477190742657E-10  1.61043517396900E-02
 cg2d: Sum(rhs),rhsMax =   8.75535921540660E-10  1.61039995906343E-02
 cg2d: Sum(rhs),rhsMax =   8.75590974724894E-10  1.61036483958711E-02
 cg2d: Sum(rhs),rhsMax =   8.75640088215945E-10  1.61032982279554E-02
 cg2d: Sum(rhs),rhsMax =   8.75700539859636E-10  1.61029491460838E-02
 cg2d: Sum(rhs),rhsMax =   8.75772593333934E-10  1.61026011969121E-02
 cg2d: Sum(rhs),rhsMax =   8.75835723390672E-10  1.61022544120759E-02
 cg2d: Sum(rhs),rhsMax =   8.75895897478607E-10  1.61019088158074E-02
 cg2d: Sum(rhs),rhsMax =   8.75962427593358E-10  1.61015644159435E-02
 cg2d: Sum(rhs),rhsMax =   8.76024253138041E-10  1.61012212119312E-02
 cg2d: Sum(rhs),rhsMax =   8.76090949786246E-10  1.61008791901580E-02
 cg2d: Sum(rhs),rhsMax =   8.76156869278333E-10  1.61005383290487E-02
 cg2d: Sum(rhs),rhsMax =   8.76224967583106E-10  1.61001985946990E-02
 cg2d: Sum(rhs),rhsMax =   8.76287375994877E-10  1.60998599444463E-02
 cg2d: Sum(rhs),rhsMax =   8.76343150824077E-10  1.60995223306093E-02
 cg2d: Sum(rhs),rhsMax =   8.76396732962803E-10  1.60991856955444E-02
 cg2d: Sum(rhs),rhsMax =   8.76474573474617E-10  1.60988499742375E-02
 cg2d: Sum(rhs),rhsMax =   8.76530376059392E-10  1.60985150960381E-02
 cg2d: Sum(rhs),rhsMax =   8.76602720967234E-10  1.60981809875386E-02
 cg2d: Sum(rhs),rhsMax =   8.76656622295080E-10  1.60978475683055E-02
 cg2d: Sum(rhs),rhsMax =   8.76712619168885E-10  1.60975147547907E-02
 cg2d: Sum(rhs),rhsMax =   8.76780217873296E-10  1.60971824621370E-02
 cg2d: Sum(rhs),rhsMax =   8.76841016461682E-10  1.60968506044689E-02
 cg2d: Sum(rhs),rhsMax =   8.76890865475488E-10  1.60965190959903E-02
 cg2d: Sum(rhs),rhsMax =   8.76951206096876E-10  1.60961878464808E-02
 cg2d: Sum(rhs),rhsMax =   8.77010422617452E-10  1.60958567684148E-02
 cg2d: Sum(rhs),rhsMax =   8.77070166493965E-10  1.60955257788378E-02
 cg2d: Sum(rhs),rhsMax =   8.77130895693412E-10  1.60951947930785E-02
 cg2d: Sum(rhs),rhsMax =   8.77198522153400E-10  1.60948637311075E-02
 cg2d: Sum(rhs),rhsMax =   8.77256531306436E-10  1.60945325202386E-02
 cg2d: Sum(rhs),rhsMax =   8.77311237545975E-10  1.60942010892588E-02
 cg2d: Sum(rhs),rhsMax =   8.77366471141450E-10  1.60938693706291E-02
 cg2d: Sum(rhs),rhsMax =   8.77416542199860E-10  1.60935373090260E-02
 cg2d: Sum(rhs),rhsMax =   8.77477104865854E-10  1.60932048503022E-02
 cg2d: Sum(rhs),rhsMax =   8.77531200482728E-10  1.60928719290848E-02
 cg2d: Sum(rhs),rhsMax =   8.77608263838425E-10  1.60925385234537E-02
 cg2d: Sum(rhs),rhsMax =   8.77664427245683E-10  1.60922045987048E-02
 cg2d: Sum(rhs),rhsMax =   8.77739367299846E-10  1.60918701193860E-02
 cg2d: Sum(rhs),rhsMax =   8.77793671083538E-10  1.60915350651671E-02
 cg2d: Sum(rhs),rhsMax =   8.77854927638921E-10  1.60911994279110E-02
 cg2d: Sum(rhs),rhsMax =   8.77920861008796E-10  1.60908632037288E-02
 cg2d: Sum(rhs),rhsMax =   8.77976163993210E-10  1.60905263977514E-02
 cg2d: Sum(rhs),rhsMax =   8.78040126717217E-10  1.60901890206426E-02
 cg2d: Sum(rhs),rhsMax =   8.78107489499236E-10  1.60898510903917E-02
 cg2d: Sum(rhs),rhsMax =   8.78164818640670E-10  1.60895126341327E-02
 cg2d: Sum(rhs),rhsMax =   8.78223840872216E-10  1.60891736872776E-02
 cg2d: Sum(rhs),rhsMax =   8.78274383775413E-10  1.60888342910834E-02
 cg2d: Sum(rhs),rhsMax =   8.78337014231789E-10  1.60884944932873E-02
 cg2d: Sum(rhs),rhsMax =   8.78396508308121E-10  1.60881543470185E-02
 cg2d: Sum(rhs),rhsMax =   8.78457973030322E-10  1.60878139140166E-02
 cg2d: Sum(rhs),rhsMax =   8.78517009139657E-10  1.60874732603660E-02
 cg2d: Sum(rhs),rhsMax =   8.78567732454094E-10  1.60871324554539E-02
 cg2d: Sum(rhs),rhsMax =   8.78628336753451E-10  1.60867915761742E-02
 cg2d: Sum(rhs),rhsMax =   8.78689274119715E-10  1.60864506994911E-02
 cg2d: Sum(rhs),rhsMax =   8.78742897891804E-10  1.60861099091342E-02
 cg2d: Sum(rhs),rhsMax =   8.78792552616581E-10  1.60857692888854E-02
 cg2d: Sum(rhs),rhsMax =   8.78857611685824E-10  1.60854289262782E-02
 cg2d: Sum(rhs),rhsMax =   8.78911915469516E-10  1.60850889095873E-02
 cg2d: Sum(rhs),rhsMax =   8.78966649464630E-10  1.60847493272243E-02
 cg2d: Sum(rhs),rhsMax =   8.79032818756897E-10  1.60844102685125E-02
 cg2d: Sum(rhs),rhsMax =   8.79091605066051E-10  1.60840718236607E-02
 cg2d: Sum(rhs),rhsMax =   8.79160799716061E-10  1.60837340781730E-02
 cg2d: Sum(rhs),rhsMax =   8.79225484085033E-10  1.60833971204816E-02
 cg2d: Sum(rhs),rhsMax =   8.79281883414684E-10  1.60830610332082E-02
 cg2d: Sum(rhs),rhsMax =   8.79345540827359E-10  1.60827258951155E-02
 cg2d: Sum(rhs),rhsMax =   8.79412903609378E-10  1.60823917873007E-02
 cg2d: Sum(rhs),rhsMax =   8.79475686721420E-10  1.60820587824486E-02
 cg2d: Sum(rhs),rhsMax =   8.79547601417840E-10  1.60817269480837E-02
 cg2d: Sum(rhs),rhsMax =   8.79618475280175E-10  1.60813963504665E-02
 cg2d: Sum(rhs),rhsMax =   8.79659206587391E-10  1.60810670460109E-02
 cg2d: Sum(rhs),rhsMax =   8.79720254975958E-10  1.60807390903288E-02
 cg2d: Sum(rhs),rhsMax =   8.79772157902359E-10  1.60804125315320E-02
 cg2d: Sum(rhs),rhsMax =   8.79820147292598E-10  1.60800874103780E-02
 cg2d: Sum(rhs),rhsMax =   8.79882292026402E-10  1.60797637515219E-02
 cg2d: Sum(rhs),rhsMax =   8.79938774622779E-10  1.60794415485091E-02
 cg2d: Sum(rhs),rhsMax =   8.79995215585794E-10  1.60791209682417E-02
 cg2d: Sum(rhs),rhsMax =   8.80060621599732E-10  1.60788018934445E-02
 cg2d: Sum(rhs),rhsMax =   8.80125999858095E-10  1.60784843407165E-02
 cg2d: Sum(rhs),rhsMax =   8.80190323404584E-10  1.60781683391728E-02
 cg2d: Sum(rhs),rhsMax =   8.80240949574507E-10  1.60778538866674E-02
 cg2d: Sum(rhs),rhsMax =   8.80283887449984E-10  1.60775409644239E-02
 cg2d: Sum(rhs),rhsMax =   8.80336512021351E-10  1.60772295539269E-02
 cg2d: Sum(rhs),rhsMax =   8.80393438706939E-10  1.60769196286020E-02
 cg2d: Sum(rhs),rhsMax =   8.80462758257039E-10  1.60766111584178E-02
 cg2d: Sum(rhs),rhsMax =   8.80525485857930E-10  1.60763041038545E-02
 cg2d: Sum(rhs),rhsMax =   8.80589504093088E-10  1.60759984230550E-02
 cg2d: Sum(rhs),rhsMax =   8.80646514045402E-10  1.60756940697860E-02
 cg2d: Sum(rhs),rhsMax =   8.80709213890718E-10  1.60753909924252E-02
 cg2d: Sum(rhs),rhsMax =   8.80750153364751E-10  1.60750891338014E-02
 cg2d: Sum(rhs),rhsMax =   8.80802916713996E-10  1.60747884358823E-02
 cg2d: Sum(rhs),rhsMax =   8.80856179663603E-10  1.60744888348718E-02
 cg2d: Sum(rhs),rhsMax =   8.80925013491130E-10  1.60741902665694E-02
 cg2d: Sum(rhs),rhsMax =   8.80977055195409E-10  1.60738926638199E-02
 cg2d: Sum(rhs),rhsMax =   8.81033385136121E-10  1.60735959599376E-02
 cg2d: Sum(rhs),rhsMax =   8.81105882699629E-10  1.60733000848378E-02
 cg2d: Sum(rhs),rhsMax =   8.81174647138216E-10  1.60730049705646E-02
 cg2d: Sum(rhs),rhsMax =   8.81212297576539E-10  1.60727105514062E-02
 cg2d: Sum(rhs),rhsMax =   8.81275399877701E-10  1.60724167600665E-02
 cg2d: Sum(rhs),rhsMax =   8.81333228619496E-10  1.60721235289559E-02
 cg2d: Sum(rhs),rhsMax =   8.81386005846529E-10  1.60718308095497E-02
 cg2d: Sum(rhs),rhsMax =   8.81459211177216E-10  1.60715385414150E-02
 cg2d: Sum(rhs),rhsMax =   8.81512071670976E-10  1.60712466729475E-02
 cg2d: Sum(rhs),rhsMax =   8.81557687959500E-10  1.60709551657609E-02
 cg2d: Sum(rhs),rhsMax =   8.81620790260662E-10  1.60706639846102E-02
 cg2d: Sum(rhs),rhsMax =   8.81662923224447E-10  1.60703730973482E-02
 cg2d: Sum(rhs),rhsMax =   8.81727094115270E-10  1.60700824803408E-02
 cg2d: Sum(rhs),rhsMax =   8.81790626627854E-10  1.60697921133793E-02
 cg2d: Sum(rhs),rhsMax =   8.81835673927078E-10  1.60695019852902E-02
 cg2d: Sum(rhs),rhsMax =   8.81892489590363E-10  1.60692120901340E-02
 cg2d: Sum(rhs),rhsMax =   8.81962086696220E-10  1.60689224304310E-02
 cg2d: Sum(rhs),rhsMax =   8.82019762782349E-10  1.60686330179203E-02
 cg2d: Sum(rhs),rhsMax =   8.82080311570554E-10  1.60683438678259E-02
 cg2d: Sum(rhs),rhsMax =   8.82134532087520E-10  1.60680550060089E-02
 cg2d: Sum(rhs),rhsMax =   8.82195053120149E-10  1.60677664636993E-02
 cg2d: Sum(rhs),rhsMax =   8.82249662215173E-10  1.60674782606524E-02
 cg2d: Sum(rhs),rhsMax =   8.82303743954260E-10  1.60671903600286E-02
 cg2d: Sum(rhs),rhsMax =   8.82374340260839E-10  1.60669028179989E-02
 cg2d: Sum(rhs),rhsMax =   8.82416778535955E-10  1.60666156998006E-02
 cg2d: Sum(rhs),rhsMax =   8.82467626750483E-10  1.60663290795164E-02
 cg2d: Sum(rhs),rhsMax =   8.82521375422662E-10  1.60660430395442E-02
 cg2d: Sum(rhs),rhsMax =   8.82557846249021E-10  1.60657576683555E-02
 cg2d: Sum(rhs),rhsMax =   8.82613565567070E-10  1.60654730620346E-02
 cg2d: Sum(rhs),rhsMax =   8.82674530688909E-10  1.60651893231587E-02
 cg2d: Sum(rhs),rhsMax =   8.82720840866824E-10  1.60649065630862E-02
 cg2d: Sum(rhs),rhsMax =   8.82786108102884E-10  1.60646248926513E-02
 cg2d: Sum(rhs),rhsMax =   8.82827991266488E-10  1.60643444333576E-02
 cg2d: Sum(rhs),rhsMax =   8.82895034859388E-10  1.60640653050394E-02
 cg2d: Sum(rhs),rhsMax =   8.82943052005203E-10  1.60637876355423E-02
 cg2d: Sum(rhs),rhsMax =   8.82992137740679E-10  1.60635115510501E-02
 cg2d: Sum(rhs),rhsMax =   8.83047066024822E-10  1.60632371813191E-02
 cg2d: Sum(rhs),rhsMax =   8.83102022064541E-10  1.60629646559380E-02
 cg2d: Sum(rhs),rhsMax =   8.83164638643130E-10  1.60626941031238E-02
 cg2d: Sum(rhs),rhsMax =   8.83222300851472E-10  1.60624256495063E-02
 cg2d: Sum(rhs),rhsMax =   8.83271095153404E-10  1.60621594228013E-02
 cg2d: Sum(rhs),rhsMax =   8.83329479006711E-10  1.60618955438209E-02
 cg2d: Sum(rhs),rhsMax =   8.83383449723496E-10  1.60616341300239E-02
 cg2d: Sum(rhs),rhsMax =   8.83431994225248E-10  1.60613752947219E-02
 cg2d: Sum(rhs),rhsMax =   8.83481829361266E-10  1.60611191455593E-02
 cg2d: Sum(rhs),rhsMax =   8.83539255647214E-10  1.60608657822400E-02
 cg2d: Sum(rhs),rhsMax =   8.83592296552216E-10  1.60606152976451E-02
 cg2d: Sum(rhs),rhsMax =   8.83641299020965E-10  1.60603677772282E-02
 cg2d: Sum(rhs),rhsMax =   8.83688400232785E-10  1.60601232957428E-02
 cg2d: Sum(rhs),rhsMax =   8.83741052559728E-10  1.60598819191598E-02
 Computing Diagnostic #    26 "THETA   " (list#  1) Parms "SMR     MR      ", Count=     144
 Computing Diagnostic #    27 "SALT    " (list#  1) Parms "SMR     MR      ", Count=     144
 Computing Diagnostic #    30 "UVEL    " (list#  1) Parms "UUR     MR      ", Count=     144
             Vector  Mate for "UVEL    " :  Diagnostic #     31 "VVEL    " exists
 Computing Diagnostic #    32 "WVEL    " (list#  1) Parms "WM      LR      ", Count=     144
 Computing Diagnostic #    31 "VVEL    " (list#  1) Parms "VVR     MR      ", Count=     144
             Vector  Mate for "VVEL    " :  Diagnostic #     30 "UVEL    " exists
 Computing Diagnostic #   197 "BRGfwFlx" (list#  2) Parms "SM      MR      ", Count=     144
 Computing Diagnostic #   198 "BRGhtFlx" (list#  2) Parms "SM      MR      ", Count=     144
 Computing Diagnostic #   199 "BRGmltRt" (list#  2) Parms "SM      MR      ", Count=     144
 Computing Diagnostic #   201 "BRG_TauX" (list#  2) Parms "UU      MR      ", Count=    1728
 Computing Diagnostic #   202 "BRG_TauY" (list#  2) Parms "VV      MR      ", Count=    1728
 Computing Diagnostic #   203 "BRGhFacC" (list#  2) Parms "SM      MR      ", Count=    1728
 cg2d: Sum(rhs),rhsMax =   8.83786446803647E-10  1.60596437061224E-02
 cg2d: Sum(rhs),rhsMax =   8.83842818377722E-10  1.60594082097988E-02
 cg2d: Sum(rhs),rhsMax =   8.83906350890307E-10  1.60591759558428E-02
 cg2d: Sum(rhs),rhsMax =   8.83968065412688E-10  1.60589469749024E-02
 cg2d: Sum(rhs),rhsMax =   8.84023396152678E-10  1.60587212768935E-02
 cg2d: Sum(rhs),rhsMax =   8.84076770124587E-10  1.60584988660440E-02
 cg2d: Sum(rhs),rhsMax =   8.84122206001869E-10  1.60582797297016E-02
 cg2d: Sum(rhs),rhsMax =   8.84176939996983E-10  1.60580638440602E-02
 cg2d: Sum(rhs),rhsMax =   8.84238737786092E-10  1.60578511736997E-02
 cg2d: Sum(rhs),rhsMax =   8.84299439229963E-10  1.60576416661315E-02
 cg2d: Sum(rhs),rhsMax =   8.84354228736228E-10  1.60574352556148E-02
 cg2d: Sum(rhs),rhsMax =   8.84404910417302E-10  1.60572318638703E-02
 cg2d: Sum(rhs),rhsMax =   8.84442408199959E-10  1.60570314006062E-02
 cg2d: Sum(rhs),rhsMax =   8.84490203301169E-10  1.60568337590246E-02
 cg2d: Sum(rhs),rhsMax =   8.84533279954525E-10  1.60566388251490E-02
 cg2d: Sum(rhs),rhsMax =   8.84583184479482E-10  1.60564464667724E-02
 cg2d: Sum(rhs),rhsMax =   8.84626552566381E-10  1.60562565432903E-02
 cg2d: Sum(rhs),rhsMax =   8.84665729561362E-10  1.60560689017248E-02
 cg2d: Sum(rhs),rhsMax =   8.84719422722391E-10  1.60558833783405E-02
 cg2d: Sum(rhs),rhsMax =   8.84770534614887E-10  1.60556998011876E-02
 cg2d: Sum(rhs),rhsMax =   8.84821715896322E-10  1.60555179861453E-02
 cg2d: Sum(rhs),rhsMax =   8.84885456575724E-10  1.60553377417090E-02
 cg2d: Sum(rhs),rhsMax =   8.84946338430836E-10  1.60551588678132E-02
 cg2d: Sum(rhs),rhsMax =   8.85010648099538E-10  1.60549811593621E-02
 cg2d: Sum(rhs),rhsMax =   8.85063453082147E-10  1.60548044004729E-02
 cg2d: Sum(rhs),rhsMax =   8.85120338134371E-10  1.60546283849989E-02
 cg2d: Sum(rhs),rhsMax =   8.85171769215987E-10  1.60544528968769E-02
 cg2d: Sum(rhs),rhsMax =   8.85235398873085E-10  1.60542777024443E-02
 cg2d: Sum(rhs),rhsMax =   8.85292728014520E-10  1.60541025788707E-02
 cg2d: Sum(rhs),rhsMax =   8.85347892221056E-10  1.60539273032591E-02
 cg2d: Sum(rhs),rhsMax =   8.85411854945062E-10  1.60537516478372E-02
 cg2d: Sum(rhs),rhsMax =   8.85458040222886E-10  1.60535753830180E-02
 cg2d: Sum(rhs),rhsMax =   8.85506890035970E-10  1.60533982824000E-02
 cg2d: Sum(rhs),rhsMax =   8.85569714781376E-10  1.60532201223747E-02
 cg2d: Sum(rhs),rhsMax =   8.85628889668588E-10  1.60530406801481E-02
 cg2d: Sum(rhs),rhsMax =   8.85677586826006E-10  1.60528597411276E-02
 cg2d: Sum(rhs),rhsMax =   8.85721107568571E-10  1.60526770916794E-02
 cg2d: Sum(rhs),rhsMax =   8.85787970750229E-10  1.60524925249570E-02
 cg2d: Sum(rhs),rhsMax =   8.85834142150266E-10  1.60523058443238E-02
 cg2d: Sum(rhs),rhsMax =   8.85887127544116E-10  1.60521168539267E-02
 cg2d: Sum(rhs),rhsMax =   8.85937503913858E-10  1.60519253711203E-02
 cg2d: Sum(rhs),rhsMax =   8.85996720434434E-10  1.60517312189148E-02
 cg2d: Sum(rhs),rhsMax =   8.86054243864898E-10  1.60515342318241E-02
 cg2d: Sum(rhs),rhsMax =   8.86106674147236E-10  1.60513342516951E-02
 cg2d: Sum(rhs),rhsMax =   8.86167264568805E-10  1.60511311332491E-02
 cg2d: Sum(rhs),rhsMax =   8.86218848306086E-10  1.60509247393589E-02
 cg2d: Sum(rhs),rhsMax =   8.86270556943458E-10  1.60507149467266E-02
 cg2d: Sum(rhs),rhsMax =   8.86314480141870E-10  1.60505016408024E-02
 cg2d: Sum(rhs),rhsMax =   8.86372517050482E-10  1.60502847190136E-02
 cg2d: Sum(rhs),rhsMax =   8.86435105873495E-10  1.60500640923386E-02
 cg2d: Sum(rhs),rhsMax =   8.86475240435836E-10  1.60498396797829E-02
 cg2d: Sum(rhs),rhsMax =   8.86541950961828E-10  1.60496114174140E-02
 cg2d: Sum(rhs),rhsMax =   8.86587941950623E-10  1.60493792496753E-02
 cg2d: Sum(rhs),rhsMax =   8.86646214781628E-10  1.60491431363970E-02
 cg2d: Sum(rhs),rhsMax =   8.86721862602968E-10  1.60489030461920E-02
 cg2d: Sum(rhs),rhsMax =   8.86772086317045E-10  1.60486589597799E-02
 cg2d: Sum(rhs),rhsMax =   8.86821588386155E-10  1.60484108712110E-02
 cg2d: Sum(rhs),rhsMax =   8.86884884976347E-10  1.60481587830324E-02
 cg2d: Sum(rhs),rhsMax =   8.86924617082840E-10  1.60479027079622E-02
 cg2d: Sum(rhs),rhsMax =   8.86986734061068E-10  1.60476426726681E-02
 cg2d: Sum(rhs),rhsMax =   8.87032947094468E-10  1.60473787128459E-02
 cg2d: Sum(rhs),rhsMax =   8.87078105415995E-10  1.60471108690767E-02
 cg2d: Sum(rhs),rhsMax =   8.87128967508310E-10  1.60468391952609E-02
 cg2d: Sum(rhs),rhsMax =   8.87171391905639E-10  1.60465637517798E-02
 cg2d: Sum(rhs),rhsMax =   8.87238296720660E-10  1.60462846020025E-02
 cg2d: Sum(rhs),rhsMax =   8.87292961326835E-10  1.60460018210828E-02
 cg2d: Sum(rhs),rhsMax =   8.87348555744794E-10  1.60457154871172E-02
 cg2d: Sum(rhs),rhsMax =   8.87410644967446E-10  1.60454256858445E-02
 cg2d: Sum(rhs),rhsMax =   8.87474149724454E-10  1.60451325054908E-02
 cg2d: Sum(rhs),rhsMax =   8.87529744142412E-10  1.60448360403380E-02
 cg2d: Sum(rhs),rhsMax =   8.87577566999198E-10  1.60445363865736E-02
 cg2d: Sum(rhs),rhsMax =   8.87639545199548E-10  1.60442336439465E-02
 cg2d: Sum(rhs),rhsMax =   8.87708032082379E-10  1.60439279138219E-02
 cg2d: Sum(rhs),rhsMax =   8.87770898461149E-10  1.60436192996722E-02
 cg2d: Sum(rhs),rhsMax =   8.87819678885293E-10  1.60433079044109E-02
 cg2d: Sum(rhs),rhsMax =   8.87884876732414E-10  1.60429938331711E-02
 cg2d: Sum(rhs),rhsMax =   8.87947479433215E-10  1.60426771938916E-02
 cg2d: Sum(rhs),rhsMax =   8.88014523026115E-10  1.60423580658109E-02
 cg2d: Sum(rhs),rhsMax =   8.88066481463667E-10  1.60420365752185E-02
 cg2d: Sum(rhs),rhsMax =   8.88132720144874E-10  1.60417128111615E-02
 cg2d: Sum(rhs),rhsMax =   8.88189494174796E-10  1.60413868653275E-02
 cg2d: Sum(rhs),rhsMax =   8.88245116348330E-10  1.60410588311431E-02
 cg2d: Sum(rhs),rhsMax =   8.88294340861684E-10  1.60407288001224E-02
 cg2d: Sum(rhs),rhsMax =   8.88336182391924E-10  1.60403968597284E-02
 cg2d: Sum(rhs),rhsMax =   8.88378468011375E-10  1.60400630945300E-02
 cg2d: Sum(rhs),rhsMax =   8.88437157176014E-10  1.60397275822255E-02
 cg2d: Sum(rhs),rhsMax =   8.88484896766073E-10  1.60393904033354E-02
 cg2d: Sum(rhs),rhsMax =   8.88550150124345E-10  1.60390516290011E-02
 cg2d: Sum(rhs),rhsMax =   8.88602247339776E-10  1.60387113282574E-02
 cg2d: Sum(rhs),rhsMax =   8.88652290642611E-10  1.60383695716537E-02
 cg2d: Sum(rhs),rhsMax =   8.88722540004494E-10  1.60380264186706E-02
 cg2d: Sum(rhs),rhsMax =   8.88775539276132E-10  1.60376819312380E-02
 cg2d: Sum(rhs),rhsMax =   8.88848203373094E-10  1.60373361662420E-02
 cg2d: Sum(rhs),rhsMax =   8.88917578434345E-10  1.60369891789525E-02
 cg2d: Sum(rhs),rhsMax =   8.88976892099436E-10  1.60366410188647E-02
 cg2d: Sum(rhs),rhsMax =   8.89032042428184E-10  1.60362917388587E-02
 cg2d: Sum(rhs),rhsMax =   8.89089302180679E-10  1.60359413849788E-02
 cg2d: Sum(rhs),rhsMax =   8.89160051142923E-10  1.60355900060030E-02
 cg2d: Sum(rhs),rhsMax =   8.89234311185483E-10  1.60352376472460E-02
 cg2d: Sum(rhs),rhsMax =   8.89297940842582E-10  1.60348843547163E-02
 cg2d: Sum(rhs),rhsMax =   8.89357809619185E-10  1.60345301742431E-02
 cg2d: Sum(rhs),rhsMax =   8.89407811288656E-10  1.60341751504413E-02
 cg2d: Sum(rhs),rhsMax =   8.89467346998352E-10  1.60338193306546E-02
 cg2d: Sum(rhs),rhsMax =   8.89525175740147E-10  1.60334627655205E-02
 cg2d: Sum(rhs),rhsMax =   8.89587292718375E-10  1.60331055032619E-02
 cg2d: Sum(rhs),rhsMax =   8.89651061153351E-10  1.60327475975667E-02
 cg2d: Sum(rhs),rhsMax =   8.89710222162776E-10  1.60323891034909E-02
 cg2d: Sum(rhs),rhsMax =   8.89772810985789E-10  1.60320300805199E-02
 cg2d: Sum(rhs),rhsMax =   8.89831139327946E-10  1.60316705921752E-02
 cg2d: Sum(rhs),rhsMax =   8.89889162358770E-10  1.60313107030409E-02
 cg2d: Sum(rhs),rhsMax =   8.89945714344087E-10  1.60309504866835E-02
 cg2d: Sum(rhs),rhsMax =   8.89999893227689E-10  1.60305900182050E-02
 cg2d: Sum(rhs),rhsMax =   8.90059997926684E-10  1.60302293796072E-02
 cg2d: Sum(rhs),rhsMax =   8.90115869900399E-10  1.60298686573383E-02
 cg2d: Sum(rhs),rhsMax =   8.90172463519079E-10  1.60295079445397E-02
 cg2d: Sum(rhs),rhsMax =   8.90240353657035E-10  1.60291473397669E-02
 cg2d: Sum(rhs),rhsMax =   8.90300513867182E-10  1.60287869480226E-02
 cg2d: Sum(rhs),rhsMax =   8.90354803773086E-10  1.60284268780692E-02
 cg2d: Sum(rhs),rhsMax =   8.90420903676414E-10  1.60280672491900E-02
 cg2d: Sum(rhs),rhsMax =   8.90489029736763E-10  1.60277081826294E-02
 cg2d: Sum(rhs),rhsMax =   8.90549273213637E-10  1.60273498075194E-02
 cg2d: Sum(rhs),rhsMax =   8.90613860438094E-10  1.60269922576785E-02
 cg2d: Sum(rhs),rhsMax =   8.90675061482327E-10  1.60266356737995E-02
 cg2d: Sum(rhs),rhsMax =   8.90735499248230E-10  1.60262802008602E-02
 cg2d: Sum(rhs),rhsMax =   8.90795548436074E-10  1.60259259888815E-02
 cg2d: Sum(rhs),rhsMax =   8.90859594426807E-10  1.60255731945844E-02
 cg2d: Sum(rhs),rhsMax =   8.90915202722553E-10  1.60252219747401E-02
 cg2d: Sum(rhs),rhsMax =   8.90981663448365E-10  1.60248724920349E-02
 cg2d: Sum(rhs),rhsMax =   8.91037688077745E-10  1.60245249131052E-02
 cg2d: Sum(rhs),rhsMax =   8.91088189347577E-10  1.60241794053415E-02
 cg2d: Sum(rhs),rhsMax =   8.91145199299892E-10  1.60238361389917E-02
 cg2d: Sum(rhs),rhsMax =   8.91195395258393E-10  1.60234952838500E-02
 cg2d: Sum(rhs),rhsMax =   8.91251891732558E-10  1.60231570106561E-02
 cg2d: Sum(rhs),rhsMax =   8.91312898487762E-10  1.60228214907781E-02
 cg2d: Sum(rhs),rhsMax =   8.91389073665039E-10  1.60224888940211E-02
 cg2d: Sum(rhs),rhsMax =   8.91454757234733E-10  1.60221593865294E-02
 cg2d: Sum(rhs),rhsMax =   8.91506687916710E-10  1.60218331319525E-02
 cg2d: Sum(rhs),rhsMax =   8.91564710947534E-10  1.60215102902148E-02
 cg2d: Sum(rhs),rhsMax =   8.91617932263777E-10  1.60211910162281E-02
 cg2d: Sum(rhs),rhsMax =   8.91674151182187E-10  1.60208754600029E-02
 cg2d: Sum(rhs),rhsMax =   8.91736240404839E-10  1.60205637631598E-02
 cg2d: Sum(rhs),rhsMax =   8.91789558865597E-10  1.60202560609619E-02
 cg2d: Sum(rhs),rhsMax =   8.91849372131048E-10  1.60199524793133E-02
 cg2d: Sum(rhs),rhsMax =   8.91913404243994E-10  1.60196531351256E-02
 Computing Diagnostic #    26 "THETA   " (list#  1) Parms "SMR     MR      ", Count=     144
 Computing Diagnostic #    27 "SALT    " (list#  1) Parms "SMR     MR      ", Count=     144
 Computing Diagnostic #    30 "UVEL    " (list#  1) Parms "UUR     MR      ", Count=     144
             Vector  Mate for "UVEL    " :  Diagnostic #     31 "VVEL    " exists
 Computing Diagnostic #    32 "WVEL    " (list#  1) Parms "WM      LR      ", Count=     144
 Computing Diagnostic #    31 "VVEL    " (list#  1) Parms "VVR     MR      ", Count=     144
             Vector  Mate for "VVEL    " :  Diagnostic #     30 "UVEL    " exists
 Computing Diagnostic #   197 "BRGfwFlx" (list#  2) Parms "SM      MR      ", Count=     144
 Computing Diagnostic #   198 "BRGhtFlx" (list#  2) Parms "SM      MR      ", Count=     144
 Computing Diagnostic #   199 "BRGmltRt" (list#  2) Parms "SM      MR      ", Count=     144
 Computing Diagnostic #   201 "BRG_TauX" (list#  2) Parms "UU      MR      ", Count=    1728
 Computing Diagnostic #   202 "BRG_TauY" (list#  2) Parms "VV      MR      ", Count=    1728
 Computing Diagnostic #   203 "BRGhFacC" (list#  2) Parms "SM      MR      ", Count=    1728
 cg2d: Sum(rhs),rhsMax =   8.91987247952919E-10  1.60193581363983E-02
 cg2d: Sum(rhs),rhsMax =   8.92039886402074E-10  1.60190675787186E-02
 cg2d: Sum(rhs),rhsMax =   8.92095314286578E-10  1.60187815440310E-02
 cg2d: Sum(rhs),rhsMax =   8.92140722408286E-10  1.60185001058668E-02
 cg2d: Sum(rhs),rhsMax =   8.92214982450845E-10  1.60182233198854E-02
 cg2d: Sum(rhs),rhsMax =   8.92278084752007E-10  1.60179512323052E-02
 cg2d: Sum(rhs),rhsMax =   8.92338522517910E-10  1.60176838716659E-02
 cg2d: Sum(rhs),rhsMax =   8.92378518302372E-10  1.60174212520212E-02
 cg2d: Sum(rhs),rhsMax =   8.92438914434912E-10  1.60171633718004E-02
 cg2d: Sum(rhs),rhsMax =   8.92517393324965E-10  1.60169102128183E-02
 cg2d: Sum(rhs),rhsMax =   8.92586046741251E-10  1.60166617425970E-02
 cg2d: Sum(rhs),rhsMax =   8.92648177597266E-10  1.60164179119695E-02
 cg2d: Sum(rhs),rhsMax =   8.92699220100823E-10  1.60161786514680E-02
 cg2d: Sum(rhs),rhsMax =   8.92761503612505E-10  1.60159438893597E-02
 cg2d: Sum(rhs),rhsMax =   8.92804233321165E-10  1.60157135247980E-02
 cg2d: Sum(rhs),rhsMax =   8.92864157608919E-10  1.60154874306930E-02
 cg2d: Sum(rhs),rhsMax =   8.92909454708324E-10  1.60152654723734E-02
 cg2d: Sum(rhs),rhsMax =   8.92957000009353E-10  1.60150474973362E-02
 cg2d: Sum(rhs),rhsMax =   8.93023321957287E-10  1.60148333422993E-02
 cg2d: Sum(rhs),rhsMax =   8.93079624142423E-10  1.60146228256048E-02
 cg2d: Sum(rhs),rhsMax =   8.93144613822727E-10  1.60144157504771E-02
 cg2d: Sum(rhs),rhsMax =   8.93203330742942E-10  1.60142119076641E-02
 cg2d: Sum(rhs),rhsMax =   8.93259022305415E-10  1.60140110734843E-02
 cg2d: Sum(rhs),rhsMax =   8.93311632998994E-10  1.60138130102502E-02
 cg2d: Sum(rhs),rhsMax =   8.93371765453566E-10  1.60136174703353E-02
 cg2d: Sum(rhs),rhsMax =   8.93415369462858E-10  1.60134241968521E-02
 cg2d: Sum(rhs),rhsMax =   8.93469229157340E-10  1.60132329190485E-02
 cg2d: Sum(rhs),rhsMax =   8.93516746702794E-10  1.60130433554561E-02
 cg2d: Sum(rhs),rhsMax =   8.93585608285896E-10  1.60128552193772E-02
 cg2d: Sum(rhs),rhsMax =   8.93654802935906E-10  1.60126682147246E-02
 cg2d: Sum(rhs),rhsMax =   8.93698240411744E-10  1.60124820469917E-02
 cg2d: Sum(rhs),rhsMax =   8.93745646934896E-10  1.60122964172684E-02
 cg2d: Sum(rhs),rhsMax =   8.93811982760617E-10  1.60121110152217E-02
 cg2d: Sum(rhs),rhsMax =   8.93854351646794E-10  1.60119255291550E-02
 cg2d: Sum(rhs),rhsMax =   8.93907559085250E-10  1.60117396641721E-02
 cg2d: Sum(rhs),rhsMax =   8.93959642422892E-10  1.60115531089533E-02
 cg2d: Sum(rhs),rhsMax =   8.94007326501800E-10  1.60113655623420E-02
 cg2d: Sum(rhs),rhsMax =   8.94059673517411E-10  1.60111767272768E-02
 cg2d: Sum(rhs),rhsMax =   8.94108939664129E-10  1.60109863127884E-02
 cg2d: Sum(rhs),rhsMax =   8.94165089193599E-10  1.60107940347828E-02
 cg2d: Sum(rhs),rhsMax =   8.94220156255621E-10  1.60105996179535E-02
 cg2d: Sum(rhs),rhsMax =   8.94273891050013E-10  1.60104027930929E-02
 cg2d: Sum(rhs),rhsMax =   8.94336438239662E-10  1.60102033097479E-02
 cg2d: Sum(rhs),rhsMax =   8.94381971261460E-10  1.60100009220993E-02
 cg2d: Sum(rhs),rhsMax =   8.94442145349394E-10  1.60097837959682E-02
 cg2d: Sum(rhs),rhsMax =   8.94506108073401E-10  1.60095629794153E-02
 cg2d: Sum(rhs),rhsMax =   8.94557011799080E-10  1.60093389376081E-02
 cg2d: Sum(rhs),rhsMax =   8.94607776746881E-10  1.60091113818839E-02
 cg2d: Sum(rhs),rhsMax =   8.94666299378066E-10  1.60088801922726E-02
 cg2d: Sum(rhs),rhsMax =   8.94712151588983E-10  1.60086452893827E-02
 cg2d: Sum(rhs),rhsMax =   8.94774018767031E-10  1.60084066070709E-02
 cg2d: Sum(rhs),rhsMax =   8.94823853903048E-10  1.60081640994171E-02
 cg2d: Sum(rhs),rhsMax =   8.94880183843760E-10  1.60079177380575E-02
 cg2d: Sum(rhs),rhsMax =   8.94936222350928E-10  1.60076675127500E-02
 cg2d: Sum(rhs),rhsMax =   8.94992135958006E-10  1.60074134340605E-02
 cg2d: Sum(rhs),rhsMax =   8.95045079718493E-10  1.60071555278504E-02
 cg2d: Sum(rhs),rhsMax =   8.95101173736812E-10  1.60068938424274E-02
 cg2d: Sum(rhs),rhsMax =   8.95148510871024E-10  1.60066284442747E-02
 cg2d: Sum(rhs),rhsMax =   8.95187618477067E-10  1.60063594178690E-02
 cg2d: Sum(rhs),rhsMax =   8.95234580911008E-10  1.60060868644916E-02
 cg2d: Sum(rhs),rhsMax =   8.95297239122961E-10  1.60058109053745E-02
 cg2d: Sum(rhs),rhsMax =   8.95341537021643E-10  1.60055316811359E-02
 cg2d: Sum(rhs),rhsMax =   8.95402474387907E-10  1.60052493429695E-02
 cg2d: Sum(rhs),rhsMax =   8.95451018889659E-10  1.60049640651205E-02
 cg2d: Sum(rhs),rhsMax =   8.95517451859895E-10  1.60046760330433E-02
 cg2d: Sum(rhs),rhsMax =   8.95579305160155E-10  1.60043854489352E-02
 cg2d: Sum(rhs),rhsMax =   8.95652857435536E-10  1.60040925281010E-02
 cg2d: Sum(rhs),rhsMax =   8.95705190573359E-10  1.60037974977753E-02
 cg2d: Sum(rhs),rhsMax =   8.95759855179534E-10  1.60035005987061E-02
 cg2d: Sum(rhs),rhsMax =   8.95822110935640E-10  1.60032020813178E-02
 cg2d: Sum(rhs),rhsMax =   8.95889001872874E-10  1.60029022057751E-02
 cg2d: Sum(rhs),rhsMax =   8.95967522396290E-10  1.60026012404081E-02
 cg2d: Sum(rhs),rhsMax =   8.96033011676955E-10  1.60022994606185E-02
 cg2d: Sum(rhs),rhsMax =   8.96091520430353E-10  1.60019971488311E-02
 cg2d: Sum(rhs),rhsMax =   8.96148447115941E-10  1.60016945909907E-02
 cg2d: Sum(rhs),rhsMax =   8.96219182200397E-10  1.60013920743227E-02
 cg2d: Sum(rhs),rhsMax =   8.96271015737859E-10  1.60010898918237E-02
 cg2d: Sum(rhs),rhsMax =   8.96320864751665E-10  1.60007883326921E-02
 cg2d: Sum(rhs),rhsMax =   8.96386562199147E-10  1.60004876869065E-02
 cg2d: Sum(rhs),rhsMax =   8.96441310072049E-10  1.60001882448705E-02
 cg2d: Sum(rhs),rhsMax =   8.96494503632717E-10  1.59998902872581E-02
 cg2d: Sum(rhs),rhsMax =   8.96553553619839E-10  1.59995940937416E-02
 cg2d: Sum(rhs),rhsMax =   8.96613644441047E-10  1.59992999371897E-02
 cg2d: Sum(rhs),rhsMax =   8.96669738459366E-10  1.59990080819690E-02
 cg2d: Sum(rhs),rhsMax =   8.96744262179894E-10  1.59987187823694E-02
 cg2d: Sum(rhs),rhsMax =   8.96809723704983E-10  1.59984322839266E-02
 cg2d: Sum(rhs),rhsMax =   8.96874352562804E-10  1.59981488199632E-02
 cg2d: Sum(rhs),rhsMax =   8.96920579473992E-10  1.59978686105223E-02
 cg2d: Sum(rhs),rhsMax =   8.96983126663642E-10  1.59975918646221E-02
 cg2d: Sum(rhs),rhsMax =   8.97033738955777E-10  1.59973187711956E-02
 cg2d: Sum(rhs),rhsMax =   8.97088930917889E-10  1.59970495091852E-02
 cg2d: Sum(rhs),rhsMax =   8.97148494383160E-10  1.59967842370571E-02
 cg2d: Sum(rhs),rhsMax =   8.97198509930419E-10  1.59965230982438E-02
 cg2d: Sum(rhs),rhsMax =   8.97259461174471E-10  1.59962662170021E-02
 cg2d: Sum(rhs),rhsMax =   8.97323451654053E-10  1.59960136988992E-02
 cg2d: Sum(rhs),rhsMax =   8.97379850983704E-10  1.59957656297578E-02
 cg2d: Sum(rhs),rhsMax =   8.97447935410689E-10  1.59955220775060E-02
 cg2d: Sum(rhs),rhsMax =   8.97509760955373E-10  1.59952830883273E-02
 cg2d: Sum(rhs),rhsMax =   8.97569477076310E-10  1.59950486900138E-02
 cg2d: Sum(rhs),rhsMax =   8.97634008789616E-10  1.59948188873452E-02
 cg2d: Sum(rhs),rhsMax =   8.97686563972044E-10  1.59945936662521E-02
 cg2d: Sum(rhs),rhsMax =   8.97741644911854E-10  1.59943729951718E-02
 cg2d: Sum(rhs),rhsMax =   8.97799501409224E-10  1.59941568159339E-02
 cg2d: Sum(rhs),rhsMax =   8.97854693371336E-10  1.59939450556862E-02
 cg2d: Sum(rhs),rhsMax =   8.97911855979316E-10  1.59937376183320E-02
 cg2d: Sum(rhs),rhsMax =   8.97965396484679E-10  1.59935343918604E-02
 cg2d: Sum(rhs),rhsMax =   8.98019145156859E-10  1.59933352435432E-02
 cg2d: Sum(rhs),rhsMax =   8.98064664300868E-10  1.59931400226366E-02
 cg2d: Sum(rhs),rhsMax =   8.98117524794628E-10  1.59929485610107E-02
 cg2d: Sum(rhs),rhsMax =   8.98182500597144E-10  1.59927606726555E-02
 cg2d: Sum(rhs),rhsMax =   8.98235277824178E-10  1.59925761583979E-02
 cg2d: Sum(rhs),rhsMax =   8.98280519412431E-10  1.59923948026635E-02
 cg2d: Sum(rhs),rhsMax =   8.98317809028271E-10  1.59922163742901E-02
 cg2d: Sum(rhs),rhsMax =   8.98350629996436E-10  1.59920406320606E-02
 cg2d: Sum(rhs),rhsMax =   8.98414911909562E-10  1.59918673213358E-02
 cg2d: Sum(rhs),rhsMax =   8.98468077714654E-10  1.59916961765821E-02
 cg2d: Sum(rhs),rhsMax =   8.98529778359247E-10  1.59915269220020E-02
 cg2d: Sum(rhs),rhsMax =   8.98571467233822E-10  1.59913592747559E-02
 cg2d: Sum(rhs),rhsMax =   8.98620913791781E-10  1.59911929584695E-02
 cg2d: Sum(rhs),rhsMax =   8.98660756920577E-10  1.59910276407616E-02
 cg2d: Sum(rhs),rhsMax =   8.98715449282328E-10  1.59908630446217E-02
 cg2d: Sum(rhs),rhsMax =   8.98767810175727E-10  1.59906988745026E-02
 cg2d: Sum(rhs),rhsMax =   8.98814508931700E-10  1.59905348151919E-02
 cg2d: Sum(rhs),rhsMax =   8.98864593867899E-10  1.59903705579901E-02
 cg2d: Sum(rhs),rhsMax =   8.98910765267935E-10  1.59902057982193E-02
 cg2d: Sum(rhs),rhsMax =   8.98950733296822E-10  1.59900402315801E-02
 cg2d: Sum(rhs),rhsMax =   8.99003801957399E-10  1.59898735575106E-02
 cg2d: Sum(rhs),rhsMax =   8.99042368329717E-10  1.59897054799050E-02
 cg2d: Sum(rhs),rhsMax =   8.99101029738780E-10  1.59895357079922E-02
 cg2d: Sum(rhs),rhsMax =   8.99152738376152E-10  1.59893639591833E-02
 cg2d: Sum(rhs),rhsMax =   8.99196023196325E-10  1.59891899543241E-02
 cg2d: Sum(rhs),rhsMax =   8.99245622409950E-10  1.59890134279463E-02
 cg2d: Sum(rhs),rhsMax =   8.99300384160640E-10  1.59888341250963E-02
 cg2d: Sum(rhs),rhsMax =   8.99350843797109E-10  1.59886517971769E-02
 cg2d: Sum(rhs),rhsMax =   8.99404925536196E-10  1.59884662120174E-02
 cg2d: Sum(rhs),rhsMax =   8.99466140458216E-10  1.59882771477560E-02
 cg2d: Sum(rhs),rhsMax =   8.99522456521140E-10  1.59880843944534E-02
 cg2d: Sum(rhs),rhsMax =   8.99575761104110E-10  1.59878877608295E-02
 cg2d: Sum(rhs),rhsMax =   8.99624263972498E-10  1.59876870680199E-02
 cg2d: Sum(rhs),rhsMax =   8.99684826638492E-10  1.59874821502070E-02
 cg2d: Sum(rhs),rhsMax =   8.99730734360560E-10  1.59872728632937E-02
 cg2d: Sum(rhs),rhsMax =   8.99793226039058E-10  1.59870590721488E-02
 cg2d: Sum(rhs),rhsMax =   8.99839425194671E-10  1.59868406644343E-02
 cg2d: Sum(rhs),rhsMax =   8.99899002537730E-10  1.59866175414807E-02
(PID.TID 0000.0001)      cg2d_init_res =   7.60498717166799E-05
(PID.TID 0000.0001)      cg2d_iters(min,last) =      -1      39
(PID.TID 0000.0001)      cg2d_last_res =   5.27286974351807E-14
(PID.TID 0000.0001) // =======================================================
(PID.TID 0000.0001) // Begin MONITOR dynamic field statistics
(PID.TID 0000.0001) // =======================================================
(PID.TID 0000.0001) %MON time_tsnumber                =                 20736
(PID.TID 0000.0001) %MON time_secondsf                =   5.1840000000000E+05
(PID.TID 0000.0001) %MON dynstat_eta_max              =   5.0232295383197E-03
(PID.TID 0000.0001) %MON dynstat_eta_min              =  -2.4931801170135E-03
(PID.TID 0000.0001) %MON dynstat_eta_mean             =  -9.6341686856433E-14
(PID.TID 0000.0001) %MON dynstat_eta_sd               =   2.5447461637997E-03
(PID.TID 0000.0001) %MON dynstat_eta_del2             =   2.0985609234780E-05
(PID.TID 0000.0001) %MON dynstat_uvel_max             =   4.5120404766289E-02
(PID.TID 0000.0001) %MON dynstat_uvel_min             =  -4.2754981327748E-02
(PID.TID 0000.0001) %MON dynstat_uvel_mean            =   6.5703414038497E-09
(PID.TID 0000.0001) %MON dynstat_uvel_sd              =   6.5022690948029E-03
(PID.TID 0000.0001) %MON dynstat_uvel_del2            =   1.0181188415924E-04
(PID.TID 0000.0001) %MON dynstat_vvel_max             =   2.3072015257218E-02
(PID.TID 0000.0001) %MON dynstat_vvel_min             =  -3.2877548972016E-02
(PID.TID 0000.0001) %MON dynstat_vvel_mean            =  -8.0919745314783E-03
(PID.TID 0000.0001) %MON dynstat_vvel_sd              =   1.1528849300483E-02
(PID.TID 0000.0001) %MON dynstat_vvel_del2            =   9.1230014236049E-05
(PID.TID 0000.0001) %MON dynstat_wvel_max             =   1.3903282501875E-03
(PID.TID 0000.0001) %MON dynstat_wvel_min             =  -1.0924343513446E-03
(PID.TID 0000.0001) %MON dynstat_wvel_mean            =  -2.2063410794309E-20
(PID.TID 0000.0001) %MON dynstat_wvel_sd              =   1.2569747131563E-04
(PID.TID 0000.0001) %MON dynstat_wvel_del2            =   6.4003924733902E-06
(PID.TID 0000.0001) %MON dynstat_theta_max            =   2.6931451612903E+00
(PID.TID 0000.0001) %MON dynstat_theta_min            =  -6.2866938344577E-01
(PID.TID 0000.0001) %MON dynstat_theta_mean           =   2.2228488299439E+00
(PID.TID 0000.0001) %MON dynstat_theta_sd             =   5.2162871069590E-01
(PID.TID 0000.0001) %MON dynstat_theta_del2           =   1.6043944865795E-03
(PID.TID 0000.0001) %MON dynstat_salt_max             =   3.4699999999999E+01
(PID.TID 0000.0001) %MON dynstat_salt_min             =   3.3032388437095E+01
(PID.TID 0000.0001) %MON dynstat_salt_mean            =   3.4364083944579E+01
(PID.TID 0000.0001) %MON dynstat_salt_sd              =   3.2241559978488E-01
(PID.TID 0000.0001) %MON dynstat_salt_del2            =   1.9401409676573E-04
(PID.TID 0000.0001) %MON advcfl_uvel_max              =   2.2560202383145E-03
(PID.TID 0000.0001) %MON advcfl_vvel_max              =   1.6438774486008E-03
(PID.TID 0000.0001) %MON advcfl_wvel_max              =   6.6262914178677E-04
(PID.TID 0000.0001) %MON advcfl_W_hf_max              =   1.4075898487858E-03
(PID.TID 0000.0001) %MON pe_b_mean                    =   5.4029830994681E-08
(PID.TID 0000.0001) %MON ke_max                       =   9.4290965341290E-04
(PID.TID 0000.0001) %MON ke_mean                      =   1.1037485830134E-04
(PID.TID 0000.0001) %MON ke_vol                       =   3.2921708585402E+10
(PID.TID 0000.0001) // =======================================================
(PID.TID 0000.0001) // End MONITOR dynamic field statistics
(PID.TID 0000.0001) // =======================================================
(PID.TID 0000.0001) // =======================================================
(PID.TID 0000.0001) // Begin OBCS MONITOR field statistics
(PID.TID 0000.0001) // =======================================================
(PID.TID 0000.0001) %MON obc_E_uVel_max               =   0.0000000000000E+00
(PID.TID 0000.0001) %MON obc_E_uVel_min               =   0.0000000000000E+00
(PID.TID 0000.0001) %MON obc_E_uVel_mean              =   0.0000000000000E+00
(PID.TID 0000.0001) %MON obc_E_uVel_sd                =   0.0000000000000E+00
(PID.TID 0000.0001) %MON obc_E_uVel_Int               =   0.0000000000000E+00
(PID.TID 0000.0001) %MON obc_N_vVel_max               =  -3.6115799844846E-05
(PID.TID 0000.0001) %MON obc_N_vVel_min               =  -3.0000000000000E-02
(PID.TID 0000.0001) %MON obc_N_vVel_mean              =  -1.3225455303334E-02
(PID.TID 0000.0001) %MON obc_N_vVel_sd                =   1.1350864292742E-02
(PID.TID 0000.0001) %MON obc_N_vVel_Int               =  -5.9514548865004E+04
(PID.TID 0000.0001) %MON obc_S_vVel_max               =  -3.6115799844846E-05
(PID.TID 0000.0001) %MON obc_S_vVel_min               =  -3.0000000000000E-02
(PID.TID 0000.0001) %MON obc_S_vVel_mean              =  -1.3225455303334E-02
(PID.TID 0000.0001) %MON obc_S_vVel_sd                =   1.1350864292742E-02
(PID.TID 0000.0001) %MON obc_S_vVel_Int               =  -5.9514548865004E+04
(PID.TID 0000.0001) // =======================================================
(PID.TID 0000.0001) // End OBCS MONITOR field statistics
(PID.TID 0000.0001) // =======================================================
 Computing Diagnostic #    26 "THETA   " (list#  1) Parms "SMR     MR      ", Count=     144
 Computing Diagnostic #    27 "SALT    " (list#  1) Parms "SMR     MR      ", Count=     144
 Computing Diagnostic #    30 "UVEL    " (list#  1) Parms "UUR     MR      ", Count=     144
             Vector  Mate for "UVEL    " :  Diagnostic #     31 "VVEL    " exists
 Computing Diagnostic #    32 "WVEL    " (list#  1) Parms "WM      LR      ", Count=     144
 Computing Diagnostic #    31 "VVEL    " (list#  1) Parms "VVR     MR      ", Count=     144
             Vector  Mate for "VVEL    " :  Diagnostic #     30 "UVEL    " exists
 Computing Diagnostic #   197 "BRGfwFlx" (list#  2) Parms "SM      MR      ", Count=     144
 Computing Diagnostic #   198 "BRGhtFlx" (list#  2) Parms "SM      MR      ", Count=     144
 Computing Diagnostic #   199 "BRGmltRt" (list#  2) Parms "SM      MR      ", Count=     144
 Computing Diagnostic #   201 "BRG_TauX" (list#  2) Parms "UU      MR      ", Count=    1728
 Computing Diagnostic #   202 "BRG_TauY" (list#  2) Parms "VV      MR      ", Count=    1728
 Computing Diagnostic #   203 "BRGhFacC" (list#  2) Parms "SM      MR      ", Count=    1728
(PID.TID 0000.0001) %CHECKPOINT     20736 0000020736
 cg2d: Sum(rhs),rhsMax =   8.99947005805757E-10  1.59863896209794E-02
 cg2d: Sum(rhs),rhsMax =   9.00006902337935E-10  1.59861568418207E-02
 cg2d: Sum(rhs),rhsMax =   9.00070268317066E-10  1.59859191555275E-02
 cg2d: Sum(rhs),rhsMax =   9.00117827495883E-10  1.59856765315165E-02
 cg2d: Sum(rhs),rhsMax =   9.00164262573888E-10  1.59854289581888E-02
 cg2d: Sum(rhs),rhsMax =   9.00219912502997E-10  1.59851764369742E-02
 cg2d: Sum(rhs),rhsMax =   9.00290411665061E-10  1.59849189895213E-02
 cg2d: Sum(rhs),rhsMax =   9.00346491805593E-10  1.59846566521399E-02
 cg2d: Sum(rhs),rhsMax =   9.00414659499305E-10  1.59843894748590E-02
 cg2d: Sum(rhs),rhsMax =   9.00472210685344E-10  1.59841175237275E-02
 cg2d: Sum(rhs),rhsMax =   9.00534882775084E-10  1.59838408821067E-02
 cg2d: Sum(rhs),rhsMax =   9.00581442753179E-10  1.59835596430013E-02
 cg2d: Sum(rhs),rhsMax =   9.00637189826803E-10  1.59832739149169E-02
 cg2d: Sum(rhs),rhsMax =   9.00698668426791E-10  1.59829838207170E-02
 cg2d: Sum(rhs),rhsMax =   9.00755373067774E-10  1.59826894911869E-02
 cg2d: Sum(rhs),rhsMax =   9.00809676851466E-10  1.59823910720161E-02
 cg2d: Sum(rhs),rhsMax =   9.00873708964411E-10  1.59820887160371E-02
 cg2d: Sum(rhs),rhsMax =   9.00925514746298E-10  1.59817826076774E-02
 cg2d: Sum(rhs),rhsMax =   9.00976113160645E-10  1.59814729487064E-02
 cg2d: Sum(rhs),rhsMax =   9.01041991019369E-10  1.59811599195325E-02
 cg2d: Sum(rhs),rhsMax =   9.01092186977870E-10  1.59808437074570E-02
 cg2d: Sum(rhs),rhsMax =   9.01149654897182E-10  1.59805245059730E-02
 cg2d: Sum(rhs),rhsMax =   9.01213062509676E-10  1.59802025124659E-02
 cg2d: Sum(rhs),rhsMax =   9.01276345222080E-10  1.59798779265022E-02
 cg2d: Sum(rhs),rhsMax =   9.01331051461618E-10  1.59795509461325E-02
 cg2d: Sum(rhs),rhsMax =   9.01413360621106E-10  1.59792217747288E-02
 cg2d: Sum(rhs),rhsMax =   9.01467192560013E-10  1.59788906155754E-02
 cg2d: Sum(rhs),rhsMax =   9.01514654594315E-10  1.59785576735613E-02
 cg2d: Sum(rhs),rhsMax =   9.01563657063065E-10  1.59782231566006E-02
 cg2d: Sum(rhs),rhsMax =   9.01615587745042E-10  1.59778872672538E-02
 cg2d: Sum(rhs),rhsMax =   9.01682728482456E-10  1.59775502105841E-02
 cg2d: Sum(rhs),rhsMax =   9.01737975955719E-10  1.59772121777042E-02
 cg2d: Sum(rhs),rhsMax =   9.01806615494216E-10  1.59768734529961E-02
 cg2d: Sum(rhs),rhsMax =   9.01866220592851E-10  1.59765341522237E-02
 cg2d: Sum(rhs),rhsMax =   9.01920843565662E-10  1.59761944671936E-02
 cg2d: Sum(rhs),rhsMax =   9.01974481215539E-10  1.59758546065638E-02
 cg2d: Sum(rhs),rhsMax =   9.02037583516702E-10  1.59755147654850E-02
 cg2d: Sum(rhs),rhsMax =   9.02103419742062E-10  1.59751751198292E-02
 cg2d: Sum(rhs),rhsMax =   9.02161220728281E-10  1.59748358448818E-02
 cg2d: Sum(rhs),rhsMax =   9.02215802067730E-10  1.59744971077382E-02
 cg2d: Sum(rhs),rhsMax =   9.02270008706907E-10  1.59741590690554E-02
 cg2d: Sum(rhs),rhsMax =   9.02336844132989E-10  1.59738218792030E-02
 cg2d: Sum(rhs),rhsMax =   9.02394367563453E-10  1.59734856848504E-02
 cg2d: Sum(rhs),rhsMax =   9.02456526175044E-10  1.59731506220280E-02
 cg2d: Sum(rhs),rhsMax =   9.02522237500314E-10  1.59728153653923E-02
 cg2d: Sum(rhs),rhsMax =   9.02583049966488E-10  1.59724801225402E-02
 cg2d: Sum(rhs),rhsMax =   9.02639324396048E-10  1.59721464647197E-02
 cg2d: Sum(rhs),rhsMax =   9.02706909222672E-10  1.59718145315213E-02
 cg2d: Sum(rhs),rhsMax =   9.02756369658420E-10  1.59714844469744E-02
 cg2d: Sum(rhs),rhsMax =   9.02813504510824E-10  1.59711563304698E-02
 cg2d: Sum(rhs),rhsMax =   9.02881963638080E-10  1.59708302920227E-02
 cg2d: Sum(rhs),rhsMax =   9.02926039492158E-10  1.59705064306836E-02
 cg2d: Sum(rhs),rhsMax =   9.02978622430162E-10  1.59701848394704E-02
 cg2d: Sum(rhs),rhsMax =   9.03050578759945E-10  1.59698656014718E-02
 cg2d: Sum(rhs),rhsMax =   9.03107033600747E-10  1.59695487904697E-02
 cg2d: Sum(rhs),rhsMax =   9.03174396382767E-10  1.59692344730331E-02
 cg2d: Sum(rhs),rhsMax =   9.03224689485782E-10  1.59689227100049E-02
 cg2d: Sum(rhs),rhsMax =   9.03282421083063E-10  1.59686135504864E-02
 cg2d: Sum(rhs),rhsMax =   9.03335892199486E-10  1.59683070396155E-02
 cg2d: Sum(rhs),rhsMax =   9.03396704665660E-10  1.59680032171059E-02
 cg2d: Sum(rhs),rhsMax =   9.03452895828494E-10  1.59677021135332E-02
 cg2d: Sum(rhs),rhsMax =   9.03497915372142E-10  1.59674037550519E-02
 cg2d: Sum(rhs),rhsMax =   9.03565361420888E-10  1.59671081652903E-02
 cg2d: Sum(rhs),rhsMax =   9.03627048187694E-10  1.59668153596009E-02
 cg2d: Sum(rhs),rhsMax =   9.03687985553958E-10  1.59665253549774E-02
 cg2d: Sum(rhs),rhsMax =   9.03746397162841E-10  1.59662381563407E-02
 cg2d: Sum(rhs),rhsMax =   9.03794220019627E-10  1.59659537618999E-02
 cg2d: Sum(rhs),rhsMax =   9.03839197929912E-10  1.59656721841420E-02
 cg2d: Sum(rhs),rhsMax =   9.03889588177442E-10  1.59653934215880E-02
 cg2d: Sum(rhs),rhsMax =   9.03948429997747E-10  1.59651174702745E-02
 cg2d: Sum(rhs),rhsMax =   9.03991423384376E-10  1.59648443267572E-02
 cg2d: Sum(rhs),rhsMax =   9.04056829398314E-10  1.59645739887020E-02
 cg2d: Sum(rhs),rhsMax =   9.04114130784173E-10  1.59643064502630E-02
 cg2d: Sum(rhs),rhsMax =   9.04167810067413E-10  1.59640417068854E-02
 cg2d: Sum(rhs),rhsMax =   9.04217617447856E-10  1.59637797558220E-02
 cg2d: Sum(rhs),rhsMax =   9.04260874512453E-10  1.59635205912549E-02
 cg2d: Sum(rhs),rhsMax =   9.04323269046436E-10  1.59632642093713E-02
 cg2d: Sum(rhs),rhsMax =   9.04375352384079E-10  1.59630106071553E-02
 cg2d: Sum(rhs),rhsMax =   9.04427449599510E-10  1.59627597818446E-02
 cg2d: Sum(rhs),rhsMax =   9.04480407237784E-10  1.59625117327622E-02
 cg2d: Sum(rhs),rhsMax =   9.04525662703826E-10  1.59622664575133E-02
 cg2d: Sum(rhs),rhsMax =   9.04576358262688E-10  1.59620239572684E-02
 cg2d: Sum(rhs),rhsMax =   9.04628510989269E-10  1.59617842305750E-02
 cg2d: Sum(rhs),rhsMax =   9.04682773139598E-10  1.59615472773390E-02
 cg2d: Sum(rhs),rhsMax =   9.04729138828664E-10  1.59613131008542E-02
 cg2d: Sum(rhs),rhsMax =   9.04779140498135E-10  1.59610817002520E-02
 cg2d: Sum(rhs),rhsMax =   9.04834721038306E-10  1.59608530767912E-02
 cg2d: Sum(rhs),rhsMax =   9.04894895126240E-10  1.59606272308425E-02
 cg2d: Sum(rhs),rhsMax =   9.04952529579006E-10  1.59604041587650E-02
 cg2d: Sum(rhs),rhsMax =   9.05015257179898E-10  1.59601838614536E-02
 cg2d: Sum(rhs),rhsMax =   9.05066827039391E-10  1.59599663336590E-02
 cg2d: Sum(rhs),rhsMax =   9.05139033169355E-10  1.59597515817388E-02
 cg2d: Sum(rhs),rhsMax =   9.05190561395486E-10  1.59595395922064E-02
 cg2d: Sum(rhs),rhsMax =   9.05243588422699E-10  1.59593303389020E-02
 cg2d: Sum(rhs),rhsMax =   9.05294283981561E-10  1.59591238020417E-02
 cg2d: Sum(rhs),rhsMax =   9.05344646473516E-10  1.59589199627257E-02
 cg2d: Sum(rhs),rhsMax =   9.05408414908493E-10  1.59587188024714E-02
 cg2d: Sum(rhs),rhsMax =   9.05455765920493E-10  1.59585202921550E-02
 cg2d: Sum(rhs),rhsMax =   9.05507030468655E-10  1.59583243983526E-02
 cg2d: Sum(rhs),rhsMax =   9.05585537114284E-10  1.59581310790132E-02
 cg2d: Sum(rhs),rhsMax =   9.05639702120098E-10  1.59579402850297E-02
 cg2d: Sum(rhs),rhsMax =   9.05697628006408E-10  1.59577519620446E-02
 cg2d: Sum(rhs),rhsMax =   9.05770611292489E-10  1.59573482506122E-02
 cg2d: Sum(rhs),rhsMax =   9.05848021592881E-10  1.59564967364051E-02
 cg2d: Sum(rhs),rhsMax =   9.05942529327852E-10  1.59556377559538E-02
 cg2d: Sum(rhs),rhsMax =   9.06046973558894E-10  1.59547925794038E-02
 cg2d: Sum(rhs),rhsMax =   9.06132335831700E-10  1.59539565606280E-02
 cg2d: Sum(rhs),rhsMax =   9.06219196905589E-10  1.59531309725803E-02
 cg2d: Sum(rhs),rhsMax =   9.06307973114195E-10  1.59523178579974E-02
 cg2d: Sum(rhs),rhsMax =   9.06395306032870E-10  1.59515191373172E-02
 cg2d: Sum(rhs),rhsMax =   9.06482763851635E-10  1.59507366412202E-02
 cg2d: Sum(rhs),rhsMax =   9.06565003622184E-10  1.59499721339564E-02
 cg2d: Sum(rhs),rhsMax =   9.06641844933276E-10  1.59492273052961E-02
 cg2d: Sum(rhs),rhsMax =   9.06720989957144E-10  1.59485037692795E-02
 cg2d: Sum(rhs),rhsMax =   9.06811778444983E-10  1.59478030561368E-02
 cg2d: Sum(rhs),rhsMax =   9.06900721187043E-10  1.59471266162158E-02
 cg2d: Sum(rhs),rhsMax =   9.06981406645357E-10  1.59464758073529E-02
 cg2d: Sum(rhs),rhsMax =   9.07067143618434E-10  1.59458518981493E-02
 cg2d: Sum(rhs),rhsMax =   9.07155461860043E-10  1.59452560623103E-02
 cg2d: Sum(rhs),rhsMax =   9.07233496660886E-10  1.59446924937900E-02
 cg2d: Sum(rhs),rhsMax =   9.07308866926471E-10  1.59441717473255E-02
 cg2d: Sum(rhs),rhsMax =   9.07374023140228E-10  1.59436953553388E-02
 cg2d: Sum(rhs),rhsMax =   9.07428132634891E-10  1.59432642358028E-02
 cg2d: Sum(rhs),rhsMax =   9.07493649671132E-10  1.59428792447200E-02
 cg2d: Sum(rhs),rhsMax =   9.07560970819787E-10  1.59425410490556E-02
 cg2d: Sum(rhs),rhsMax =   9.07620312240454E-10  1.59422501117338E-02
 cg2d: Sum(rhs),rhsMax =   9.07686287243692E-10  1.59420066948234E-02
 cg2d: Sum(rhs),rhsMax =   9.07747058076502E-10  1.59418108605482E-02
 cg2d: Sum(rhs),rhsMax =   9.07785138726247E-10  1.59416624693926E-02
 cg2d: Sum(rhs),rhsMax =   9.07829950103078E-10  1.59415611883759E-02
 cg2d: Sum(rhs),rhsMax =   9.07873262678827E-10  1.59415064944875E-02
 cg2d: Sum(rhs),rhsMax =   9.07914937675613E-10  1.59414976729935E-02
 cg2d: Sum(rhs),rhsMax =   9.07961344998043E-10  1.59415338258699E-02
 cg2d: Sum(rhs),rhsMax =   9.07985298059799E-10  1.59416138848895E-02
 cg2d: Sum(rhs),rhsMax =   9.08032316004892E-10  1.59417366059007E-02
 cg2d: Sum(rhs),rhsMax =   9.08058808701817E-10  1.59419005852490E-02
 cg2d: Sum(rhs),rhsMax =   9.08077626982084E-10  1.59421042606970E-02
 cg2d: Sum(rhs),rhsMax =   9.08107006258874E-10  1.59423459298686E-02
 cg2d: Sum(rhs),rhsMax =   9.08136482680177E-10  1.59426237486447E-02
 cg2d: Sum(rhs),rhsMax =   9.08157854473401E-10  1.59429357462246E-02
 cg2d: Sum(rhs),rhsMax =   9.08184166759085E-10  1.59432798322251E-02
 cg2d: Sum(rhs),rhsMax =   9.08205177729826E-10  1.59436538132819E-02
 cg2d: Sum(rhs),rhsMax =   9.08219666140297E-10  1.59440554013386E-02
 cg2d: Sum(rhs),rhsMax =   9.08239039532077E-10  1.59444822195029E-02
 Computing Diagnostic #    26 "THETA   " (list#  1) Parms "SMR     MR      ", Count=     144
 Computing Diagnostic #    27 "SALT    " (list#  1) Parms "SMR     MR      ", Count=     144
 Computing Diagnostic #    30 "UVEL    " (list#  1) Parms "UUR     MR      ", Count=     144
             Vector  Mate for "UVEL    " :  Diagnostic #     31 "VVEL    " exists
 Computing Diagnostic #    32 "WVEL    " (list#  1) Parms "WM      LR      ", Count=     144
 Computing Diagnostic #    31 "VVEL    " (list#  1) Parms "VVR     MR      ", Count=     144
             Vector  Mate for "VVEL    " :  Diagnostic #     30 "UVEL    " exists
 Computing Diagnostic #   197 "BRGfwFlx" (list#  2) Parms "SM      MR      ", Count=     144
 Computing Diagnostic #   198 "BRGhtFlx" (list#  2) Parms "SM      MR      ", Count=     144
 Computing Diagnostic #   199 "BRGmltRt" (list#  2) Parms "SM      MR      ", Count=     144
 Computing Diagnostic #   201 "BRG_TauX" (list#  2) Parms "UU      MR      ", Count=    1728
 Computing Diagnostic #   202 "BRG_TauY" (list#  2) Parms "VV      MR      ", Count=    1728
 Computing Diagnostic #   203 "BRGhFacC" (list#  2) Parms "SM      MR      ", Count=    1728
 cg2d: Sum(rhs),rhsMax =   9.08254610409998E-10  1.59449318182503E-02
 cg2d: Sum(rhs),rhsMax =   9.08276009958797E-10  1.59454016827214E-02
 cg2d: Sum(rhs),rhsMax =   9.08276537314734E-10  1.59458892475726E-02
 cg2d: Sum(rhs),rhsMax =   9.08275760158617E-10  1.59463919066359E-02
 cg2d: Sum(rhs),rhsMax =   9.08284045197938E-10  1.59469070267917E-02
 cg2d: Sum(rhs),rhsMax =   9.08290942458478E-10  1.59474319568227E-02
 cg2d: Sum(rhs),rhsMax =   9.08294300883128E-10  1.59479640370486E-02
 cg2d: Sum(rhs),rhsMax =   9.08313022018881E-10  1.59485006173350E-02
 cg2d: Sum(rhs),rhsMax =   9.08333006033324E-10  1.59490390591598E-02
 cg2d: Sum(rhs),rhsMax =   9.08347314032554E-10  1.59495767547970E-02
 cg2d: Sum(rhs),rhsMax =   9.08361233453725E-10  1.59501111310977E-02
 cg2d: Sum(rhs),rhsMax =   9.08369185426139E-10  1.59506396658710E-02
 cg2d: Sum(rhs),rhsMax =   9.08385200393269E-10  1.59511598908908E-02
 cg2d: Sum(rhs),rhsMax =   9.08396274867940E-10  1.59516694046438E-02
 cg2d: Sum(rhs),rhsMax =   9.08398009591416E-10  1.59521658777829E-02
 cg2d: Sum(rhs),rhsMax =   9.08414010680758E-10  1.59526470659950E-02
 cg2d: Sum(rhs),rhsMax =   9.08434827362470E-10  1.59531108130069E-02
 cg2d: Sum(rhs),rhsMax =   9.08463387849778E-10  1.59535550638853E-02
 cg2d: Sum(rhs),rhsMax =   9.08477543193342E-10  1.59539778650467E-02
 cg2d: Sum(rhs),rhsMax =   9.08489852791128E-10  1.59543773750902E-02
 cg2d: Sum(rhs),rhsMax =   9.08516581410446E-10  1.59547518672585E-02
 cg2d: Sum(rhs),rhsMax =   9.08528752230353E-10  1.59550997356663E-02
 cg2d: Sum(rhs),rhsMax =   9.08557409862176E-10  1.59554194974724E-02
 cg2d: Sum(rhs),rhsMax =   9.08596087256797E-10  1.59557097987122E-02
 cg2d: Sum(rhs),rhsMax =   9.08611880179322E-10  1.59559694165738E-02
 cg2d: Sum(rhs),rhsMax =   9.08645117481122E-10  1.59561972586100E-02
 cg2d: Sum(rhs),rhsMax =   9.08683628342288E-10  1.59563923670764E-02
 cg2d: Sum(rhs),rhsMax =   9.08700920065897E-10  1.59565539218320E-02
 cg2d: Sum(rhs),rhsMax =   9.08732367133069E-10  1.59566812323729E-02
 cg2d: Sum(rhs),rhsMax =   9.08781577768636E-10  1.59567737481055E-02
 cg2d: Sum(rhs),rhsMax =   9.08810887656486E-10  1.59568310473062E-02
 cg2d: Sum(rhs),rhsMax =   9.08855601888803E-10  1.59568528457959E-02
 cg2d: Sum(rhs),rhsMax =   9.08892697215613E-10  1.59568389841797E-02
 cg2d: Sum(rhs),rhsMax =   9.08948527555964E-10  1.59567894304973E-02
 cg2d: Sum(rhs),rhsMax =   9.08996447557264E-10  1.59567042814622E-02
 cg2d: Sum(rhs),rhsMax =   9.09050820729895E-10  1.59565837507382E-02
 cg2d: Sum(rhs),rhsMax =   9.09107955582300E-10  1.59564281652547E-02
 cg2d: Sum(rhs),rhsMax =   9.09173084040482E-10  1.59562379668202E-02
 cg2d: Sum(rhs),rhsMax =   9.09228581313926E-10  1.59560137026197E-02
 cg2d: Sum(rhs),rhsMax =   9.09299177620504E-10  1.59557560203264E-02
 cg2d: Sum(rhs),rhsMax =   9.09358421896655E-10  1.59554656604449E-02
 cg2d: Sum(rhs),rhsMax =   9.09420233563552E-10  1.59551434570639E-02
 cg2d: Sum(rhs),rhsMax =   9.09480948885211E-10  1.59547903241748E-02
 cg2d: Sum(rhs),rhsMax =   9.09547867578020E-10  1.59544072538273E-02
 cg2d: Sum(rhs),rhsMax =   9.09619088385050E-10  1.59539953058015E-02
 cg2d: Sum(rhs),rhsMax =   9.09691447170680E-10  1.59535556031336E-02
 cg2d: Sum(rhs),rhsMax =   9.09764860668183E-10  1.59530893296431E-02
 cg2d: Sum(rhs),rhsMax =   9.09848071883879E-10  1.59525977115172E-02
 cg2d: Sum(rhs),rhsMax =   9.09908537405357E-10  1.59520820216015E-02
 cg2d: Sum(rhs),rhsMax =   9.09973957297083E-10  1.59515435679822E-02
 cg2d: Sum(rhs),rhsMax =   9.10051103919507E-10  1.59509836863120E-02
 cg2d: Sum(rhs),rhsMax =   9.10117106678321E-10  1.59504037338997E-02
 cg2d: Sum(rhs),rhsMax =   9.10205605331171E-10  1.59498050816495E-02
 cg2d: Sum(rhs),rhsMax =   9.10283154409441E-10  1.59491891097446E-02
 cg2d: Sum(rhs),rhsMax =   9.10361716566221E-10  1.59485572026854E-02
 cg2d: Sum(rhs),rhsMax =   9.10439779122640E-10  1.59479107382346E-02
 cg2d: Sum(rhs),rhsMax =   9.10528999420457E-10  1.59472510841081E-02
 cg2d: Sum(rhs),rhsMax =   9.10615374771773E-10  1.59465795938766E-02
 cg2d: Sum(rhs),rhsMax =   9.10695172051668E-10  1.59458976187662E-02
 cg2d: Sum(rhs),rhsMax =   9.10781131069349E-10  1.59452065392963E-02
 cg2d: Sum(rhs),rhsMax =   9.10862871239537E-10  1.59445076316176E-02
 cg2d: Sum(rhs),rhsMax =   9.10952049903990E-10  1.59438021311543E-02
 cg2d: Sum(rhs),rhsMax =   9.11044545359729E-10  1.59430912333540E-02
 cg2d: Sum(rhs),rhsMax =   9.11122774449602E-10  1.59423760932426E-02
 cg2d: Sum(rhs),rhsMax =   9.11207900800015E-10  1.59416578138232E-02
 cg2d: Sum(rhs),rhsMax =   9.11300840344964E-10  1.59409374501895E-02
 cg2d: Sum(rhs),rhsMax =   9.11369923972671E-10  1.59402160037029E-02
 cg2d: Sum(rhs),rhsMax =   9.11457784247283E-10  1.59394944202484E-02
 cg2d: Sum(rhs),rhsMax =   9.11533862280045E-10  1.59387735887085E-02
 cg2d: Sum(rhs),rhsMax =   9.11617170640255E-10  1.59380543385826E-02
 cg2d: Sum(rhs),rhsMax =   9.11698647132475E-10  1.59373374402205E-02
 cg2d: Sum(rhs),rhsMax =   9.11786632307177E-10  1.59366236020879E-02
 cg2d: Sum(rhs),rhsMax =   9.11869288411360E-10  1.59359134722713E-02
 cg2d: Sum(rhs),rhsMax =   9.11948058734957E-10  1.59352076364147E-02
 cg2d: Sum(rhs),rhsMax =   9.12030270749931E-10  1.59345066221941E-02
 cg2d: Sum(rhs),rhsMax =   9.12123043761426E-10  1.59338108923014E-02
 cg2d: Sum(rhs),rhsMax =   9.12208100722900E-10  1.59331208529081E-02
 cg2d: Sum(rhs),rhsMax =   9.12275519016070E-10  1.59324368516734E-02
 cg2d: Sum(rhs),rhsMax =   9.12355899163053E-10  1.59317591785522E-02
 cg2d: Sum(rhs),rhsMax =   9.12430964117306E-10  1.59310880709224E-02
 cg2d: Sum(rhs),rhsMax =   9.12514813711240E-10  1.59304237091535E-02
 cg2d: Sum(rhs),rhsMax =   9.12599218416688E-10  1.59297662245503E-02
 cg2d: Sum(rhs),rhsMax =   9.12678724263039E-10  1.59291157022368E-02
 cg2d: Sum(rhs),rhsMax =   9.12769221317333E-10  1.59284721766024E-02
 cg2d: Sum(rhs),rhsMax =   9.12853889700749E-10  1.59278356435365E-02
 cg2d: Sum(rhs),rhsMax =   9.12932521246468E-10  1.59272060559765E-02
 cg2d: Sum(rhs),rhsMax =   9.13026695914532E-10  1.59265833294645E-02
 cg2d: Sum(rhs),rhsMax =   9.13106368294336E-10  1.59259673470140E-02
 cg2d: Sum(rhs),rhsMax =   9.13184500239694E-10  1.59253579599377E-02
 cg2d: Sum(rhs),rhsMax =   9.13250183809389E-10  1.59247549878418E-02
 cg2d: Sum(rhs),rhsMax =   9.13323514040165E-10  1.59241582310020E-02
 cg2d: Sum(rhs),rhsMax =   9.13419298531615E-10  1.59235674652076E-02
 cg2d: Sum(rhs),rhsMax =   9.13489270337742E-10  1.59229824466115E-02
 cg2d: Sum(rhs),rhsMax =   9.13561087889647E-10  1.59224029201792E-02
 cg2d: Sum(rhs),rhsMax =   9.13633640964306E-10  1.59218286139763E-02
 cg2d: Sum(rhs),rhsMax =   9.13703335214677E-10  1.59212592484296E-02
 cg2d: Sum(rhs),rhsMax =   9.13776443400849E-10  1.59206945397535E-02
 cg2d: Sum(rhs),rhsMax =   9.13851244677133E-10  1.59201341955988E-02
 cg2d: Sum(rhs),rhsMax =   9.13929154577886E-10  1.59195779288507E-02
 cg2d: Sum(rhs),rhsMax =   9.14001818674848E-10  1.59190254492898E-02
 cg2d: Sum(rhs),rhsMax =   9.14080353076052E-10  1.59184764780479E-02
 cg2d: Sum(rhs),rhsMax =   9.14148243214008E-10  1.59179307551949E-02
 cg2d: Sum(rhs),rhsMax =   9.14234646320899E-10  1.59173879842533E-02
 cg2d: Sum(rhs),rhsMax =   9.14308323496371E-10  1.59168478949487E-02
 cg2d: Sum(rhs),rhsMax =   9.14372758065163E-10  1.59163102481563E-02
 cg2d: Sum(rhs),rhsMax =   9.14443284982802E-10  1.59157748149093E-02
 cg2d: Sum(rhs),rhsMax =   9.14520070782743E-10  1.59152413775739E-02
 cg2d: Sum(rhs),rhsMax =   9.14597828027830E-10  1.59147097350330E-02
 cg2d: Sum(rhs),rhsMax =   9.14677944496844E-10  1.59141797001139E-02
 cg2d: Sum(rhs),rhsMax =   9.14767331328115E-10  1.59136511090629E-02
 cg2d: Sum(rhs),rhsMax =   9.14838718668598E-10  1.59131238108906E-02
 cg2d: Sum(rhs),rhsMax =   9.14898587445201E-10  1.59125976759056E-02
 cg2d: Sum(rhs),rhsMax =   9.14959163988982E-10  1.59120725944218E-02
 cg2d: Sum(rhs),rhsMax =   9.15018213976104E-10  1.59115484743274E-02
 cg2d: Sum(rhs),rhsMax =   9.15101480702951E-10  1.59110252434967E-02
 cg2d: Sum(rhs),rhsMax =   9.15174713789213E-10  1.59105028489144E-02
 cg2d: Sum(rhs),rhsMax =   9.15248862809470E-10  1.59099812581178E-02
 cg2d: Sum(rhs),rhsMax =   9.15327050265979E-10  1.59094604554531E-02
 cg2d: Sum(rhs),rhsMax =   9.15398021272829E-10  1.59089404430714E-02
 cg2d: Sum(rhs),rhsMax =   9.15466605300175E-10  1.59084212413900E-02
 cg2d: Sum(rhs),rhsMax =   9.15537812229417E-10  1.59079028880409E-02
 cg2d: Sum(rhs),rhsMax =   9.15615805396897E-10  1.59073854341391E-02
 cg2d: Sum(rhs),rhsMax =   9.15682682456342E-10  1.59068689442053E-02
 cg2d: Sum(rhs),rhsMax =   9.15750975050145E-10  1.59063534986408E-02
 cg2d: Sum(rhs),rhsMax =   9.15840833726200E-10  1.59058391903495E-02
 cg2d: Sum(rhs),rhsMax =   9.15904366238784E-10  1.59053261153368E-02
 cg2d: Sum(rhs),rhsMax =   9.15965858716561E-10  1.59048143883951E-02
 cg2d: Sum(rhs),rhsMax =   9.16048334409503E-10  1.59043041289760E-02
 cg2d: Sum(rhs),rhsMax =   9.16112088966692E-10  1.59037954637114E-02
 cg2d: Sum(rhs),rhsMax =   9.16191872368799E-10  1.59032885239360E-02
 cg2d: Sum(rhs),rhsMax =   9.16261830297138E-10  1.59027834474779E-02
 cg2d: Sum(rhs),rhsMax =   9.16342168810758E-10  1.59022803743186E-02
 cg2d: Sum(rhs),rhsMax =   9.16424630625912E-10  1.59017794480093E-02
 cg2d: Sum(rhs),rhsMax =   9.16487677415923E-10  1.59012808126813E-02
 cg2d: Sum(rhs),rhsMax =   9.16567072239971E-10  1.59007846136615E-02
 cg2d: Sum(rhs),rhsMax =   9.16635836678559E-10  1.59002909940529E-02
 cg2d: Sum(rhs),rhsMax =   9.16703407627395E-10  1.58998000951532E-02
 cg2d: Sum(rhs),rhsMax =   9.16781817128509E-10  1.58993120580103E-02
 cg2d: Sum(rhs),rhsMax =   9.16851872201363E-10  1.58988270162826E-02
 cg2d: Sum(rhs),rhsMax =   9.16922066052095E-10  1.58983451039404E-02
 cg2d: Sum(rhs),rhsMax =   9.16999393085760E-10  1.58978664439962E-02
 cg2d: Sum(rhs),rhsMax =   9.17082493279153E-10  1.58973911606572E-02
 cg2d: Sum(rhs),rhsMax =   9.17157114144196E-10  1.58969193691413E-02
 cg2d: Sum(rhs),rhsMax =   9.17226211649691E-10  1.58964511809942E-02
 Computing Diagnostic #    26 "THETA   " (list#  1) Parms "SMR     MR      ", Count=     144
 Computing Diagnostic #    27 "SALT    " (list#  1) Parms "SMR     MR      ", Count=     144
 Computing Diagnostic #    30 "UVEL    " (list#  1) Parms "UUR     MR      ", Count=     144
             Vector  Mate for "UVEL    " :  Diagnostic #     31 "VVEL    " exists
 Computing Diagnostic #    32 "WVEL    " (list#  1) Parms "WM      LR      ", Count=     144
 Computing Diagnostic #    31 "VVEL    " (list#  1) Parms "VVR     MR      ", Count=     144
             Vector  Mate for "VVEL    " :  Diagnostic #     30 "UVEL    " exists
 Computing Diagnostic #   197 "BRGfwFlx" (list#  2) Parms "SM      MR      ", Count=     144
 Computing Diagnostic #   198 "BRGhtFlx" (list#  2) Parms "SM      MR      ", Count=     144
 Computing Diagnostic #   199 "BRGmltRt" (list#  2) Parms "SM      MR      ", Count=     144
 Computing Diagnostic #   201 "BRG_TauX" (list#  2) Parms "UU      MR      ", Count=    1728
 Computing Diagnostic #   202 "BRG_TauY" (list#  2) Parms "VV      MR      ", Count=    1728
 Computing Diagnostic #   203 "BRGhFacC" (list#  2) Parms "SM      MR      ", Count=    1728
 cg2d: Sum(rhs),rhsMax =   9.17291298474510E-10  1.58959866946294E-02
 cg2d: Sum(rhs),rhsMax =   9.17352277474137E-10  1.58955260114075E-02
 cg2d: Sum(rhs),rhsMax =   9.17417516954622E-10  1.58950692188239E-02
 cg2d: Sum(rhs),rhsMax =   9.17483533591223E-10  1.58946164014590E-02
 cg2d: Sum(rhs),rhsMax =   9.17554532353648E-10  1.58941676341024E-02
 cg2d: Sum(rhs),rhsMax =   9.17636286401624E-10  1.58937229888509E-02
 cg2d: Sum(rhs),rhsMax =   9.17686288071096E-10  1.58932825298184E-02
 cg2d: Sum(rhs),rhsMax =   9.17745227035915E-10  1.58928463168876E-02
 cg2d: Sum(rhs),rhsMax =   9.17815157208679E-10  1.58924144065562E-02
 cg2d: Sum(rhs),rhsMax =   9.17878328898780E-10  1.58919868452062E-02
 cg2d: Sum(rhs),rhsMax =   9.17942333256150E-10  1.58915636809277E-02
 cg2d: Sum(rhs),rhsMax =   9.18006337613519E-10  1.58911449550289E-02
 cg2d: Sum(rhs),rhsMax =   9.18077003309037E-10  1.58907307064574E-02
 cg2d: Sum(rhs),rhsMax =   9.18139411720809E-10  1.58903209728838E-02
 cg2d: Sum(rhs),rhsMax =   9.18201875643732E-10  1.58899157886679E-02
 cg2d: Sum(rhs),rhsMax =   9.18268738825390E-10  1.58895151871290E-02
 cg2d: Sum(rhs),rhsMax =   9.18332090926732E-10  1.58891192031496E-02
 cg2d: Sum(rhs),rhsMax =   9.18400452909474E-10  1.58887278734039E-02
 cg2d: Sum(rhs),rhsMax =   9.18458448184722E-10  1.58883412289584E-02
 cg2d: Sum(rhs),rhsMax =   9.18513848313651E-10  1.58879593095389E-02
 cg2d: Sum(rhs),rhsMax =   9.18579670661224E-10  1.58875821543852E-02
 cg2d: Sum(rhs),rhsMax =   9.18662756976829E-10  1.58872098060945E-02
 cg2d: Sum(rhs),rhsMax =   9.18718587317180E-10  1.58868423113409E-02
 cg2d: Sum(rhs),rhsMax =   9.18778525482722E-10  1.58864797192315E-02
 cg2d: Sum(rhs),rhsMax =   9.18840240005103E-10  1.58861220843741E-02
 cg2d: Sum(rhs),rhsMax =   9.18898443447169E-10  1.58857694661706E-02
 cg2d: Sum(rhs),rhsMax =   9.18957465678716E-10  1.58854219295995E-02
 cg2d: Sum(rhs),rhsMax =   9.19036458046918E-10  1.58850795451536E-02
 cg2d: Sum(rhs),rhsMax =   9.19090276108037E-10  1.58847423871536E-02
 cg2d: Sum(rhs),rhsMax =   9.19143358646402E-10  1.58844105373000E-02
 cg2d: Sum(rhs),rhsMax =   9.19193290926934E-10  1.58840840846172E-02
 cg2d: Sum(rhs),rhsMax =   9.19258738574236E-10  1.58837631186649E-02
 cg2d: Sum(rhs),rhsMax =   9.19322021286639E-10  1.58834477414814E-02
 cg2d: Sum(rhs),rhsMax =   9.19380058195252E-10  1.58831380546456E-02
 cg2d: Sum(rhs),rhsMax =   9.19443382541019E-10  1.58828343491335E-02
 cg2d: Sum(rhs),rhsMax =   9.19480255823224E-10  1.58825369779523E-02
 cg2d: Sum(rhs),rhsMax =   9.19539847044071E-10  1.58822456280190E-02
 cg2d: Sum(rhs),rhsMax =   9.19599910109703E-10  1.58819604115651E-02
 cg2d: Sum(rhs),rhsMax =   9.19672060728516E-10  1.58816814462509E-02
 cg2d: Sum(rhs),rhsMax =   9.19727141668325E-10  1.58814088489224E-02
 cg2d: Sum(rhs),rhsMax =   9.19788425979284E-10  1.58811427397502E-02
 cg2d: Sum(rhs),rhsMax =   9.19847906177829E-10  1.58808832383722E-02
 cg2d: Sum(rhs),rhsMax =   9.19913381580706E-10  1.58806304682893E-02
 cg2d: Sum(rhs),rhsMax =   9.19962495071758E-10  1.58803845463722E-02
 cg2d: Sum(rhs),rhsMax =   9.20026638207005E-10  1.58801455926757E-02
 cg2d: Sum(rhs),rhsMax =   9.20083578770381E-10  1.58799137219443E-02
 cg2d: Sum(rhs),rhsMax =   9.20145667993033E-10  1.58796890474776E-02
 cg2d: Sum(rhs),rhsMax =   9.20196072118351E-10  1.58794716737940E-02
 cg2d: Sum(rhs),rhsMax =   9.20247530955542E-10  1.58792617016779E-02
 cg2d: Sum(rhs),rhsMax =   9.20293563577701E-10  1.58790592255461E-02
 cg2d: Sum(rhs),rhsMax =   9.20354015221392E-10  1.58788643300647E-02
 cg2d: Sum(rhs),rhsMax =   9.20413814609056E-10  1.58786770909103E-02
 cg2d: Sum(rhs),rhsMax =   9.20460610509544E-10  1.58784975728526E-02
 cg2d: Sum(rhs),rhsMax =   9.20496692757844E-10  1.58783258322046E-02
 cg2d: Sum(rhs),rhsMax =   9.20543100080273E-10  1.58781619060186E-02
 cg2d: Sum(rhs),rhsMax =   9.20590451092274E-10  1.58780058231810E-02
 cg2d: Sum(rhs),rhsMax =   9.20644199764453E-10  1.58778576008275E-02
 cg2d: Sum(rhs),rhsMax =   9.20694270822864E-10  1.58777172350627E-02
 cg2d: Sum(rhs),rhsMax =   9.20753806532559E-10  1.58775847081140E-02
 cg2d: Sum(rhs),rhsMax =   9.20805653947809E-10  1.58774599835947E-02
 cg2d: Sum(rhs),rhsMax =   9.20844775431640E-10  1.58773430093904E-02
 cg2d: Sum(rhs),rhsMax =   9.20897025302736E-10  1.58772337129425E-02
 cg2d: Sum(rhs),rhsMax =   9.20950579685886E-10  1.58771320063003E-02
 cg2d: Sum(rhs),rhsMax =   9.20994641662176E-10  1.58770377793100E-02
 cg2d: Sum(rhs),rhsMax =   9.21047127455665E-10  1.58769509030167E-02
 cg2d: Sum(rhs),rhsMax =   9.21099516104640E-10  1.58768712274409E-02
 cg2d: Sum(rhs),rhsMax =   9.21152779054246E-10  1.58767985889529E-02
 cg2d: Sum(rhs),rhsMax =   9.21200463133154E-10  1.58767327896014E-02
 cg2d: Sum(rhs),rhsMax =   9.21252782393189E-10  1.58766736263623E-02
 cg2d: Sum(rhs),rhsMax =   9.21299661560404E-10  1.58766208725951E-02
 cg2d: Sum(rhs),rhsMax =   9.21354048610823E-10  1.58765740998222E-02
 cg2d: Sum(rhs),rhsMax =   9.21396361985849E-10  1.58765330164700E-02
 cg2d: Sum(rhs),rhsMax =   9.21448847779338E-10  1.58764975293868E-02
 cg2d: Sum(rhs),rhsMax =   9.21503665041179E-10  1.58764673377616E-02
 cg2d: Sum(rhs),rhsMax =   9.21548615195888E-10  1.58764421309843E-02
 cg2d: Sum(rhs),rhsMax =   9.21601558956375E-10  1.58764215781311E-02
 cg2d: Sum(rhs),rhsMax =   9.21646509111085E-10  1.58764053355758E-02
 cg2d: Sum(rhs),rhsMax =   9.21685408550310E-10  1.58763930428077E-02
 cg2d: Sum(rhs),rhsMax =   9.21719464641590E-10  1.58763843306722E-02
 cg2d: Sum(rhs),rhsMax =   9.21768175676796E-10  1.58763788154848E-02
 cg2d: Sum(rhs),rhsMax =   9.21818982257960E-10  1.58763761032263E-02
 cg2d: Sum(rhs),rhsMax =   9.21860268676689E-10  1.58763757932396E-02
 cg2d: Sum(rhs),rhsMax =   9.21908438478170E-10  1.58763774746588E-02
 cg2d: Sum(rhs),rhsMax =   9.21940690457035E-10  1.58763807321569E-02
 cg2d: Sum(rhs),rhsMax =   9.21985751634047E-10  1.58763851620871E-02
 cg2d: Sum(rhs),rhsMax =   9.22028536853858E-10  1.58763903413146E-02
 cg2d: Sum(rhs),rhsMax =   9.22060761077148E-10  1.58763958476250E-02
 cg2d: Sum(rhs),rhsMax =   9.22102741385267E-10  1.58764012534841E-02
 cg2d: Sum(rhs),rhsMax =   9.22152437743406E-10  1.58764061392538E-02
 cg2d: Sum(rhs),rhsMax =   9.22201634501185E-10  1.58764100822066E-02
 cg2d: Sum(rhs),rhsMax =   9.22246223833412E-10  1.58764126700603E-02
 cg2d: Sum(rhs),rhsMax =   9.22284124071915E-10  1.58764134941490E-02
 cg2d: Sum(rhs),rhsMax =   9.22328449726173E-10  1.58764121547568E-02
 cg2d: Sum(rhs),rhsMax =   9.22386320101332E-10  1.58764082645998E-02
 cg2d: Sum(rhs),rhsMax =   9.22429896355048E-10  1.58764014451929E-02
 cg2d: Sum(rhs),rhsMax =   9.22473070152918E-10  1.58763913310826E-02
 cg2d: Sum(rhs),rhsMax =   9.22513662682256E-10  1.58763775747451E-02
 cg2d: Sum(rhs),rhsMax =   9.22565759897687E-10  1.58763598390182E-02
 cg2d: Sum(rhs),rhsMax =   9.22600884578628E-10  1.58763378101469E-02
 cg2d: Sum(rhs),rhsMax =   9.22634080247065E-10  1.58763111898510E-02
 cg2d: Sum(rhs),rhsMax =   9.22677906300962E-10  1.58762796979385E-02
 cg2d: Sum(rhs),rhsMax =   9.22726631213955E-10  1.58762430775959E-02
 cg2d: Sum(rhs),rhsMax =   9.22769541333857E-10  1.58762010931928E-02
 cg2d: Sum(rhs),rhsMax =   9.22819362592087E-10  1.58761535321778E-02
 cg2d: Sum(rhs),rhsMax =   9.22867213204448E-10  1.58761002027563E-02
 cg2d: Sum(rhs),rhsMax =   9.22919643486786E-10  1.58760409384996E-02
 cg2d: Sum(rhs),rhsMax =   9.22968368399779E-10  1.58759755979231E-02
 cg2d: Sum(rhs),rhsMax =   9.23001619579367E-10  1.58759040654574E-02
 cg2d: Sum(rhs),rhsMax =   9.23058643409469E-10  1.58758262454611E-02
 cg2d: Sum(rhs),rhsMax =   9.23105702987925E-10  1.58757420730685E-02
 cg2d: Sum(rhs),rhsMax =   9.23154094834011E-10  1.58756515049309E-02
 cg2d: Sum(rhs),rhsMax =   9.23215365267183E-10  1.58755545257152E-02
 cg2d: Sum(rhs),rhsMax =   9.23265561225683E-10  1.58754511408811E-02
 cg2d: Sum(rhs),rhsMax =   9.23310566891544E-10  1.58753413780709E-02
 cg2d: Sum(rhs),rhsMax =   9.23344803394066E-10  1.58752252907768E-02
 cg2d: Sum(rhs),rhsMax =   9.23382287298935E-10  1.58751029577995E-02
 cg2d: Sum(rhs),rhsMax =   9.23430165666872E-10  1.58749744792236E-02
 cg2d: Sum(rhs),rhsMax =   9.23499485216972E-10  1.58748399784872E-02
 cg2d: Sum(rhs),rhsMax =   9.23564336119398E-10  1.58746995997203E-02
 cg2d: Sum(rhs),rhsMax =   9.23617474168914E-10  1.58745535061449E-02
 cg2d: Sum(rhs),rhsMax =   9.23671028552064E-10  1.58744018789445E-02
 cg2d: Sum(rhs),rhsMax =   9.23723264545373E-10  1.58742449167257E-02
 cg2d: Sum(rhs),rhsMax =   9.23771267813400E-10  1.58740828344584E-02
 cg2d: Sum(rhs),rhsMax =   9.23827944698807E-10  1.58739158615632E-02
 cg2d: Sum(rhs),rhsMax =   9.23867649049726E-10  1.58737442420838E-02
 cg2d: Sum(rhs),rhsMax =   9.23922133244659E-10  1.58735682287945E-02
 cg2d: Sum(rhs),rhsMax =   9.23963489052326E-10  1.58733880868271E-02
 cg2d: Sum(rhs),rhsMax =   9.24020568393580E-10  1.58732040893771E-02
 cg2d: Sum(rhs),rhsMax =   9.24075913011357E-10  1.58730165161345E-02
 cg2d: Sum(rhs),rhsMax =   9.24127607770941E-10  1.58728256536375E-02
 cg2d: Sum(rhs),rhsMax =   9.24186810413730E-10  1.58726317898325E-02
 cg2d: Sum(rhs),rhsMax =   9.24241613797783E-10  1.58724352187294E-02
 cg2d: Sum(rhs),rhsMax =   9.24292448134523E-10  1.58722362347092E-02
 cg2d: Sum(rhs),rhsMax =   9.24343310226838E-10  1.58720351285423E-02
 cg2d: Sum(rhs),rhsMax =   9.24408619096262E-10  1.58718321840202E-02
 cg2d: Sum(rhs),rhsMax =   9.24459855888848E-10  1.58716276834872E-02
 cg2d: Sum(rhs),rhsMax =   9.24518406275610E-10  1.58714219098349E-02
 cg2d: Sum(rhs),rhsMax =   9.24572488014697E-10  1.58712151350539E-02
 cg2d: Sum(rhs),rhsMax =   9.24623377862588E-10  1.58710076256837E-02
 cg2d: Sum(rhs),rhsMax =   9.24679832703390E-10  1.58707996359124E-02
 cg2d: Sum(rhs),rhsMax =   9.24727350248844E-10  1.58705914096113E-02
 cg2d: Sum(rhs),rhsMax =   9.24787871281474E-10  1.58703831798645E-02
 cg2d: Sum(rhs),rhsMax =   9.24835596993745E-10  1.58701751668461E-02
 cg2d: Sum(rhs),rhsMax =   9.24888318709627E-10  1.58699675771951E-02
 Computing Diagnostic #    26 "THETA   " (list#  1) Parms "SMR     MR      ", Count=     144
 Computing Diagnostic #    27 "SALT    " (list#  1) Parms "SMR     MR      ", Count=     144
 Computing Diagnostic #    30 "UVEL    " (list#  1) Parms "UUR     MR      ", Count=     144
             Vector  Mate for "UVEL    " :  Diagnostic #     31 "VVEL    " exists
 Computing Diagnostic #    32 "WVEL    " (list#  1) Parms "WM      LR      ", Count=     144
 Computing Diagnostic #    31 "VVEL    " (list#  1) Parms "VVR     MR      ", Count=     144
             Vector  Mate for "VVEL    " :  Diagnostic #     30 "UVEL    " exists
 Computing Diagnostic #   197 "BRGfwFlx" (list#  2) Parms "SM      MR      ", Count=     144
 Computing Diagnostic #   198 "BRGhtFlx" (list#  2) Parms "SM      MR      ", Count=     144
 Computing Diagnostic #   199 "BRGmltRt" (list#  2) Parms "SM      MR      ", Count=     144
 Computing Diagnostic #   201 "BRG_TauX" (list#  2) Parms "UU      MR      ", Count=    1728
 Computing Diagnostic #   202 "BRG_TauY" (list#  2) Parms "VV      MR      ", Count=    1728
 Computing Diagnostic #   203 "BRGhFacC" (list#  2) Parms "SM      MR      ", Count=    1728
 cg2d: Sum(rhs),rhsMax =   9.24933671320183E-10  1.58697606019873E-02
 cg2d: Sum(rhs),rhsMax =   9.24998480589245E-10  1.58695544179484E-02
 cg2d: Sum(rhs),rhsMax =   9.25056434231131E-10  1.58693491852908E-02
 cg2d: Sum(rhs),rhsMax =   9.25115317684799E-10  1.58691450507220E-02
 cg2d: Sum(rhs),rhsMax =   9.25169968413186E-10  1.58689421379377E-02
 cg2d: Sum(rhs),rhsMax =   9.25218374137060E-10  1.58687405622449E-02
 cg2d: Sum(rhs),rhsMax =   9.25277215957365E-10  1.58685404149528E-02
 cg2d: Sum(rhs),rhsMax =   9.25329424195098E-10  1.58683417738198E-02
 cg2d: Sum(rhs),rhsMax =   9.25373375149086E-10  1.58681446992114E-02
 cg2d: Sum(rhs),rhsMax =   9.25423584985374E-10  1.58679492329852E-02
 cg2d: Sum(rhs),rhsMax =   9.25481344338230E-10  1.58677554010892E-02
 cg2d: Sum(rhs),rhsMax =   9.25536064455557E-10  1.58675632138255E-02
 cg2d: Sum(rhs),rhsMax =   9.25592977263356E-10  1.58673726644272E-02
 cg2d: Sum(rhs),rhsMax =   9.25639537241452E-10  1.58671837305652E-02
 cg2d: Sum(rhs),rhsMax =   9.25694437770019E-10  1.58669963773316E-02
 cg2d: Sum(rhs),rhsMax =   9.25746784785630E-10  1.58668105524228E-02
 cg2d: Sum(rhs),rhsMax =   9.25796286854741E-10  1.58666261934861E-02
 cg2d: Sum(rhs),rhsMax =   9.25846982413603E-10  1.58664432232327E-02
 cg2d: Sum(rhs),rhsMax =   9.25901189052780E-10  1.58662615548761E-02
 cg2d: Sum(rhs),rhsMax =   9.25966539555567E-10  1.58660810906456E-02
 cg2d: Sum(rhs),rhsMax =   9.26015888969012E-10  1.58659017221004E-02
 cg2d: Sum(rhs),rhsMax =   9.26069734785706E-10  1.58657233344728E-02
 cg2d: Sum(rhs),rhsMax =   9.26121429545290E-10  1.58655458030288E-02
 cg2d: Sum(rhs),rhsMax =   9.26175358628711E-10  1.58653690006822E-02
 cg2d: Sum(rhs),rhsMax =   9.26223542307980E-10  1.58651927921760E-02
 cg2d: Sum(rhs),rhsMax =   9.26287893610045E-10  1.58650170390702E-02
 cg2d: Sum(rhs),rhsMax =   9.26332205386515E-10  1.58648416022928E-02
 cg2d: Sum(rhs),rhsMax =   9.26386356514541E-10  1.58646663379674E-02
 cg2d: Sum(rhs),rhsMax =   9.26442839110919E-10  1.58644911044691E-02
 cg2d: Sum(rhs),rhsMax =   9.26497836784002E-10  1.58643157593571E-02
 cg2d: Sum(rhs),rhsMax =   9.26550280944127E-10  1.58641401613430E-02
 cg2d: Sum(rhs),rhsMax =   9.26597812367369E-10  1.58639641755821E-02
 cg2d: Sum(rhs),rhsMax =   9.26653462296478E-10  1.58637876660926E-02
 cg2d: Sum(rhs),rhsMax =   9.26723420224818E-10  1.58636105054087E-02
 cg2d: Sum(rhs),rhsMax =   9.26762069863862E-10  1.58634325696018E-02
 cg2d: Sum(rhs),rhsMax =   9.26818385926786E-10  1.58632537426100E-02
 cg2d: Sum(rhs),rhsMax =   9.26856258409714E-10  1.58630739144423E-02
 cg2d: Sum(rhs),rhsMax =   9.26909521359320E-10  1.58628929833655E-02
 cg2d: Sum(rhs),rhsMax =   9.26962714919988E-10  1.58627108568466E-02
 cg2d: Sum(rhs),rhsMax =   9.27011412077405E-10  1.58625274505653E-02
 cg2d: Sum(rhs),rhsMax =   9.27063675826290E-10  1.58623426894501E-02
 cg2d: Sum(rhs),rhsMax =   9.27120366589484E-10  1.58621565095760E-02
 cg2d: Sum(rhs),rhsMax =   9.27186147303694E-10  1.58619688567274E-02
 cg2d: Sum(rhs),rhsMax =   9.27215221269151E-10  1.58617796857940E-02
 cg2d: Sum(rhs),rhsMax =   9.27255383587067E-10  1.58615889642193E-02
 cg2d: Sum(rhs),rhsMax =   9.27303067665974E-10  1.58613966672627E-02
 cg2d: Sum(rhs),rhsMax =   9.27354734669983E-10  1.58612027824555E-02
 cg2d: Sum(rhs),rhsMax =   9.27421417440399E-10  1.58610073071855E-02
 cg2d: Sum(rhs),rhsMax =   9.27475804490818E-10  1.58608102470728E-02
 cg2d: Sum(rhs),rhsMax =   9.27518617466205E-10  1.58606116201600E-02
 cg2d: Sum(rhs),rhsMax =   9.27574406173193E-10  1.58604114506016E-02
 cg2d: Sum(rhs),rhsMax =   9.27624865809662E-10  1.58602097744936E-02
 cg2d: Sum(rhs),rhsMax =   9.27670579242701E-10  1.58600066320688E-02
 cg2d: Sum(rhs),rhsMax =   9.27705648412491E-10  1.58598020748028E-02
 cg2d: Sum(rhs),rhsMax =   9.27769222558439E-10  1.58595961594758E-02
 cg2d: Sum(rhs),rhsMax =   9.27806512174278E-10  1.58593889493648E-02
 cg2d: Sum(rhs),rhsMax =   9.27857818355804E-10  1.58591805127541E-02
 cg2d: Sum(rhs),rhsMax =   9.27916882220714E-10  1.58589709212515E-02
 cg2d: Sum(rhs),rhsMax =   9.27990920218669E-10  1.58587602538249E-02
 cg2d: Sum(rhs),rhsMax =   9.28022950152929E-10  1.58585485878764E-02
 cg2d: Sum(rhs),rhsMax =   9.28083096485288E-10  1.58583360051676E-02
 cg2d: Sum(rhs),rhsMax =   9.28133681021848E-10  1.58581225878036E-02
 cg2d: Sum(rhs),rhsMax =   9.28190024840347E-10  1.58579084181185E-02
 cg2d: Sum(rhs),rhsMax =   9.28246812748057E-10  1.58576935774957E-02
 cg2d: Sum(rhs),rhsMax =   9.28303517389040E-10  1.58574781447138E-02
 cg2d: Sum(rhs),rhsMax =   9.28360152641083E-10  1.58572621951437E-02
 cg2d: Sum(rhs),rhsMax =   9.28417773216061E-10  1.58570458072245E-02
 cg2d: Sum(rhs),rhsMax =   9.28473367634020E-10  1.58568290451649E-02
 cg2d: Sum(rhs),rhsMax =   9.28518983922544E-10  1.58566119743139E-02
 cg2d: Sum(rhs),rhsMax =   9.28563087532197E-10  1.58563946507832E-02
 cg2d: Sum(rhs),rhsMax =   9.28618210105370E-10  1.58561771256573E-02
 cg2d: Sum(rhs),rhsMax =   9.28659010801525E-10  1.58559594429342E-02
 cg2d: Sum(rhs),rhsMax =   9.28716201165081E-10  1.58557416336589E-02
 cg2d: Sum(rhs),rhsMax =   9.28771351493829E-10  1.58555237272331E-02
 cg2d: Sum(rhs),rhsMax =   9.28834523183930E-10  1.58553057381789E-02
 cg2d: Sum(rhs),rhsMax =   9.28885524054124E-10  1.58550876738216E-02
 cg2d: Sum(rhs),rhsMax =   9.28933013844002E-10  1.58548695306399E-02
 cg2d: Sum(rhs),rhsMax =   9.28983820425167E-10  1.58546512930560E-02
 cg2d: Sum(rhs),rhsMax =   9.29040705477391E-10  1.58544329389714E-02
 cg2d: Sum(rhs),rhsMax =   9.29095231305688E-10  1.58542144333115E-02
 cg2d: Sum(rhs),rhsMax =   9.29160262619355E-10  1.58539957274406E-02
 cg2d: Sum(rhs),rhsMax =   9.29212276568059E-10  1.58537767675938E-02
 cg2d: Sum(rhs),rhsMax =   9.29277682581997E-10  1.58535574834225E-02
 cg2d: Sum(rhs),rhsMax =   9.29340659983069E-10  1.58533378011002E-02
 cg2d: Sum(rhs),rhsMax =   9.29389579185091E-10  1.58531176309885E-02
 cg2d: Sum(rhs),rhsMax =   9.29445867492440E-10  1.58528968750918E-02
 cg2d: Sum(rhs),rhsMax =   9.29511190239651E-10  1.58526754284329E-02
 cg2d: Sum(rhs),rhsMax =   9.29567658958241E-10  1.58524531750909E-02
 cg2d: Sum(rhs),rhsMax =   9.29611970734712E-10  1.58522299932836E-02
 cg2d: Sum(rhs),rhsMax =   9.29661944648608E-10  1.58520057509024E-02
 cg2d: Sum(rhs),rhsMax =   9.29719579101373E-10  1.58517803105029E-02
 cg2d: Sum(rhs),rhsMax =   9.29774424118790E-10  1.58515535285416E-02
 cg2d: Sum(rhs),rhsMax =   9.29825244577742E-10  1.58513252545664E-02
 cg2d: Sum(rhs),rhsMax =   9.29895424550686E-10  1.58510953286509E-02
 cg2d: Sum(rhs),rhsMax =   9.29945995209458E-10  1.58508636017527E-02
 cg2d: Sum(rhs),rhsMax =   9.30002533316987E-10  1.58506299126968E-02
 cg2d: Sum(rhs),rhsMax =   9.30065649495937E-10  1.58503940967473E-02
 cg2d: Sum(rhs),rhsMax =   9.30110724550737E-10  1.58501559958256E-02
 cg2d: Sum(rhs),rhsMax =   9.30173230107023E-10  1.58499154508451E-02
 cg2d: Sum(rhs),rhsMax =   9.30235374840827E-10  1.58496723066788E-02
 cg2d: Sum(rhs),rhsMax =   9.30285029565603E-10  1.58494264106361E-02
 cg2d: Sum(rhs),rhsMax =   9.30335669613314E-10  1.58491776170879E-02
 cg2d: Sum(rhs),rhsMax =   9.30387725195381E-10  1.58489257826746E-02
 cg2d: Sum(rhs),rhsMax =   9.30456059422546E-10  1.58486707727981E-02
 cg2d: Sum(rhs),rhsMax =   9.30506990903801E-10  1.58484124607699E-02
 cg2d: Sum(rhs),rhsMax =   9.30555618672280E-10  1.58481507278988E-02
 cg2d: Sum(rhs),rhsMax =   9.30615723371275E-10  1.58478854669365E-02
 cg2d: Sum(rhs),rhsMax =   9.30678700772347E-10  1.58476165792135E-02
 cg2d: Sum(rhs),rhsMax =   9.30733295989583E-10  1.58473439811100E-02
 cg2d: Sum(rhs),rhsMax =   9.30781660080093E-10  1.58470675964390E-02
 cg2d: Sum(rhs),rhsMax =   9.30834090362431E-10  1.58467873668234E-02
 cg2d: Sum(rhs),rhsMax =   9.30876278837367E-10  1.58465032441521E-02
 cg2d: Sum(rhs),rhsMax =   9.30925364572843E-10  1.58462151942632E-02
 cg2d: Sum(rhs),rhsMax =   9.30983401481456E-10  1.58459232012146E-02
 cg2d: Sum(rhs),rhsMax =   9.31045407437381E-10  1.58456272569640E-02
 cg2d: Sum(rhs),rhsMax =   9.31096019729516E-10  1.58453273746592E-02
 cg2d: Sum(rhs),rhsMax =   9.31164478856772E-10  1.58450235798659E-02
 cg2d: Sum(rhs),rhsMax =   9.31219087951796E-10  1.58447159128338E-02
 cg2d: Sum(rhs),rhsMax =   9.31290045080857E-10  1.58444044290699E-02
 cg2d: Sum(rhs),rhsMax =   9.31352092670146E-10  1.58440891969709E-02
 cg2d: Sum(rhs),rhsMax =   9.31411461846388E-10  1.58437703046346E-02
 cg2d: Sum(rhs),rhsMax =   9.31472815546286E-10  1.58434478494227E-02
 cg2d: Sum(rhs),rhsMax =   9.31526467073951E-10  1.58431219453212E-02
 cg2d: Sum(rhs),rhsMax =   9.31588597929967E-10  1.58427927189257E-02
 cg2d: Sum(rhs),rhsMax =   9.31654378644176E-10  1.58424603066962E-02
 cg2d: Sum(rhs),rhsMax =   9.31720381402990E-10  1.58421248637109E-02
 cg2d: Sum(rhs),rhsMax =   9.31782553892369E-10  1.58417865499163E-02
 cg2d: Sum(rhs),rhsMax =   9.31837232376331E-10  1.58414455392349E-02
 cg2d: Sum(rhs),rhsMax =   9.31902791045935E-10  1.58411020144632E-02
 cg2d: Sum(rhs),rhsMax =   9.31949503679697E-10  1.58407561661839E-02
 cg2d: Sum(rhs),rhsMax =   9.32007540588309E-10  1.58404081941213E-02
 cg2d: Sum(rhs),rhsMax =   9.32068339176695E-10  1.58400583029862E-02
 cg2d: Sum(rhs),rhsMax =   9.32126043018400E-10  1.58397067028983E-02
 cg2d: Sum(rhs),rhsMax =   9.32196209113556E-10  1.58393536110185E-02
 cg2d: Sum(rhs),rhsMax =   9.32251290053365E-10  1.58389992440494E-02
 cg2d: Sum(rhs),rhsMax =   9.32317445467845E-10  1.58386438236046E-02
 cg2d: Sum(rhs),rhsMax =   9.32397270503316E-10  1.58382875688041E-02
 cg2d: Sum(rhs),rhsMax =   9.32464785941001E-10  1.58379307019344E-02
 cg2d: Sum(rhs),rhsMax =   9.32530788699815E-10  1.58375734404268E-02
 cg2d: Sum(rhs),rhsMax =   9.32586591284590E-10  1.58372160026435E-02
 cg2d: Sum(rhs),rhsMax =   9.32650276452840E-10  1.58368585999757E-02
 cg2d: Sum(rhs),rhsMax =   9.32718124957432E-10  1.58365014388319E-02
 cg2d: Sum(rhs),rhsMax =   9.32785418350512E-10  1.58361447222432E-02
 cg2d: Sum(rhs),rhsMax =   9.32851032531268E-10  1.58357886411746E-02
 Computing Diagnostic #    26 "THETA   " (list#  1) Parms "SMR     MR      ", Count=     144
 Computing Diagnostic #    27 "SALT    " (list#  1) Parms "SMR     MR      ", Count=     144
 Computing Diagnostic #    30 "UVEL    " (list#  1) Parms "UUR     MR      ", Count=     144
             Vector  Mate for "UVEL    " :  Diagnostic #     31 "VVEL    " exists
 Computing Diagnostic #    32 "WVEL    " (list#  1) Parms "WM      LR      ", Count=     144
 Computing Diagnostic #    31 "VVEL    " (list#  1) Parms "VVR     MR      ", Count=     144
             Vector  Mate for "VVEL    " :  Diagnostic #     30 "UVEL    " exists
 Computing Diagnostic #   197 "BRGfwFlx" (list#  2) Parms "SM      MR      ", Count=     144
 Computing Diagnostic #   198 "BRGhtFlx" (list#  2) Parms "SM      MR      ", Count=     144
 Computing Diagnostic #   199 "BRGmltRt" (list#  2) Parms "SM      MR      ", Count=     144
 Computing Diagnostic #   201 "BRG_TauX" (list#  2) Parms "UU      MR      ", Count=    1728
 Computing Diagnostic #   202 "BRG_TauY" (list#  2) Parms "VV      MR      ", Count=    1728
 Computing Diagnostic #   203 "BRGhFacC" (list#  2) Parms "SM      MR      ", Count=    1728
 cg2d: Sum(rhs),rhsMax =   9.32932717190305E-10  1.58354333824914E-02
 cg2d: Sum(rhs),rhsMax =   9.33000898761804E-10  1.58350791222497E-02
 cg2d: Sum(rhs),rhsMax =   9.33064500663328E-10  1.58347260271193E-02
 cg2d: Sum(rhs),rhsMax =   9.33135457792389E-10  1.58343742512204E-02
 cg2d: Sum(rhs),rhsMax =   9.33195853924929E-10  1.58340239358958E-02
 cg2d: Sum(rhs),rhsMax =   9.33264285296609E-10  1.58336752135929E-02
 cg2d: Sum(rhs),rhsMax =   9.33325167151722E-10  1.58333281998554E-02
 cg2d: Sum(rhs),rhsMax =   9.33402688474416E-10  1.58329829979791E-02
 cg2d: Sum(rhs),rhsMax =   9.33472910080724E-10  1.58326396987193E-02
 cg2d: Sum(rhs),rhsMax =   9.33540161840440E-10  1.58322983733971E-02
 cg2d: Sum(rhs),rhsMax =   9.33594576646435E-10  1.58319590842167E-02
 cg2d: Sum(rhs),rhsMax =   9.33653473977891E-10  1.58316218728448E-02
 cg2d: Sum(rhs),rhsMax =   9.33724361718014E-10  1.58312867685327E-02
 cg2d: Sum(rhs),rhsMax =   9.33789087720349E-10  1.58309537859722E-02
 cg2d: Sum(rhs),rhsMax =   9.33846638906388E-10  1.58306229218850E-02
 cg2d: Sum(rhs),rhsMax =   9.33902871702585E-10  1.58302941596456E-02
 cg2d: Sum(rhs),rhsMax =   9.33964891536299E-10  1.58299674678131E-02
 cg2d: Sum(rhs),rhsMax =   9.34032254318318E-10  1.58296428005137E-02
 cg2d: Sum(rhs),rhsMax =   9.34100435889818E-10  1.58293200978553E-02
 cg2d: Sum(rhs),rhsMax =   9.34151964115948E-10  1.58289992854922E-02
 cg2d: Sum(rhs),rhsMax =   9.34214039460812E-10  1.58286802782458E-02
 cg2d: Sum(rhs),rhsMax =   9.34273894359627E-10  1.58283629763970E-02
 cg2d: Sum(rhs),rhsMax =   9.34332999857901E-10  1.58280472699055E-02
 cg2d: Sum(rhs),rhsMax =   9.34383695416763E-10  1.58277330371749E-02
 cg2d: Sum(rhs),rhsMax =   9.34438179611696E-10  1.58274201491109E-02
 cg2d: Sum(rhs),rhsMax =   9.34488555981439E-10  1.58271084651134E-02
 cg2d: Sum(rhs),rhsMax =   9.34548285980163E-10  1.58267978872762E-02
 cg2d: Sum(rhs),rhsMax =   9.34607877201010E-10  1.58264882882703E-02
 cg2d: Sum(rhs),rhsMax =   9.34667274132828E-10  1.58261795045993E-02
 cg2d: Sum(rhs),rhsMax =   9.34717095391058E-10  1.58258713721490E-02
 cg2d: Sum(rhs),rhsMax =   9.34778116024049E-10  1.58255637181360E-02
 cg2d: Sum(rhs),rhsMax =   9.34843313871170E-10  1.58252563716605E-02
 cg2d: Sum(rhs),rhsMax =   9.34907137817298E-10  1.58249491561854E-02
 cg2d: Sum(rhs),rhsMax =   9.34970656452094E-10  1.58246418946997E-02
 cg2d: Sum(rhs),rhsMax =   9.35035701643550E-10  1.58243344126374E-02
 cg2d: Sum(rhs),rhsMax =   9.35102884014327E-10  1.58240265335597E-02
 cg2d: Sum(rhs),rhsMax =   9.35164307103165E-10  1.58237180864977E-02
 cg2d: Sum(rhs),rhsMax =   9.35233085419540E-10  1.58234089055417E-02
 cg2d: Sum(rhs),rhsMax =   9.35308219762732E-10  1.58230987997243E-02
 cg2d: Sum(rhs),rhsMax =   9.35361704756943E-10  1.58227876307654E-02
 cg2d: Sum(rhs),rhsMax =   9.35422336811875E-10  1.58224752429112E-02
 cg2d: Sum(rhs),rhsMax =   9.35496791143464E-10  1.58221614861437E-02
 cg2d: Sum(rhs),rhsMax =   9.35550220626524E-10  1.58218462209666E-02
 cg2d: Sum(rhs),rhsMax =   9.35601651708140E-10  1.58215293177828E-02
 cg2d: Sum(rhs),rhsMax =   9.35674857038826E-10  1.58212106593503E-02
 cg2d: Sum(rhs),rhsMax =   9.35739263852042E-10  1.58208900921224E-02
 cg2d: Sum(rhs),rhsMax =   9.35801575119299E-10  1.58205675054009E-02
 cg2d: Sum(rhs),rhsMax =   9.35863594953013E-10  1.58202428218790E-02
 cg2d: Sum(rhs),rhsMax =   9.35929153622617E-10  1.58199159708340E-02
 cg2d: Sum(rhs),rhsMax =   9.35983415772945E-10  1.58195869014756E-02
 cg2d: Sum(rhs),rhsMax =   9.36032043541424E-10  1.58192555769522E-02
 cg2d: Sum(rhs),rhsMax =   9.36091856806875E-10  1.58189219677451E-02
 cg2d: Sum(rhs),rhsMax =   9.36156138720001E-10  1.58185860624872E-02
 cg2d: Sum(rhs),rhsMax =   9.36214536451097E-10  1.58182478696040E-02
 cg2d: Sum(rhs),rhsMax =   9.36272268048377E-10  1.58179074095921E-02
 cg2d: Sum(rhs),rhsMax =   9.36332178458343E-10  1.58175647151374E-02
 cg2d: Sum(rhs),rhsMax =   9.36393018680093E-10  1.58172198324013E-02
 cg2d: Sum(rhs),rhsMax =   9.36448793509292E-10  1.58168728180785E-02
 cg2d: Sum(rhs),rhsMax =   9.36522942529550E-10  1.58165237420780E-02
 cg2d: Sum(rhs),rhsMax =   9.36580521471164E-10  1.58161726906589E-02
 cg2d: Sum(rhs),rhsMax =   9.36653712924063E-10  1.58158197567676E-02
 cg2d: Sum(rhs),rhsMax =   9.36725863542875E-10  1.58154650498827E-02
 cg2d: Sum(rhs),rhsMax =   9.36781333060743E-10  1.58151086873337E-02
 cg2d: Sum(rhs),rhsMax =   9.36858313149713E-10  1.58147507973720E-02
 cg2d: Sum(rhs),rhsMax =   9.36912214477559E-10  1.58143915151170E-02
 cg2d: Sum(rhs),rhsMax =   9.36980423804634E-10  1.58140309856008E-02
 cg2d: Sum(rhs),rhsMax =   9.37045302462636E-10  1.58136693611137E-02
 cg2d: Sum(rhs),rhsMax =   9.37109306820005E-10  1.58133067978678E-02
 cg2d: Sum(rhs),rhsMax =   9.37180805182791E-10  1.58129434578869E-02
 cg2d: Sum(rhs),rhsMax =   9.37250832500069E-10  1.58125795090328E-02
 cg2d: Sum(rhs),rhsMax =   9.37312436000148E-10  1.58122151201095E-02
 cg2d: Sum(rhs),rhsMax =   9.37364352804337E-10  1.58118504626912E-02
 cg2d: Sum(rhs),rhsMax =   9.37428606961888E-10  1.58114857092222E-02
 cg2d: Sum(rhs),rhsMax =   9.37481023366438E-10  1.58111210329186E-02
 cg2d: Sum(rhs),rhsMax =   9.37539684775501E-10  1.58107566050595E-02
 cg2d: Sum(rhs),rhsMax =   9.37591629335266E-10  1.58103925963114E-02
 cg2d: Sum(rhs),rhsMax =   9.37669525358231E-10  1.58100291737831E-02
 cg2d: Sum(rhs),rhsMax =   9.37724425886799E-10  1.58096665021004E-02
 cg2d: Sum(rhs),rhsMax =   9.37778979470671E-10  1.58093047397447E-02
 cg2d: Sum(rhs),rhsMax =   9.37844496506912E-10  1.58089440432487E-02
 cg2d: Sum(rhs),rhsMax =   9.37909611087306E-10  1.58085845579886E-02
 cg2d: Sum(rhs),rhsMax =   9.37979860449190E-10  1.58082264284798E-02
 cg2d: Sum(rhs),rhsMax =   9.38035690789540E-10  1.58078697858811E-02
 cg2d: Sum(rhs),rhsMax =   9.38108091208534E-10  1.58075147566672E-02
 cg2d: Sum(rhs),rhsMax =   9.38161368035928E-10  1.58071614360400E-02
 cg2d: Sum(rhs),rhsMax =   9.38232949665441E-10  1.58068099399364E-02
 cg2d: Sum(rhs),rhsMax =   9.38298175268137E-10  1.58064603406293E-02
 cg2d: Sum(rhs),rhsMax =   9.38359778768216E-10  1.58061127225079E-02
 cg2d: Sum(rhs),rhsMax =   9.38415983808838E-10  1.58057671533721E-02
 cg2d: Sum(rhs),rhsMax =   9.38486288681872E-10  1.58054236935046E-02
 cg2d: Sum(rhs),rhsMax =   9.38559660546012E-10  1.58050823920420E-02
 cg2d: Sum(rhs),rhsMax =   9.38620278723157E-10  1.58047432877237E-02
 cg2d: Sum(rhs),rhsMax =   9.38675179251725E-10  1.58044064113603E-02
 cg2d: Sum(rhs),rhsMax =   9.38735311706296E-10  1.58040717843212E-02
 cg2d: Sum(rhs),rhsMax =   9.38798844218880E-10  1.58037394196152E-02
 cg2d: Sum(rhs),rhsMax =   9.38858990551239E-10  1.58034093174179E-02
 cg2d: Sum(rhs),rhsMax =   9.38932279148652E-10  1.58030814743903E-02
 cg2d: Sum(rhs),rhsMax =   9.38996921884261E-10  1.58027558766133E-02
 cg2d: Sum(rhs),rhsMax =   9.39057775983798E-10  1.58024325032802E-02
 cg2d: Sum(rhs),rhsMax =   9.39123459553493E-10  1.58021113251175E-02
 cg2d: Sum(rhs),rhsMax =   9.39184341408605E-10  1.58017923064617E-02
 cg2d: Sum(rhs),rhsMax =   9.39248415154914E-10  1.58014754064687E-02
 cg2d: Sum(rhs),rhsMax =   9.39309463543481E-10  1.58011605775348E-02
 cg2d: Sum(rhs),rhsMax =   9.39380032094483E-10  1.58008477685863E-02
 cg2d: Sum(rhs),rhsMax =   9.39443065006706E-10  1.58005369202775E-02
 cg2d: Sum(rhs),rhsMax =   9.39513536413195E-10  1.58002279737658E-02
 cg2d: Sum(rhs),rhsMax =   9.39571948022078E-10  1.57999208639978E-02
 cg2d: Sum(rhs),rhsMax =   9.39633079677371E-10  1.57996155253949E-02
 cg2d: Sum(rhs),rhsMax =   9.39709685066070E-10  1.57993118880720E-02
 cg2d: Sum(rhs),rhsMax =   9.39768068919378E-10  1.57990098808195E-02
 cg2d: Sum(rhs),rhsMax =   9.39819236323025E-10  1.57987094331595E-02
 cg2d: Sum(rhs),rhsMax =   9.39877509154030E-10  1.57984104725930E-02
 cg2d: Sum(rhs),rhsMax =   9.39930369647790E-10  1.57981129276166E-02
 cg2d: Sum(rhs),rhsMax =   9.39995400961458E-10  1.57978167397777E-02
 cg2d: Sum(rhs),rhsMax =   9.40053743181402E-10  1.57975218486635E-02
 cg2d: Sum(rhs),rhsMax =   9.40111169467350E-10  1.57972281988162E-02
 cg2d: Sum(rhs),rhsMax =   9.40167471652487E-10  1.57969357472056E-02
 cg2d: Sum(rhs),rhsMax =   9.40242328439922E-10  1.57966444425021E-02
 cg2d: Sum(rhs),rhsMax =   9.40304903385147E-10  1.57963542369871E-02
 cg2d: Sum(rhs),rhsMax =   9.40354280554168E-10  1.57960650864491E-02
 cg2d: Sum(rhs),rhsMax =   9.40411290506482E-10  1.57957769467735E-02
 cg2d: Sum(rhs),rhsMax =   9.40480471278704E-10  1.57954897786399E-02
 cg2d: Sum(rhs),rhsMax =   9.40542504990205E-10  1.57952035453673E-02
 cg2d: Sum(rhs),rhsMax =   9.40594505061121E-10  1.57949182073159E-02
 cg2d: Sum(rhs),rhsMax =   9.40654901193660E-10  1.57946337341225E-02
 cg2d: Sum(rhs),rhsMax =   9.40702807317173E-10  1.57943500930746E-02
 cg2d: Sum(rhs),rhsMax =   9.40764507961767E-10  1.57940672542032E-02
 cg2d: Sum(rhs),rhsMax =   9.40832550755388E-10  1.57937851896830E-02
 cg2d: Sum(rhs),rhsMax =   9.40875918842288E-10  1.57935038720399E-02
 cg2d: Sum(rhs),rhsMax =   9.40955119377307E-10  1.57932232778870E-02
 cg2d: Sum(rhs),rhsMax =   9.41005773302805E-10  1.57929433812955E-02
 cg2d: Sum(rhs),rhsMax =   9.41076411242747E-10  1.57926641596440E-02
 cg2d: Sum(rhs),rhsMax =   9.41131228504588E-10  1.57923855908873E-02
 cg2d: Sum(rhs),rhsMax =   9.41191388714735E-10  1.57921076513311E-02
 cg2d: Sum(rhs),rhsMax =   9.41258626596664E-10  1.57918303200492E-02
 cg2d: Sum(rhs),rhsMax =   9.41310460134126E-10  1.57915535725661E-02
 cg2d: Sum(rhs),rhsMax =   9.41375741247974E-10  1.57912773841542E-02
 cg2d: Sum(rhs),rhsMax =   9.41437081070085E-10  1.57910017306499E-02
 cg2d: Sum(rhs),rhsMax =   9.41509092911019E-10  1.57907265860051E-02
 cg2d: Sum(rhs),rhsMax =   9.41560177047940E-10  1.57904519213497E-02
 cg2d: Sum(rhs),rhsMax =   9.41613620408788E-10  1.57901777055693E-02
 cg2d: Sum(rhs),rhsMax =   9.41671532417310E-10  1.57899039066698E-02
 cg2d: Sum(rhs),rhsMax =   9.41731831405335E-10  1.57896304890889E-02
 cg2d: Sum(rhs),rhsMax =   9.41778113827674E-10  1.57893574140465E-02
 Computing Diagnostic #    26 "THETA   " (list#  1) Parms "SMR     MR      ", Count=     144
 Computing Diagnostic #    27 "SALT    " (list#  1) Parms "SMR     MR      ", Count=     144
 Computing Diagnostic #    30 "UVEL    " (list#  1) Parms "UUR     MR      ", Count=     144
             Vector  Mate for "UVEL    " :  Diagnostic #     31 "VVEL    " exists
 Computing Diagnostic #    32 "WVEL    " (list#  1) Parms "WM      LR      ", Count=     144
 Computing Diagnostic #    31 "VVEL    " (list#  1) Parms "VVR     MR      ", Count=     144
             Vector  Mate for "VVEL    " :  Diagnostic #     30 "UVEL    " exists
 Computing Diagnostic #   197 "BRGfwFlx" (list#  2) Parms "SM      MR      ", Count=     144
 Computing Diagnostic #   198 "BRGhtFlx" (list#  2) Parms "SM      MR      ", Count=     144
 Computing Diagnostic #   199 "BRGmltRt" (list#  2) Parms "SM      MR      ", Count=     144
 Computing Diagnostic #   201 "BRG_TauX" (list#  2) Parms "UU      MR      ", Count=    1728
 Computing Diagnostic #   202 "BRG_TauY" (list#  2) Parms "VV      MR      ", Count=    1728
 Computing Diagnostic #   203 "BRGhFacC" (list#  2) Parms "SM      MR      ", Count=    1728
 cg2d: Sum(rhs),rhsMax =   9.41836386658679E-10  1.57890846391583E-02
 cg2d: Sum(rhs),rhsMax =   9.41891176164944E-10  1.57888121208553E-02
 cg2d: Sum(rhs),rhsMax =   9.41954958477709E-10  1.57885398101722E-02
 cg2d: Sum(rhs),rhsMax =   9.42029412809298E-10  1.57882676541962E-02
 cg2d: Sum(rhs),rhsMax =   9.42093084099760E-10  1.57879955974295E-02
 cg2d: Sum(rhs),rhsMax =   9.42135439108149E-10  1.57877235785178E-02
 cg2d: Sum(rhs),rhsMax =   9.42194877673330E-10  1.57874515350294E-02
 cg2d: Sum(rhs),rhsMax =   9.42274369641893E-10  1.57871793970426E-02
 cg2d: Sum(rhs),rhsMax =   9.42341621401610E-10  1.57869070959580E-02
 cg2d: Sum(rhs),rhsMax =   9.42391387148689E-10  1.57866345547477E-02
 cg2d: Sum(rhs),rhsMax =   9.42443192930575E-10  1.57863616938977E-02
 cg2d: Sum(rhs),rhsMax =   9.42498565303929E-10  1.57860884418668E-02
 cg2d: Sum(rhs),rhsMax =   9.42558378569380E-10  1.57858146914735E-02
 cg2d: Sum(rhs),rhsMax =   9.42608005538581E-10  1.57855403623317E-02
 cg2d: Sum(rhs),rhsMax =   9.42655759006428E-10  1.57852653715493E-02
 cg2d: Sum(rhs),rhsMax =   9.42729158626143E-10  1.57849896262248E-02
 cg2d: Sum(rhs),rhsMax =   9.42786987367938E-10  1.57847130270835E-02
 cg2d: Sum(rhs),rhsMax =   9.42850644780613E-10  1.57844354786953E-02
 cg2d: Sum(rhs),rhsMax =   9.42903727318978E-10  1.57841568852507E-02
 cg2d: Sum(rhs),rhsMax =   9.42976544071605E-10  1.57838771509530E-02
 cg2d: Sum(rhs),rhsMax =   9.43033068301347E-10  1.57835961808957E-02
 cg2d: Sum(rhs),rhsMax =   9.43096420402689E-10  1.57833138783880E-02
 cg2d: Sum(rhs),rhsMax =   9.43158981470127E-10  1.57830301495758E-02
 cg2d: Sum(rhs),rhsMax =   9.43211495019192E-10  1.57827449048235E-02
 cg2d: Sum(rhs),rhsMax =   9.43272432385456E-10  1.57824580524727E-02
 cg2d: Sum(rhs),rhsMax =   9.43333397507296E-10  1.57821695108069E-02
 cg2d: Sum(rhs),rhsMax =   9.43390976448910E-10  1.57818791965079E-02
 cg2d: Sum(rhs),rhsMax =   9.43447306389622E-10  1.57815870326049E-02
 cg2d: Sum(rhs),rhsMax =   9.43518638218954E-10  1.57812929497862E-02
 cg2d: Sum(rhs),rhsMax =   9.43587818991176E-10  1.57809968834565E-02
 cg2d: Sum(rhs),rhsMax =   9.43658734486874E-10  1.57806987742357E-02
 cg2d: Sum(rhs),rhsMax =   9.43718436730023E-10  1.57803987093964E-02
 cg2d: Sum(rhs),rhsMax =   9.43779387974075E-10  1.57800966309401E-02
 cg2d: Sum(rhs),rhsMax =   9.43834455036097E-10  1.57797926070469E-02
 cg2d: Sum(rhs),rhsMax =   9.43895947513873E-10  1.57794867663050E-02
 cg2d: Sum(rhs),rhsMax =   9.43952485621402E-10  1.57791791504261E-02
 cg2d: Sum(rhs),rhsMax =   9.44014019732542E-10  1.57788698074690E-02
 cg2d: Sum(rhs),rhsMax =   9.44048991757818E-10  1.57785588127150E-02
 cg2d: Sum(rhs),rhsMax =   9.44112954481824E-10  1.57782462456383E-02
 cg2d: Sum(rhs),rhsMax =   9.44170519545651E-10  1.57779321697451E-02
 cg2d: Sum(rhs),rhsMax =   9.44229902599680E-10  1.57776166837477E-02
 cg2d: Sum(rhs),rhsMax =   9.44299180516417E-10  1.57772998576878E-02
 cg2d: Sum(rhs),rhsMax =   9.44346129072571E-10  1.57769817936953E-02
 cg2d: Sum(rhs),rhsMax =   9.44432046456889E-10  1.57766625617698E-02
 cg2d: Sum(rhs),rhsMax =   9.44499839450330E-10  1.57763422725069E-02
 cg2d: Sum(rhs),rhsMax =   9.44556932669371E-10  1.57760210014555E-02
 cg2d: Sum(rhs),rhsMax =   9.44611361353154E-10  1.57756988601427E-02
 cg2d: Sum(rhs),rhsMax =   9.44676933900546E-10  1.57753759271510E-02
 cg2d: Sum(rhs),rhsMax =   9.44740105590647E-10  1.57750523189021E-02
 cg2d: Sum(rhs),rhsMax =   9.44801389901606E-10  1.57747281136443E-02
 cg2d: Sum(rhs),rhsMax =   9.44860634177758E-10  1.57744034227750E-02
 cg2d: Sum(rhs),rhsMax =   9.44939654301535E-10  1.57740783302392E-02
 cg2d: Sum(rhs),rhsMax =   9.44996803031728E-10  1.57737529495216E-02
 cg2d: Sum(rhs),rhsMax =   9.45054673406887E-10  1.57734273615485E-02
 cg2d: Sum(rhs),rhsMax =   9.45116346295904E-10  1.57731016755009E-02
 cg2d: Sum(rhs),rhsMax =   9.45183153966411E-10  1.57727759721316E-02
 cg2d: Sum(rhs),rhsMax =   9.45245770545000E-10  1.57724503582021E-02
 cg2d: Sum(rhs),rhsMax =   9.45315700717764E-10  1.57721249101227E-02
 cg2d: Sum(rhs),rhsMax =   9.45374417637979E-10  1.57717997324532E-02
 cg2d: Sum(rhs),rhsMax =   9.45430428389571E-10  1.57714748981977E-02
 cg2d: Sum(rhs),rhsMax =   9.45502301452628E-10  1.57711505050909E-02
 cg2d: Sum(rhs),rhsMax =   9.45555106435236E-10  1.57708266174424E-02
 cg2d: Sum(rhs),rhsMax =   9.45608924496355E-10  1.57705033310028E-02
 cg2d: Sum(rhs),rhsMax =   9.45662811946413E-10  1.57701807042331E-02
 cg2d: Sum(rhs),rhsMax =   9.45712425037826E-10  1.57698588259101E-02
 cg2d: Sum(rhs),rhsMax =   9.45784811579031E-10  1.57695377466339E-02
 cg2d: Sum(rhs),rhsMax =   9.45853395606377E-10  1.57692175451773E-02
 cg2d: Sum(rhs),rhsMax =   9.45916789341084E-10  1.57688982643702E-02
 cg2d: Sum(rhs),rhsMax =   9.45964750975747E-10  1.57685799757133E-02
 cg2d: Sum(rhs),rhsMax =   9.46035333404538E-10  1.57682627136147E-02
 cg2d: Sum(rhs),rhsMax =   9.46095826681592E-10  1.57679465386656E-02
 cg2d: Sum(rhs),rhsMax =   9.46175263139004E-10  1.57676314750395E-02
 cg2d: Sum(rhs),rhsMax =   9.46235936827300E-10  1.57673175733134E-02
 cg2d: Sum(rhs),rhsMax =   9.46308795213291E-10  1.57670047724624E-02
 cg2d: Sum(rhs),rhsMax =   9.46379793975716E-10  1.57666930796534E-02
 cg2d: Sum(rhs),rhsMax =   9.46430003812004E-10  1.57663824947680E-02
 cg2d: Sum(rhs),rhsMax =   9.46491593434295E-10  1.57660730509345E-02
 cg2d: Sum(rhs),rhsMax =   9.46554237768460E-10  1.57657647377752E-02
 cg2d: Sum(rhs),rhsMax =   9.46617464969712E-10  1.57654575751845E-02
 cg2d: Sum(rhs),rhsMax =   9.46676431690108E-10  1.57651515428012E-02
 cg2d: Sum(rhs),rhsMax =   9.46741893215197E-10  1.57648466489025E-02
 cg2d: Sum(rhs),rhsMax =   9.46805481238933E-10  1.57645428604467E-02
 cg2d: Sum(rhs),rhsMax =   9.46861256068132E-10  1.57642401756169E-02
 cg2d: Sum(rhs),rhsMax =   9.46905956422661E-10  1.57639385504964E-02
 cg2d: Sum(rhs),rhsMax =   9.46972056325990E-10  1.57636379714662E-02
 cg2d: Sum(rhs),rhsMax =   9.47053463429270E-10  1.57633383810966E-02
 cg2d: Sum(rhs),rhsMax =   9.47130499029392E-10  1.57630397569837E-02
 cg2d: Sum(rhs),rhsMax =   9.47186620803286E-10  1.57627420333235E-02
 cg2d: Sum(rhs),rhsMax =   9.47234152226528E-10  1.57624451726740E-02
 cg2d: Sum(rhs),rhsMax =   9.47292452813109E-10  1.57621491005208E-02
 cg2d: Sum(rhs),rhsMax =   9.47359607428311E-10  1.57618537684492E-02
 cg2d: Sum(rhs),rhsMax =   9.47415354501935E-10  1.57615590949588E-02
 cg2d: Sum(rhs),rhsMax =   9.47465217393528E-10  1.57612650235487E-02
 cg2d: Sum(rhs),rhsMax =   9.47518577487649E-10  1.57609714609902E-02
 cg2d: Sum(rhs),rhsMax =   9.47567788123216E-10  1.57606783428686E-02
 cg2d: Sum(rhs),rhsMax =   9.47638162385189E-10  1.57603855736266E-02
 cg2d: Sum(rhs),rhsMax =   9.47691980446308E-10  1.57600930802553E-02
 cg2d: Sum(rhs),rhsMax =   9.47756303992797E-10  1.57598007590514E-02
 cg2d: Sum(rhs),rhsMax =   9.47823847186058E-10  1.57595085351108E-02
 cg2d: Sum(rhs),rhsMax =   9.47890266278506E-10  1.57592162998957E-02
 cg2d: Sum(rhs),rhsMax =   9.47950731799985E-10  1.57589239771637E-02
 cg2d: Sum(rhs),rhsMax =   9.48012321422276E-10  1.57586314568538E-02
 cg2d: Sum(rhs),rhsMax =   9.48074396767140E-10  1.57583386618982E-02
 cg2d: Sum(rhs),rhsMax =   9.48135750467038E-10  1.57580454812891E-02
 cg2d: Sum(rhs),rhsMax =   9.48198922157140E-10  1.57577518400532E-02
 cg2d: Sum(rhs),rhsMax =   9.48249367915821E-10  1.57574576295277E-02
 cg2d: Sum(rhs),rhsMax =   9.48310832638022E-10  1.57571627798862E-02
 cg2d: Sum(rhs),rhsMax =   9.48375100673360E-10  1.57568671881756E-02
 cg2d: Sum(rhs),rhsMax =   9.48436842951317E-10  1.57565707889304E-02
 cg2d: Sum(rhs),rhsMax =   9.48499251363089E-10  1.57562734866429E-02
 cg2d: Sum(rhs),rhsMax =   9.48551251434004E-10  1.57559752257488E-02
 cg2d: Sum(rhs),rhsMax =   9.48605707873362E-10  1.57556759200731E-02
 cg2d: Sum(rhs),rhsMax =   9.48661094124503E-10  1.57553755257532E-02
 cg2d: Sum(rhs),rhsMax =   9.48727388316861E-10  1.57550739685945E-02
 cg2d: Sum(rhs),rhsMax =   9.48780998211163E-10  1.57547712184604E-02
 cg2d: Sum(rhs),rhsMax =   9.48851539006590E-10  1.57544672155910E-02
 cg2d: Sum(rhs),rhsMax =   9.48901346387032E-10  1.57541619453573E-02
 cg2d: Sum(rhs),rhsMax =   9.48946088374925E-10  1.57538553647478E-02
 cg2d: Sum(rhs),rhsMax =   9.49020403928635E-10  1.57535474756660E-02
 cg2d: Sum(rhs),rhsMax =   9.49074610567813E-10  1.57532382568924E-02
 cg2d: Sum(rhs),rhsMax =   9.49139322692361E-10  1.57529277272373E-02
 cg2d: Sum(rhs),rhsMax =   9.49200260058625E-10  1.57526158849051E-02
 cg2d: Sum(rhs),rhsMax =   9.49264125638116E-10  1.57523027690433E-02
 cg2d: Sum(rhs),rhsMax =   9.49339343248035E-10  1.57519884003555E-02
 cg2d: Sum(rhs),rhsMax =   9.49404610484095E-10  1.57516728425002E-02
 cg2d: Sum(rhs),rhsMax =   9.49456555043859E-10  1.57513561358358E-02
 cg2d: Sum(rhs),rhsMax =   9.49509734726739E-10  1.57510383664718E-02
 cg2d: Sum(rhs),rhsMax =   9.49579317954807E-10  1.57507195999119E-02
 cg2d: Sum(rhs),rhsMax =   9.49638756519988E-10  1.57503999443824E-02
 cg2d: Sum(rhs),rhsMax =   9.49709116904174E-10  1.57500794873219E-02
 cg2d: Sum(rhs),rhsMax =   9.49763184765473E-10  1.57497583621455E-02
 cg2d: Sum(rhs),rhsMax =   9.49834808028349E-10  1.57494366752323E-02
 cg2d: Sum(rhs),rhsMax =   9.49894482515923E-10  1.57491145827866E-02
 cg2d: Sum(rhs),rhsMax =   9.49965245355955E-10  1.57487922079107E-02
 cg2d: Sum(rhs),rhsMax =   9.50016010303756E-10  1.57484697067684E-02
 cg2d: Sum(rhs),rhsMax =   9.50072506777921E-10  1.57481473152206E-02
 cg2d: Sum(rhs),rhsMax =   9.50138537292311E-10  1.57478251453083E-02
 cg2d: Sum(rhs),rhsMax =   9.50198586480155E-10  1.57475033723838E-02
 cg2d: Sum(rhs),rhsMax =   9.50269890553912E-10  1.57471822228047E-02
 cg2d: Sum(rhs),rhsMax =   9.50325346193992E-10  1.57468618842931E-02
 cg2d: Sum(rhs),rhsMax =   9.50371462082877E-10  1.57465425751926E-02
 cg2d: Sum(rhs),rhsMax =   9.50437853419750E-10  1.57462244914077E-02
 cg2d: Sum(rhs),rhsMax =   9.50495390728001E-10  1.57459078652084E-02
 cg2d: Sum(rhs),rhsMax =   9.50551595768623E-10  1.57455929026603E-02
(PID.TID 0000.0001)      cg2d_init_res =   1.27198217273646E-04
(PID.TID 0000.0001)      cg2d_iters(min,last) =      -1      39
(PID.TID 0000.0001)      cg2d_last_res =   6.36706674993866E-14
(PID.TID 0000.0001) // =======================================================
(PID.TID 0000.0001) // Begin MONITOR dynamic field statistics
(PID.TID 0000.0001) // =======================================================
(PID.TID 0000.0001) %MON time_tsnumber                =                 21600
(PID.TID 0000.0001) %MON time_secondsf                =   5.4000000000000E+05
(PID.TID 0000.0001) %MON dynstat_eta_max              =   4.9809784760841E-03
(PID.TID 0000.0001) %MON dynstat_eta_min              =  -2.4744668488144E-03
(PID.TID 0000.0001) %MON dynstat_eta_mean             =  -1.0022976415631E-13
(PID.TID 0000.0001) %MON dynstat_eta_sd               =   2.5219731539315E-03
(PID.TID 0000.0001) %MON dynstat_eta_del2             =   2.0744848714893E-05
(PID.TID 0000.0001) %MON dynstat_uvel_max             =   4.4931463860402E-02
(PID.TID 0000.0001) %MON dynstat_uvel_min             =  -4.3239332683615E-02
(PID.TID 0000.0001) %MON dynstat_uvel_mean            =   6.3829102976968E-09
(PID.TID 0000.0001) %MON dynstat_uvel_sd              =   6.5309490963543E-03
(PID.TID 0000.0001) %MON dynstat_uvel_del2            =   1.0174723679071E-04
(PID.TID 0000.0001) %MON dynstat_vvel_max             =   2.3123337135394E-02
(PID.TID 0000.0001) %MON dynstat_vvel_min             =  -3.3194924513787E-02
(PID.TID 0000.0001) %MON dynstat_vvel_mean            =  -8.0919745329322E-03
(PID.TID 0000.0001) %MON dynstat_vvel_sd              =   1.1539125183822E-02
(PID.TID 0000.0001) %MON dynstat_vvel_del2            =   9.1169470432072E-05
(PID.TID 0000.0001) %MON dynstat_wvel_max             =   1.3827521992563E-03
(PID.TID 0000.0001) %MON dynstat_wvel_min             =  -1.0963154408990E-03
(PID.TID 0000.0001) %MON dynstat_wvel_mean            =   1.9717258423441E-21
(PID.TID 0000.0001) %MON dynstat_wvel_sd              =   1.2567548334758E-04
(PID.TID 0000.0001) %MON dynstat_wvel_del2            =   6.4118283517055E-06
(PID.TID 0000.0001) %MON dynstat_theta_max            =   2.6931451612903E+00
(PID.TID 0000.0001) %MON dynstat_theta_min            =  -6.4596349694065E-01
(PID.TID 0000.0001) %MON dynstat_theta_mean           =   2.2222941414338E+00
(PID.TID 0000.0001) %MON dynstat_theta_sd             =   5.2336894820559E-01
(PID.TID 0000.0001) %MON dynstat_theta_del2           =   1.6093984192046E-03
(PID.TID 0000.0001) %MON dynstat_salt_max             =   3.4699999999999E+01
(PID.TID 0000.0001) %MON dynstat_salt_min             =   3.3035147459484E+01
(PID.TID 0000.0001) %MON dynstat_salt_mean            =   3.4364066641090E+01
(PID.TID 0000.0001) %MON dynstat_salt_sd              =   3.2240324119401E-01
(PID.TID 0000.0001) %MON dynstat_salt_del2            =   1.9332995385770E-04
(PID.TID 0000.0001) %MON advcfl_uvel_max              =   2.2465731930201E-03
(PID.TID 0000.0001) %MON advcfl_vvel_max              =   1.6597462256894E-03
(PID.TID 0000.0001) %MON advcfl_wvel_max              =   6.6140799323517E-04
(PID.TID 0000.0001) %MON advcfl_W_hf_max              =   1.4073400942974E-03
(PID.TID 0000.0001) %MON pe_b_mean                    =   5.3067128819756E-08
(PID.TID 0000.0001) %MON ke_max                       =   9.3227173103237E-04
(PID.TID 0000.0001) %MON ke_mean                      =   1.1067994497686E-04
(PID.TID 0000.0001) %MON ke_vol                       =   3.2921708585402E+10
(PID.TID 0000.0001) // =======================================================
(PID.TID 0000.0001) // End MONITOR dynamic field statistics
(PID.TID 0000.0001) // =======================================================
(PID.TID 0000.0001) // =======================================================
(PID.TID 0000.0001) // Begin OBCS MONITOR field statistics
(PID.TID 0000.0001) // =======================================================
(PID.TID 0000.0001) %MON obc_E_uVel_max               =   0.0000000000000E+00
(PID.TID 0000.0001) %MON obc_E_uVel_min               =   0.0000000000000E+00
(PID.TID 0000.0001) %MON obc_E_uVel_mean              =   0.0000000000000E+00
(PID.TID 0000.0001) %MON obc_E_uVel_sd                =   0.0000000000000E+00
(PID.TID 0000.0001) %MON obc_E_uVel_Int               =   0.0000000000000E+00
(PID.TID 0000.0001) %MON obc_N_vVel_max               =  -3.6115799844846E-05
(PID.TID 0000.0001) %MON obc_N_vVel_min               =  -3.0000000000000E-02
(PID.TID 0000.0001) %MON obc_N_vVel_mean              =  -1.3225455303334E-02
(PID.TID 0000.0001) %MON obc_N_vVel_sd                =   1.1350864292742E-02
(PID.TID 0000.0001) %MON obc_N_vVel_Int               =  -5.9514548865004E+04
(PID.TID 0000.0001) %MON obc_S_vVel_max               =  -3.6115799844846E-05
(PID.TID 0000.0001) %MON obc_S_vVel_min               =  -3.0000000000000E-02
(PID.TID 0000.0001) %MON obc_S_vVel_mean              =  -1.3225455303334E-02
(PID.TID 0000.0001) %MON obc_S_vVel_sd                =   1.1350864292742E-02
(PID.TID 0000.0001) %MON obc_S_vVel_Int               =  -5.9514548865004E+04
(PID.TID 0000.0001) // =======================================================
(PID.TID 0000.0001) // End OBCS MONITOR field statistics
(PID.TID 0000.0001) // =======================================================
 Computing Diagnostic #    26 "THETA   " (list#  1) Parms "SMR     MR      ", Count=     144
 Computing Diagnostic #    27 "SALT    " (list#  1) Parms "SMR     MR      ", Count=     144
 Computing Diagnostic #    30 "UVEL    " (list#  1) Parms "UUR     MR      ", Count=     144
             Vector  Mate for "UVEL    " :  Diagnostic #     31 "VVEL    " exists
 Computing Diagnostic #    32 "WVEL    " (list#  1) Parms "WM      LR      ", Count=     144
 Computing Diagnostic #    31 "VVEL    " (list#  1) Parms "VVR     MR      ", Count=     144
             Vector  Mate for "VVEL    " :  Diagnostic #     30 "UVEL    " exists
 Computing Diagnostic #   197 "BRGfwFlx" (list#  2) Parms "SM      MR      ", Count=     144
 Computing Diagnostic #   198 "BRGhtFlx" (list#  2) Parms "SM      MR      ", Count=     144
 Computing Diagnostic #   199 "BRGmltRt" (list#  2) Parms "SM      MR      ", Count=     144
 Computing Diagnostic #   201 "BRG_TauX" (list#  2) Parms "UU      MR      ", Count=    1728
 Computing Diagnostic #   202 "BRG_TauY" (list#  2) Parms "VV      MR      ", Count=    1728
 Computing Diagnostic #   203 "BRGhFacC" (list#  2) Parms "SM      MR      ", Count=    1728
 cg2d: Sum(rhs),rhsMax =   9.50614018058182E-10  1.57452798462027E-02
 cg2d: Sum(rhs),rhsMax =   9.50674469701873E-10  1.57449689056085E-02
 cg2d: Sum(rhs),rhsMax =   9.50727302440058E-10  1.57446603291477E-02
 cg2d: Sum(rhs),rhsMax =   9.50781745001628E-10  1.57443543268590E-02
 cg2d: Sum(rhs),rhsMax =   9.50847525715837E-10  1.57440511439657E-02
 cg2d: Sum(rhs),rhsMax =   9.50914291752980E-10  1.57437509906270E-02
 cg2d: Sum(rhs),rhsMax =   9.50968567781096E-10  1.57434541062382E-02
 cg2d: Sum(rhs),rhsMax =   9.51047463004784E-10  1.57431606919084E-02
 cg2d: Sum(rhs),rhsMax =   9.51117726244455E-10  1.57428709763163E-02
 cg2d: Sum(rhs),rhsMax =   9.51176720720426E-10  1.57425851482731E-02
 cg2d: Sum(rhs),rhsMax =   9.51233009027774E-10  1.57423034219503E-02
 cg2d: Sum(rhs),rhsMax =   9.51301037943608E-10  1.57420259717198E-02
 cg2d: Sum(rhs),rhsMax =   9.51366055379488E-10  1.57417529929159E-02
 cg2d: Sum(rhs),rhsMax =   9.51424314332705E-10  1.57414846395655E-02
 cg2d: Sum(rhs),rhsMax =   9.51496395562579E-10  1.57412210842441E-02
 cg2d: Sum(rhs),rhsMax =   9.51549339323066E-10  1.57409624566288E-02
 cg2d: Sum(rhs),rhsMax =   9.51612219579623E-10  1.57407089039643E-02
 cg2d: Sum(rhs),rhsMax =   9.51679526850491E-10  1.57404605236835E-02
 cg2d: Sum(rhs),rhsMax =   9.51746945143661E-10  1.57402174342663E-02
 cg2d: Sum(rhs),rhsMax =   9.51809075999677E-10  1.57399797021491E-02
 cg2d: Sum(rhs),rhsMax =   9.51865364307025E-10  1.57397474116376E-02
 cg2d: Sum(rhs),rhsMax =   9.51915185565255E-10  1.57395205934866E-02
 cg2d: Sum(rhs),rhsMax =   9.51974915563980E-10  1.57392992944739E-02
 cg2d: Sum(rhs),rhsMax =   9.52027040534986E-10  1.57390835114169E-02
 cg2d: Sum(rhs),rhsMax =   9.52081691263373E-10  1.57388732509975E-02
 cg2d: Sum(rhs),rhsMax =   9.52144071919570E-10  1.57386684688965E-02
 cg2d: Sum(rhs),rhsMax =   9.52194004200102E-10  1.57384691333155E-02
 cg2d: Sum(rhs),rhsMax =   9.52249168406638E-10  1.57382751593235E-02
 cg2d: Sum(rhs),rhsMax =   9.52307482871007E-10  1.57380864763436E-02
 cg2d: Sum(rhs),rhsMax =   9.52381756791354E-10  1.57379029676662E-02
 cg2d: Sum(rhs),rhsMax =   9.52418158228774E-10  1.57377245128410E-02
 cg2d: Sum(rhs),rhsMax =   9.52470005644024E-10  1.57375509449721E-02
 cg2d: Sum(rhs),rhsMax =   9.52522352659635E-10  1.57373821183643E-02
 cg2d: Sum(rhs),rhsMax =   9.52577697277412E-10  1.57372178295637E-02
 cg2d: Sum(rhs),rhsMax =   9.52627615680157E-10  1.57370578906192E-02
 cg2d: Sum(rhs),rhsMax =   9.52674425458433E-10  1.57369020625858E-02
 cg2d: Sum(rhs),rhsMax =   9.52732198689077E-10  1.57367501216818E-02
 cg2d: Sum(rhs),rhsMax =   9.52787820862611E-10  1.57366017958113E-02
 cg2d: Sum(rhs),rhsMax =   9.52820863875381E-10  1.57364568208910E-02
 cg2d: Sum(rhs),rhsMax =   9.52871434534153E-10  1.57363148952011E-02
 cg2d: Sum(rhs),rhsMax =   9.52921255792383E-10  1.57361757142859E-02
 cg2d: Sum(rhs),rhsMax =   9.52971507262035E-10  1.57360389428474E-02
 cg2d: Sum(rhs),rhsMax =   9.53034151596199E-10  1.57359042660939E-02
 cg2d: Sum(rhs),rhsMax =   9.53078879706304E-10  1.57357713286329E-02
 cg2d: Sum(rhs),rhsMax =   9.53122497593384E-10  1.57356397946848E-02
 cg2d: Sum(rhs),rhsMax =   9.53170098405565E-10  1.57355092966158E-02
 cg2d: Sum(rhs),rhsMax =   9.53222084598693E-10  1.57353794895432E-02
 cg2d: Sum(rhs),rhsMax =   9.53266479641890E-10  1.57352499962754E-02
 cg2d: Sum(rhs),rhsMax =   9.53322157326575E-10  1.57351204709296E-02
 cg2d: Sum(rhs),rhsMax =   9.53373241463495E-10  1.57349905338591E-02
 cg2d: Sum(rhs),rhsMax =   9.53421327998250E-10  1.57348598355056E-02
 cg2d: Sum(rhs),rhsMax =   9.53460393970929E-10  1.57347280039628E-02
 cg2d: Sum(rhs),rhsMax =   9.53507606205051E-10  1.57345947042740E-02
 cg2d: Sum(rhs),rhsMax =   9.53564005534702E-10  1.57344595760838E-02
 cg2d: Sum(rhs),rhsMax =   9.53605708287064E-10  1.57343222978565E-02
 cg2d: Sum(rhs),rhsMax =   9.53659054503397E-10  1.57341825257240E-02
 cg2d: Sum(rhs),rhsMax =   9.53697870675896E-10  1.57340399598110E-02
 cg2d: Sum(rhs),rhsMax =   9.53750550758414E-10  1.57338942821215E-02
 cg2d: Sum(rhs),rhsMax =   9.53785939117324E-10  1.57337452188319E-02
 cg2d: Sum(rhs),rhsMax =   9.53847084650405E-10  1.57335924800818E-02
 cg2d: Sum(rhs),rhsMax =   9.53898987576807E-10  1.57334358268657E-02
 cg2d: Sum(rhs),rhsMax =   9.53956816318602E-10  1.57332750053007E-02
 cg2d: Sum(rhs),rhsMax =   9.54016851628658E-10  1.57331098105095E-02
 cg2d: Sum(rhs),rhsMax =   9.54068365977001E-10  1.57329400274331E-02
 cg2d: Sum(rhs),rhsMax =   9.54117257423448E-10  1.57327654938215E-02
 cg2d: Sum(rhs),rhsMax =   9.54167828082220E-10  1.57325860372814E-02
 cg2d: Sum(rhs),rhsMax =   9.54227641347671E-10  1.57324015367451E-02
 cg2d: Sum(rhs),rhsMax =   9.54277268316872E-10  1.57322118668911E-02
 cg2d: Sum(rhs),rhsMax =   9.54329074098759E-10  1.57320169539152E-02
 cg2d: Sum(rhs),rhsMax =   9.54388498786152E-10  1.57318167177642E-02
 cg2d: Sum(rhs),rhsMax =   9.54451781498555E-10  1.57316111317827E-02
 cg2d: Sum(rhs),rhsMax =   9.54500173344641E-10  1.57314001621370E-02
 cg2d: Sum(rhs),rhsMax =   9.54558446175646E-10  1.57311838312125E-02
 cg2d: Sum(rhs),rhsMax =   9.54614109982543E-10  1.57309621541020E-02
 cg2d: Sum(rhs),rhsMax =   9.54680653975082E-10  1.57307351994579E-02
 cg2d: Sum(rhs),rhsMax =   9.54743478720488E-10  1.57305030261510E-02
 cg2d: Sum(rhs),rhsMax =   9.54808551667519E-10  1.57302657495340E-02
 cg2d: Sum(rhs),rhsMax =   9.54881063108814E-10  1.57300234719368E-02
 cg2d: Sum(rhs),rhsMax =   9.54929801899596E-10  1.57297763512821E-02
 cg2d: Sum(rhs),rhsMax =   9.54992585011638E-10  1.57295245322406E-02
 cg2d: Sum(rhs),rhsMax =   9.55048762296684E-10  1.57292682103606E-02
 cg2d: Sum(rhs),rhsMax =   9.55117443468545E-10  1.57290075671532E-02
 cg2d: Sum(rhs),rhsMax =   9.55171552963208E-10  1.57287428326302E-02
 cg2d: Sum(rhs),rhsMax =   9.55243120714933E-10  1.57284742231435E-02
 cg2d: Sum(rhs),rhsMax =   9.55287779436098E-10  1.57282019955359E-02
 cg2d: Sum(rhs),rhsMax =   9.55339057862048E-10  1.57279263947820E-02
 cg2d: Sum(rhs),rhsMax =   9.55380011213869E-10  1.57276477025736E-02
 cg2d: Sum(rhs),rhsMax =   9.55442100436521E-10  1.57273661816646E-02
 cg2d: Sum(rhs),rhsMax =   9.55508547284545E-10  1.57270821352874E-02
 cg2d: Sum(rhs),rhsMax =   9.55579074202184E-10  1.57267958400669E-02
 cg2d: Sum(rhs),rhsMax =   9.55635362509533E-10  1.57265076096082E-02
 cg2d: Sum(rhs),rhsMax =   9.55691331627762E-10  1.57262177318920E-02
 cg2d: Sum(rhs),rhsMax =   9.55754128617592E-10  1.57259265236131E-02
 cg2d: Sum(rhs),rhsMax =   9.55811013669816E-10  1.57256342729284E-02
 cg2d: Sum(rhs),rhsMax =   9.55863138640822E-10  1.57253412982146E-02
 cg2d: Sum(rhs),rhsMax =   9.55925019696657E-10  1.57250478830237E-02
 cg2d: Sum(rhs),rhsMax =   9.55996365403777E-10  1.57247543341990E-02
 cg2d: Sum(rhs),rhsMax =   9.56070417279520E-10  1.57244609254794E-02
 cg2d: Sum(rhs),rhsMax =   9.56121196105109E-10  1.57241679522240E-02
 cg2d: Sum(rhs),rhsMax =   9.56184562084239E-10  1.57238756679229E-02
 cg2d: Sum(rhs),rhsMax =   9.56245541083867E-10  1.57235843485050E-02
 cg2d: Sum(rhs),rhsMax =   9.56294515797040E-10  1.57232942249160E-02
 cg2d: Sum(rhs),rhsMax =   9.56366000282038E-10  1.57230055464475E-02
 cg2d: Sum(rhs),rhsMax =   9.56425716402975E-10  1.57227185181886E-02
 cg2d: Sum(rhs),rhsMax =   9.56490761594431E-10  1.57224333556747E-02
 cg2d: Sum(rhs),rhsMax =   9.56554432884893E-10  1.57221502349438E-02
 cg2d: Sum(rhs),rhsMax =   9.56607890123529E-10  1.57218693387512E-02
 cg2d: Sum(rhs),rhsMax =   9.56660223261352E-10  1.57215908015596E-02
 cg2d: Sum(rhs),rhsMax =   9.56714915623103E-10  1.57213147706871E-02
 cg2d: Sum(rhs),rhsMax =   9.56773868465710E-10  1.57210413463492E-02
 cg2d: Sum(rhs),rhsMax =   9.56844298238835E-10  1.57207706335005E-02
 cg2d: Sum(rhs),rhsMax =   9.56900836346364E-10  1.57205026921105E-02
 cg2d: Sum(rhs),rhsMax =   9.56955972797324E-10  1.57202375881089E-02
 cg2d: Sum(rhs),rhsMax =   9.57008389201874E-10  1.57199753364946E-02
 cg2d: Sum(rhs),rhsMax =   9.57066675910667E-10  1.57197159644096E-02
 cg2d: Sum(rhs),rhsMax =   9.57132803569571E-10  1.57194594478076E-02
 cg2d: Sum(rhs),rhsMax =   9.57198598161568E-10  1.57192057700043E-02
 cg2d: Sum(rhs),rhsMax =   9.57249349231581E-10  1.57189548652554E-02
 cg2d: Sum(rhs),rhsMax =   9.57304652215996E-10  1.57187066833129E-02
 cg2d: Sum(rhs),rhsMax =   9.57363757714269E-10  1.57184611193124E-02
 cg2d: Sum(rhs),rhsMax =   9.57422946479269E-10  1.57182180832590E-02
 cg2d: Sum(rhs),rhsMax =   9.57480136842825E-10  1.57179774362083E-02
 cg2d: Sum(rhs),rhsMax =   9.57539644796945E-10  1.57177390530247E-02
 cg2d: Sum(rhs),rhsMax =   9.57602469542351E-10  1.57175027684592E-02
 cg2d: Sum(rhs),rhsMax =   9.57656912103921E-10  1.57172684255556E-02
 cg2d: Sum(rhs),rhsMax =   9.57712312232850E-10  1.57170358303081E-02
 cg2d: Sum(rhs),rhsMax =   9.57767309905933E-10  1.57168048079188E-02
 cg2d: Sum(rhs),rhsMax =   9.57822807179376E-10  1.57165751386322E-02
 cg2d: Sum(rhs),rhsMax =   9.57882148600042E-10  1.57163466267648E-02
 cg2d: Sum(rhs),rhsMax =   9.57939907952898E-10  1.57161190412175E-02
 cg2d: Sum(rhs),rhsMax =   9.57980375582146E-10  1.57158921691932E-02
 cg2d: Sum(rhs),rhsMax =   9.58041104781593E-10  1.57156657706621E-02
 cg2d: Sum(rhs),rhsMax =   9.58095325298558E-10  1.57154396258664E-02
 cg2d: Sum(rhs),rhsMax =   9.58152321373085E-10  1.57152134889777E-02
 cg2d: Sum(rhs),rhsMax =   9.58204321444001E-10  1.57149871392970E-02
 cg2d: Sum(rhs),rhsMax =   9.58262441619340E-10  1.57147603320346E-02
 cg2d: Sum(rhs),rhsMax =   9.58322934896394E-10  1.57145328548317E-02
 cg2d: Sum(rhs),rhsMax =   9.58378237880808E-10  1.57143044691130E-02
 cg2d: Sum(rhs),rhsMax =   9.58418386320936E-10  1.57140749689452E-02
 cg2d: Sum(rhs),rhsMax =   9.58477602841512E-10  1.57138441336553E-02
 cg2d: Sum(rhs),rhsMax =   9.58542842321997E-10  1.57136117754311E-02
 cg2d: Sum(rhs),rhsMax =   9.58604043366229E-10  1.57133776869554E-02
 cg2d: Sum(rhs),rhsMax =   9.58663370909107E-10  1.57131417049256E-02
 cg2d: Sum(rhs),rhsMax =   9.58722448651805E-10  1.57129036458720E-02
 Computing Diagnostic #    26 "THETA   " (list#  1) Parms "SMR     MR      ", Count=     144
 Computing Diagnostic #    27 "SALT    " (list#  1) Parms "SMR     MR      ", Count=     144
 Computing Diagnostic #    30 "UVEL    " (list#  1) Parms "UUR     MR      ", Count=     144
             Vector  Mate for "UVEL    " :  Diagnostic #     31 "VVEL    " exists
 Computing Diagnostic #    32 "WVEL    " (list#  1) Parms "WM      LR      ", Count=     144
 Computing Diagnostic #    31 "VVEL    " (list#  1) Parms "VVR     MR      ", Count=     144
             Vector  Mate for "VVEL    " :  Diagnostic #     30 "UVEL    " exists
 Computing Diagnostic #   197 "BRGfwFlx" (list#  2) Parms "SM      MR      ", Count=     144
 Computing Diagnostic #   198 "BRGhtFlx" (list#  2) Parms "SM      MR      ", Count=     144
 Computing Diagnostic #   199 "BRGmltRt" (list#  2) Parms "SM      MR      ", Count=     144
 Computing Diagnostic #   201 "BRG_TauX" (list#  2) Parms "UU      MR      ", Count=    1728
 Computing Diagnostic #   202 "BRG_TauY" (list#  2) Parms "VV      MR      ", Count=    1728
 Computing Diagnostic #   203 "BRGhFacC" (list#  2) Parms "SM      MR      ", Count=    1728
 cg2d: Sum(rhs),rhsMax =   9.58774781789629E-10  1.57126633714700E-02
 cg2d: Sum(rhs),rhsMax =   9.58838841658149E-10  1.57124207272523E-02
 cg2d: Sum(rhs),rhsMax =   9.58887261259811E-10  1.57121756037111E-02
 cg2d: Sum(rhs),rhsMax =   9.58950988061424E-10  1.57119278784081E-02
 cg2d: Sum(rhs),rhsMax =   9.59022819491118E-10  1.57116774742666E-02
 cg2d: Sum(rhs),rhsMax =   9.59079607398827E-10  1.57114243045175E-02
 cg2d: Sum(rhs),rhsMax =   9.59129026201211E-10  1.57111683247695E-02
 cg2d: Sum(rhs),rhsMax =   9.59188131699484E-10  1.57109094857526E-02
 cg2d: Sum(rhs),rhsMax =   9.59250817667012E-10  1.57106477802411E-02
 cg2d: Sum(rhs),rhsMax =   9.59309021109078E-10  1.57103831950194E-02
 cg2d: Sum(rhs),rhsMax =   9.59374732434348E-10  1.57101157603055E-02
 cg2d: Sum(rhs),rhsMax =   9.59434434677497E-10  1.57098454994620E-02
 cg2d: Sum(rhs),rhsMax =   9.59498661079472E-10  1.57095724808163E-02
 cg2d: Sum(rhs),rhsMax =   9.59555754298513E-10  1.57092967624329E-02
 cg2d: Sum(rhs),rhsMax =   9.59608267847578E-10  1.57090184479662E-02
 cg2d: Sum(rhs),rhsMax =   9.59665832911405E-10  1.57087376302216E-02
 cg2d: Sum(rhs),rhsMax =   9.59720011795007E-10  1.57084544461066E-02
 cg2d: Sum(rhs),rhsMax =   9.59778798104161E-10  1.57081690178493E-02
 cg2d: Sum(rhs),rhsMax =   9.59846063741665E-10  1.57078815155691E-02
 cg2d: Sum(rhs),rhsMax =   9.59893622920482E-10  1.57075920892130E-02
 cg2d: Sum(rhs),rhsMax =   9.59966536817625E-10  1.57073009315058E-02
 cg2d: Sum(rhs),rhsMax =   9.60035703712059E-10  1.57070082208641E-02
 cg2d: Sum(rhs),rhsMax =   9.60088369916789E-10  1.57067141697200E-02
 cg2d: Sum(rhs),rhsMax =   9.60155052687206E-10  1.57064189748806E-02
 cg2d: Sum(rhs),rhsMax =   9.60207482969544E-10  1.57061228676007E-02
 cg2d: Sum(rhs),rhsMax =   9.60279342154813E-10  1.57058260574873E-02
 cg2d: Sum(rhs),rhsMax =   9.60338697453267E-10  1.57055288300208E-02
 cg2d: Sum(rhs),rhsMax =   9.60398774396687E-10  1.57052314323558E-02
 cg2d: Sum(rhs),rhsMax =   9.60460405652341E-10  1.57049341091849E-02
 cg2d: Sum(rhs),rhsMax =   9.60520718518154E-10  1.57046370832815E-02
 cg2d: Sum(rhs),rhsMax =   9.60582322018233E-10  1.57043405994901E-02
 cg2d: Sum(rhs),rhsMax =   9.60635251900932E-10  1.57040448743186E-02
 cg2d: Sum(rhs),rhsMax =   9.60705667796269E-10  1.57037501497367E-02
 cg2d: Sum(rhs),rhsMax =   9.60761276092015E-10  1.57034566330628E-02
 cg2d: Sum(rhs),rhsMax =   9.60832413632318E-10  1.57031645517263E-02
 cg2d: Sum(rhs),rhsMax =   9.60899457225217E-10  1.57028740979388E-02
 cg2d: Sum(rhs),rhsMax =   9.60961310525477E-10  1.57025854825986E-02
 cg2d: Sum(rhs),rhsMax =   9.61023982615217E-10  1.57022988702019E-02
 cg2d: Sum(rhs),rhsMax =   9.61073845506810E-10  1.57020144573864E-02
 cg2d: Sum(rhs),rhsMax =   9.61136822907882E-10  1.57017324003001E-02
 cg2d: Sum(rhs),rhsMax =   9.61197690885207E-10  1.57014528595308E-02
 cg2d: Sum(rhs),rhsMax =   9.61252979991833E-10  1.57011759495365E-02
 cg2d: Sum(rhs),rhsMax =   9.61309962188572E-10  1.57009018047866E-02
 cg2d: Sum(rhs),rhsMax =   9.61365514973167E-10  1.57006305152292E-02
 cg2d: Sum(rhs),rhsMax =   9.61431753654374E-10  1.57003621783690E-02
 cg2d: Sum(rhs),rhsMax =   9.61490331796711E-10  1.57000968486810E-02
 cg2d: Sum(rhs),rhsMax =   9.61547022559905E-10  1.56998345892727E-02
 cg2d: Sum(rhs),rhsMax =   9.61605559068879E-10  1.56995754186424E-02
 cg2d: Sum(rhs),rhsMax =   9.61663360055098E-10  1.56993193647689E-02
 cg2d: Sum(rhs),rhsMax =   9.61723561898609E-10  1.56990664122795E-02
 cg2d: Sum(rhs),rhsMax =   9.61775256658193E-10  1.56988165600635E-02
 cg2d: Sum(rhs),rhsMax =   9.61839205504411E-10  1.56985697501579E-02
 cg2d: Sum(rhs),rhsMax =   9.61893176221196E-10  1.56983259480509E-02
 cg2d: Sum(rhs),rhsMax =   9.61951795996896E-10  1.56980850560018E-02
 cg2d: Sum(rhs),rhsMax =   9.62003796067812E-10  1.56978469919385E-02
 cg2d: Sum(rhs),rhsMax =   9.62057239428660E-10  1.56976116320825E-02
 cg2d: Sum(rhs),rhsMax =   9.62114499181155E-10  1.56973788665641E-02
 cg2d: Sum(rhs),rhsMax =   9.62168025808730E-10  1.56971485379075E-02
 cg2d: Sum(rhs),rhsMax =   9.62226631706642E-10  1.56969205023754E-02
 cg2d: Sum(rhs),rhsMax =   9.62267265869343E-10  1.56966945751426E-02
 cg2d: Sum(rhs),rhsMax =   9.62325177877865E-10  1.56964705858937E-02
 cg2d: Sum(rhs),rhsMax =   9.62401075499386E-10  1.56962483270402E-02
 cg2d: Sum(rhs),rhsMax =   9.62453630681814E-10  1.56960276041233E-02
 cg2d: Sum(rhs),rhsMax =   9.62522242464736E-10  1.56958081906612E-02
 cg2d: Sum(rhs),rhsMax =   9.62584081887208E-10  1.56955898749076E-02
 cg2d: Sum(rhs),rhsMax =   9.62640189783315E-10  1.56953724146327E-02
 cg2d: Sum(rhs),rhsMax =   9.62699003848044E-10  1.56951555848584E-02
 cg2d: Sum(rhs),rhsMax =   9.62764895584556E-10  1.56949391297820E-02
 cg2d: Sum(rhs),rhsMax =   9.62815993599264E-10  1.56947228204108E-02
 cg2d: Sum(rhs),rhsMax =   9.62881926969139E-10  1.56945063980065E-02
 cg2d: Sum(rhs),rhsMax =   9.62939880611025E-10  1.56942896277856E-02
 cg2d: Sum(rhs),rhsMax =   9.62996557496432E-10  1.56940722562237E-02
 cg2d: Sum(rhs),rhsMax =   9.63044019530734E-10  1.56938540524192E-02
 cg2d: Sum(rhs),rhsMax =   9.63081892013662E-10  1.56936347710667E-02
 cg2d: Sum(rhs),rhsMax =   9.63147048227420E-10  1.56934141867924E-02
 cg2d: Sum(rhs),rhsMax =   9.63216215121854E-10  1.56931920724293E-02
 cg2d: Sum(rhs),rhsMax =   9.63278457000172E-10  1.56929682140338E-02
 cg2d: Sum(rhs),rhsMax =   9.63331261982781E-10  1.56927424010264E-02
 cg2d: Sum(rhs),rhsMax =   9.63403190556988E-10  1.56925144444516E-02
 cg2d: Sum(rhs),rhsMax =   9.63459256819732E-10  1.56922841522514E-02
 cg2d: Sum(rhs),rhsMax =   9.63513505092273E-10  1.56920513576162E-02
 cg2d: Sum(rhs),rhsMax =   9.63563867584227E-10  1.56918159004138E-02
 cg2d: Sum(rhs),rhsMax =   9.63621571425932E-10  1.56915776363070E-02
 cg2d: Sum(rhs),rhsMax =   9.63687851740502E-10  1.56913364380064E-02
 cg2d: Sum(rhs),rhsMax =   9.63737839532186E-10  1.56910921916713E-02
 cg2d: Sum(rhs),rhsMax =   9.63797472386396E-10  1.56908448006488E-02
 cg2d: Sum(rhs),rhsMax =   9.63854468460923E-10  1.56905941839192E-02
 cg2d: Sum(rhs),rhsMax =   9.63911339635359E-10  1.56903402804079E-02
 cg2d: Sum(rhs),rhsMax =   9.63973789680495E-10  1.56900830435795E-02
 cg2d: Sum(rhs),rhsMax =   9.64021182325858E-10  1.56898224456058E-02
 cg2d: Sum(rhs),rhsMax =   9.64084687082867E-10  1.56895584773185E-02
 cg2d: Sum(rhs),rhsMax =   9.64144541981682E-10  1.56892911448914E-02
 cg2d: Sum(rhs),rhsMax =   9.64218954679907E-10  1.56890204747622E-02
 cg2d: Sum(rhs),rhsMax =   9.64266000380576E-10  1.56887465076269E-02
 cg2d: Sum(rhs),rhsMax =   9.64326909991264E-10  1.56884693034026E-02
 cg2d: Sum(rhs),rhsMax =   9.64392607438747E-10  1.56881889379994E-02
 cg2d: Sum(rhs),rhsMax =   9.64443858109121E-10  1.56879055034529E-02
 cg2d: Sum(rhs),rhsMax =   9.64513940937550E-10  1.56876191047980E-02
 cg2d: Sum(rhs),rhsMax =   9.64579568996093E-10  1.56873298653733E-02
 cg2d: Sum(rhs),rhsMax =   9.64633567468454E-10  1.56870379189642E-02
 cg2d: Sum(rhs),rhsMax =   9.64684873649979E-10  1.56867434161667E-02
 cg2d: Sum(rhs),rhsMax =   9.64740051734303E-10  1.56864465156110E-02
 cg2d: Sum(rhs),rhsMax =   9.64789914625896E-10  1.56861473886425E-02
 cg2d: Sum(rhs),rhsMax =   9.64849700135773E-10  1.56858462183912E-02
 cg2d: Sum(rhs),rhsMax =   9.64916480050704E-10  1.56855431940834E-02
 cg2d: Sum(rhs),rhsMax =   9.64971089145727E-10  1.56852385148046E-02
 cg2d: Sum(rhs),rhsMax =   9.65029778310367E-10  1.56849323854312E-02
 cg2d: Sum(rhs),rhsMax =   9.65093269189587E-10  1.56846250164284E-02
 cg2d: Sum(rhs),rhsMax =   9.65155080856483E-10  1.56843166208388E-02
 cg2d: Sum(rhs),rhsMax =   9.65231630734031E-10  1.56840074182082E-02
 cg2d: Sum(rhs),rhsMax =   9.65286822696143E-10  1.56836976270492E-02
 cg2d: Sum(rhs),rhsMax =   9.65353075255138E-10  1.56833874677847E-02
 cg2d: Sum(rhs),rhsMax =   9.65419424958647E-10  1.56830771616280E-02
 cg2d: Sum(rhs),rhsMax =   9.65479626802157E-10  1.56827669245796E-02
 cg2d: Sum(rhs),rhsMax =   9.65545712827698E-10  1.56824569711637E-02
 cg2d: Sum(rhs),rhsMax =   9.65604013414278E-10  1.56821475127182E-02
 cg2d: Sum(rhs),rhsMax =   9.65664631591423E-10  1.56818387520503E-02
 cg2d: Sum(rhs),rhsMax =   9.65729621271727E-10  1.56815308899186E-02
 cg2d: Sum(rhs),rhsMax =   9.65789753726298E-10  1.56812240609517E-02
 cg2d: Sum(rhs),rhsMax =   9.65848206968545E-10  1.56809184218497E-02
 cg2d: Sum(rhs),rhsMax =   9.65898486193772E-10  1.56806141487048E-02
 cg2d: Sum(rhs),rhsMax =   9.65963933841074E-10  1.56803114055546E-02
 cg2d: Sum(rhs),rhsMax =   9.66025329174336E-10  1.56800103488348E-02
 cg2d: Sum(rhs),rhsMax =   9.66085378362180E-10  1.56797111219531E-02
 cg2d: Sum(rhs),rhsMax =   9.66157764903386E-10  1.56794138575943E-02
 cg2d: Sum(rhs),rhsMax =   9.66228180798723E-10  1.56791186771687E-02
 cg2d: Sum(rhs),rhsMax =   9.66285079728735E-10  1.56788256877375E-02
 cg2d: Sum(rhs),rhsMax =   9.66353844167323E-10  1.56785349835952E-02
 cg2d: Sum(rhs),rhsMax =   9.66408397751195E-10  1.56782466481923E-02
 cg2d: Sum(rhs),rhsMax =   9.66469640428791E-10  1.56779607487224E-02
 cg2d: Sum(rhs),rhsMax =   9.66517227363184E-10  1.56776773419308E-02
 cg2d: Sum(rhs),rhsMax =   9.66587948569853E-10  1.56773964681753E-02
 cg2d: Sum(rhs),rhsMax =   9.66635591015397E-10  1.56771181573531E-02
 cg2d: Sum(rhs),rhsMax =   9.66689145398547E-10  1.56768424221319E-02
 cg2d: Sum(rhs),rhsMax =   9.66755731024449E-10  1.56765692643750E-02
 cg2d: Sum(rhs),rhsMax =   9.66806301683221E-10  1.56762986932276E-02
 cg2d: Sum(rhs),rhsMax =   9.66871999130703E-10  1.56760306508136E-02
 cg2d: Sum(rhs),rhsMax =   9.66926330669970E-10  1.56757651182480E-02
 cg2d: Sum(rhs),rhsMax =   9.66980565064723E-10  1.56755020473882E-02
 cg2d: Sum(rhs),rhsMax =   9.67055435729947E-10  1.56752413677507E-02
 cg2d: Sum(rhs),rhsMax =   9.67122645856300E-10  1.56749830061091E-02
 cg2d: Sum(rhs),rhsMax =   9.67178712119043E-10  1.56747268767944E-02
 cg2d: Sum(rhs),rhsMax =   9.67243771188286E-10  1.56744728904385E-02
 cg2d: Sum(rhs),rhsMax =   9.67311952759786E-10  1.56742209475413E-02
 Computing Diagnostic #    26 "THETA   " (list#  1) Parms "SMR     MR      ", Count=     144
 Computing Diagnostic #    27 "SALT    " (list#  1) Parms "SMR     MR      ", Count=     144
 Computing Diagnostic #    30 "UVEL    " (list#  1) Parms "UUR     MR      ", Count=     144
             Vector  Mate for "UVEL    " :  Diagnostic #     31 "VVEL    " exists
 Computing Diagnostic #    32 "WVEL    " (list#  1) Parms "WM      LR      ", Count=     144
 Computing Diagnostic #    31 "VVEL    " (list#  1) Parms "VVR     MR      ", Count=     144
             Vector  Mate for "VVEL    " :  Diagnostic #     30 "UVEL    " exists
 Computing Diagnostic #   197 "BRGfwFlx" (list#  2) Parms "SM      MR      ", Count=     144
 Computing Diagnostic #   198 "BRGhtFlx" (list#  2) Parms "SM      MR      ", Count=     144
 Computing Diagnostic #   199 "BRGmltRt" (list#  2) Parms "SM      MR      ", Count=     144
 Computing Diagnostic #   201 "BRG_TauX" (list#  2) Parms "UU      MR      ", Count=    1728
 Computing Diagnostic #   202 "BRG_TauY" (list#  2) Parms "VV      MR      ", Count=    1728
 Computing Diagnostic #   203 "BRGhFacC" (list#  2) Parms "SM      MR      ", Count=    1728
 cg2d: Sum(rhs),rhsMax =   9.67375457516795E-10  1.56739709411582E-02
 cg2d: Sum(rhs),rhsMax =   9.67428567810735E-10  1.56737227596461E-02
 cg2d: Sum(rhs),rhsMax =   9.67477167823638E-10  1.56734762828632E-02
 cg2d: Sum(rhs),rhsMax =   9.67531638140784E-10  1.56732313889730E-02
 cg2d: Sum(rhs),rhsMax =   9.67596627821088E-10  1.56729879517451E-02
 cg2d: Sum(rhs),rhsMax =   9.67664087747622E-10  1.56727458412397E-02
 cg2d: Sum(rhs),rhsMax =   9.67727203926572E-10  1.56725049267621E-02
 cg2d: Sum(rhs),rhsMax =   9.67780910965388E-10  1.56722650784440E-02
 cg2d: Sum(rhs),rhsMax =   9.67849689281763E-10  1.56720261650063E-02
 cg2d: Sum(rhs),rhsMax =   9.67931124140620E-10  1.56717880547865E-02
 cg2d: Sum(rhs),rhsMax =   9.67982749511265E-10  1.56715506232053E-02
 cg2d: Sum(rhs),rhsMax =   9.68043672999741E-10  1.56713137422842E-02
 cg2d: Sum(rhs),rhsMax =   9.68094701625510E-10  1.56710772912059E-02
 cg2d: Sum(rhs),rhsMax =   9.68144897584011E-10  1.56708411521389E-02
 cg2d: Sum(rhs),rhsMax =   9.68206126383819E-10  1.56706052119404E-02
 cg2d: Sum(rhs),rhsMax =   9.68267618861596E-10  1.56703693635336E-02
 cg2d: Sum(rhs),rhsMax =   9.68324143091337E-10  1.56701335021322E-02
 cg2d: Sum(rhs),rhsMax =   9.68379293420085E-10  1.56698975345117E-02
 cg2d: Sum(rhs),rhsMax =   9.68444033300209E-10  1.56696613726257E-02
 cg2d: Sum(rhs),rhsMax =   9.68506802534463E-10  1.56694249311342E-02
 cg2d: Sum(rhs),rhsMax =   9.68567406833820E-10  1.56691881410963E-02
 cg2d: Sum(rhs),rhsMax =   9.68633701026178E-10  1.56689509321071E-02
 cg2d: Sum(rhs),rhsMax =   9.68686339475333E-10  1.56687132483319E-02
 cg2d: Sum(rhs),rhsMax =   9.68755312080738E-10  1.56684750387132E-02
 cg2d: Sum(rhs),rhsMax =   9.68812433055355E-10  1.56682362610272E-02
 cg2d: Sum(rhs),rhsMax =   9.68865029871147E-10  1.56679968836165E-02
 cg2d: Sum(rhs),rhsMax =   9.68914184995562E-10  1.56677568796504E-02
 cg2d: Sum(rhs),rhsMax =   9.68976690551848E-10  1.56675162309797E-02
 cg2d: Sum(rhs),rhsMax =   9.69035365838700E-10  1.56672747305205E-02
 cg2d: Sum(rhs),rhsMax =   9.69095789726815E-10  1.56670324363378E-02
 cg2d: Sum(rhs),rhsMax =   9.69142779916332E-10  1.56667890797453E-02
 cg2d: Sum(rhs),rhsMax =   9.69183164278853E-10  1.56665445801004E-02
 cg2d: Sum(rhs),rhsMax =   9.69243824089361E-10  1.56662988541301E-02
 cg2d: Sum(rhs),rhsMax =   9.69292812680322E-10  1.56660518141808E-02
 cg2d: Sum(rhs),rhsMax =   9.69354790880672E-10  1.56658033802303E-02
 cg2d: Sum(rhs),rhsMax =   9.69412577989104E-10  1.56655534901280E-02
 cg2d: Sum(rhs),rhsMax =   9.69469809986023E-10  1.56653020951606E-02
 cg2d: Sum(rhs),rhsMax =   9.69529387329082E-10  1.56650491578483E-02
 cg2d: Sum(rhs),rhsMax =   9.69602134692771E-10  1.56647946525426E-02
 cg2d: Sum(rhs),rhsMax =   9.69674798789733E-10  1.56645385802066E-02
 cg2d: Sum(rhs),rhsMax =   9.69725355570716E-10  1.56642809428196E-02
 cg2d: Sum(rhs),rhsMax =   9.69775801329398E-10  1.56640217600083E-02
 cg2d: Sum(rhs),rhsMax =   9.69816726925643E-10  1.56637610679067E-02
 cg2d: Sum(rhs),rhsMax =   9.69866909006356E-10  1.56634989157553E-02
 cg2d: Sum(rhs),rhsMax =   9.69925847971176E-10  1.56632353685397E-02
 cg2d: Sum(rhs),rhsMax =   9.69987964949404E-10  1.56629705034873E-02
 cg2d: Sum(rhs),rhsMax =   9.70050539894629E-10  1.56627044098347E-02
 cg2d: Sum(rhs),rhsMax =   9.70112462583828E-10  1.56624371917490E-02
 cg2d: Sum(rhs),rhsMax =   9.70171110115103E-10  1.56621689619818E-02
 cg2d: Sum(rhs),rhsMax =   9.70230923380555E-10  1.56619027343637E-02
 cg2d: Sum(rhs),rhsMax =   9.70295704894042E-10  1.56616357254878E-02
 cg2d: Sum(rhs),rhsMax =   9.70366509367437E-10  1.56613680365341E-02
 cg2d: Sum(rhs),rhsMax =   9.70421548673883E-10  1.56610997942300E-02
 cg2d: Sum(rhs),rhsMax =   9.70492047835947E-10  1.56608311234308E-02
 cg2d: Sum(rhs),rhsMax =   9.70542687883658E-10  1.56605621585780E-02
 cg2d: Sum(rhs),rhsMax =   9.70596644722654E-10  1.56602930413184E-02
 cg2d: Sum(rhs),rhsMax =   9.70660635202236E-10  1.56600239242455E-02
 cg2d: Sum(rhs),rhsMax =   9.70724181592608E-10  1.56597549604562E-02
 cg2d: Sum(rhs),rhsMax =   9.70773891828536E-10  1.56594863125690E-02
 cg2d: Sum(rhs),rhsMax =   9.70837993330420E-10  1.56592181443815E-02
 cg2d: Sum(rhs),rhsMax =   9.70903107910814E-10  1.56589506240367E-02
 cg2d: Sum(rhs),rhsMax =   9.70954053269857E-10  1.56586839232433E-02
 cg2d: Sum(rhs),rhsMax =   9.71017127815443E-10  1.56584182104505E-02
 cg2d: Sum(rhs),rhsMax =   9.71074318178999E-10  1.56581536569269E-02
 cg2d: Sum(rhs),rhsMax =   9.71126984383730E-10  1.56578904346931E-02
 cg2d: Sum(rhs),rhsMax =   9.71176070119206E-10  1.56576287119313E-02
 cg2d: Sum(rhs),rhsMax =   9.71234107027819E-10  1.56573686527773E-02
 cg2d: Sum(rhs),rhsMax =   9.71288174889118E-10  1.56571104203451E-02
 cg2d: Sum(rhs),rhsMax =   9.71344185640710E-10  1.56568541747742E-02
 cg2d: Sum(rhs),rhsMax =   9.71406718952572E-10  1.56566000662633E-02
 cg2d: Sum(rhs),rhsMax =   9.71458094523037E-10  1.56563482416856E-02
 cg2d: Sum(rhs),rhsMax =   9.71529384719005E-10  1.56560988378341E-02
 cg2d: Sum(rhs),rhsMax =   9.71589128595518E-10  1.56558519843902E-02
 cg2d: Sum(rhs),rhsMax =   9.71638491886750E-10  1.56556078000860E-02
 cg2d: Sum(rhs),rhsMax =   9.71692698525928E-10  1.56553663959991E-02
 cg2d: Sum(rhs),rhsMax =   9.71747224354225E-10  1.56551278715375E-02
 cg2d: Sum(rhs),rhsMax =   9.71812630368163E-10  1.56548923148782E-02
 cg2d: Sum(rhs),rhsMax =   9.71866434551494E-10  1.56546598034907E-02
 cg2d: Sum(rhs),rhsMax =   9.71908664659793E-10  1.56544304016917E-02
 cg2d: Sum(rhs),rhsMax =   9.71964841944839E-10  1.56542041632844E-02
 cg2d: Sum(rhs),rhsMax =   9.72023989076476E-10  1.56539811301904E-02
 cg2d: Sum(rhs),rhsMax =   9.72083288863779E-10  1.56537613292514E-02
 cg2d: Sum(rhs),rhsMax =   9.72123326281604E-10  1.56535447739543E-02
 cg2d: Sum(rhs),rhsMax =   9.72184707737078E-10  1.56533314677651E-02
 cg2d: Sum(rhs),rhsMax =   9.72223079820367E-10  1.56531213991010E-02
 cg2d: Sum(rhs),rhsMax =   9.72279465272230E-10  1.56529145435522E-02
 cg2d: Sum(rhs),rhsMax =   9.72338445870413E-10  1.56527108640695E-02
 cg2d: Sum(rhs),rhsMax =   9.72397343201870E-10  1.56525103103838E-02
 cg2d: Sum(rhs),rhsMax =   9.72463262693957E-10  1.56523128201354E-02
 cg2d: Sum(rhs),rhsMax =   9.72517011366136E-10  1.56521183191245E-02
 cg2d: Sum(rhs),rhsMax =   9.72578448332762E-10  1.56519267218299E-02
 cg2d: Sum(rhs),rhsMax =   9.72632405171758E-10  1.56517379308444E-02
 cg2d: Sum(rhs),rhsMax =   9.72693703360505E-10  1.56515518395659E-02
 cg2d: Sum(rhs),rhsMax =   9.72741789895260E-10  1.56513683292784E-02
 cg2d: Sum(rhs),rhsMax =   9.72789071518321E-10  1.56511872770086E-02
 cg2d: Sum(rhs),rhsMax =   9.72843985924676E-10  1.56510085460721E-02
 cg2d: Sum(rhs),rhsMax =   9.72909836027824E-10  1.56508319982146E-02
 cg2d: Sum(rhs),rhsMax =   9.72956479272646E-10  1.56506574833774E-02
 cg2d: Sum(rhs),rhsMax =   9.73004676829703E-10  1.56504848476231E-02
 cg2d: Sum(rhs),rhsMax =   9.73055608310958E-10  1.56503139328454E-02
 cg2d: Sum(rhs),rhsMax =   9.73096034306842E-10  1.56501445763877E-02
 cg2d: Sum(rhs),rhsMax =   9.73150893202046E-10  1.56499766130262E-02
 cg2d: Sum(rhs),rhsMax =   9.73205502297070E-10  1.56498098745798E-02
 cg2d: Sum(rhs),rhsMax =   9.73266439663334E-10  1.56496441910192E-02
 cg2d: Sum(rhs),rhsMax =   9.73315844587930E-10  1.56494793977494E-02
 cg2d: Sum(rhs),rhsMax =   9.73362002110179E-10  1.56493153232915E-02
 cg2d: Sum(rhs),rhsMax =   9.73403149751029E-10  1.56491518008009E-02
 cg2d: Sum(rhs),rhsMax =   9.73456107389303E-10  1.56489886681987E-02
 cg2d: Sum(rhs),rhsMax =   9.73514338586945E-10  1.56488257644959E-02
 cg2d: Sum(rhs),rhsMax =   9.73555111527524E-10  1.56486629341142E-02
 cg2d: Sum(rhs),rhsMax =   9.73611136156904E-10  1.56485000276475E-02
 cg2d: Sum(rhs),rhsMax =   9.73670186144027E-10  1.56483368995065E-02
 cg2d: Sum(rhs),rhsMax =   9.73721409058825E-10  1.56481734143105E-02
 cg2d: Sum(rhs),rhsMax =   9.73782748880936E-10  1.56480094426707E-02
 cg2d: Sum(rhs),rhsMax =   9.73840411089277E-10  1.56478448620253E-02
 cg2d: Sum(rhs),rhsMax =   9.73896033262811E-10  1.56476795625662E-02
 cg2d: Sum(rhs),rhsMax =   9.73955860406051E-10  1.56475134397886E-02
 cg2d: Sum(rhs),rhsMax =   9.74012953625092E-10  1.56473464031484E-02
 cg2d: Sum(rhs),rhsMax =   9.74059805036731E-10  1.56471783707752E-02
 cg2d: Sum(rhs),rhsMax =   9.74108349538483E-10  1.56470092724182E-02
 cg2d: Sum(rhs),rhsMax =   9.74168343215176E-10  1.56468390485987E-02
 cg2d: Sum(rhs),rhsMax =   9.74217304050562E-10  1.56466676513066E-02
 cg2d: Sum(rhs),rhsMax =   9.74263406061660E-10  1.56464950449974E-02
 cg2d: Sum(rhs),rhsMax =   9.74315350621424E-10  1.56463212065001E-02
 cg2d: Sum(rhs),rhsMax =   9.74359509742229E-10  1.56461461228682E-02
 cg2d: Sum(rhs),rhsMax =   9.74395578112741E-10  1.56459697939175E-02
 cg2d: Sum(rhs),rhsMax =   9.74439709477970E-10  1.56457922334436E-02
 cg2d: Sum(rhs),rhsMax =   9.74485242499767E-10  1.56456134620260E-02
 cg2d: Sum(rhs),rhsMax =   9.74544042686709E-10  1.56454335151887E-02
 cg2d: Sum(rhs),rhsMax =   9.74598679537308E-10  1.56452524406647E-02
 cg2d: Sum(rhs),rhsMax =   9.74652317187186E-10  1.56450702931786E-02
 cg2d: Sum(rhs),rhsMax =   9.74701930278599E-10  1.56448871386028E-02
 cg2d: Sum(rhs),rhsMax =   9.74740010928343E-10  1.56447030551674E-02
 cg2d: Sum(rhs),rhsMax =   9.74792857544315E-10  1.56445181284248E-02
 cg2d: Sum(rhs),rhsMax =   9.74850783430625E-10  1.56443324511964E-02
 cg2d: Sum(rhs),rhsMax =   9.74906849693369E-10  1.56441461254643E-02
 cg2d: Sum(rhs),rhsMax =   9.74963845767896E-10  1.56439592608965E-02
 cg2d: Sum(rhs),rhsMax =   9.75016414828112E-10  1.56437719742069E-02
 cg2d: Sum(rhs),rhsMax =   9.75082556364804E-10  1.56435843853539E-02
 cg2d: Sum(rhs),rhsMax =   9.75139677339421E-10  1.56433966197356E-02
 cg2d: Sum(rhs),rhsMax =   9.75202141262344E-10  1.56432088091432E-02
 cg2d: Sum(rhs),rhsMax =   9.75252073542876E-10  1.56430210852084E-02
 cg2d: Sum(rhs),rhsMax =   9.75298869443364E-10  1.56428335823840E-02
 cg2d: Sum(rhs),rhsMax =   9.75348843357260E-10  1.56426464358641E-02
 Computing Diagnostic #    26 "THETA   " (list#  1) Parms "SMR     MR      ", Count=     144
 Computing Diagnostic #    27 "SALT    " (list#  1) Parms "SMR     MR      ", Count=     144
 Computing Diagnostic #    30 "UVEL    " (list#  1) Parms "UUR     MR      ", Count=     144
             Vector  Mate for "UVEL    " :  Diagnostic #     31 "VVEL    " exists
 Computing Diagnostic #    32 "WVEL    " (list#  1) Parms "WM      LR      ", Count=     144
 Computing Diagnostic #    31 "VVEL    " (list#  1) Parms "VVR     MR      ", Count=     144
             Vector  Mate for "VVEL    " :  Diagnostic #     30 "UVEL    " exists
 Computing Diagnostic #   197 "BRGfwFlx" (list#  2) Parms "SM      MR      ", Count=     144
 Computing Diagnostic #   198 "BRGhtFlx" (list#  2) Parms "SM      MR      ", Count=     144
 Computing Diagnostic #   199 "BRGmltRt" (list#  2) Parms "SM      MR      ", Count=     144
 Computing Diagnostic #   201 "BRG_TauX" (list#  2) Parms "UU      MR      ", Count=    1728
 Computing Diagnostic #   202 "BRG_TauY" (list#  2) Parms "VV      MR      ", Count=    1728
 Computing Diagnostic #   203 "BRGhFacC" (list#  2) Parms "SM      MR      ", Count=    1728
 cg2d: Sum(rhs),rhsMax =   9.75414221615623E-10  1.56424597834788E-02
 cg2d: Sum(rhs),rhsMax =   9.75472799757959E-10  1.56422737591410E-02
 cg2d: Sum(rhs),rhsMax =   9.75526534552351E-10  1.56420884971031E-02
 cg2d: Sum(rhs),rhsMax =   9.75577202355637E-10  1.56419041280764E-02
 cg2d: Sum(rhs),rhsMax =   9.75629271815492E-10  1.56417207781960E-02
 cg2d: Sum(rhs),rhsMax =   9.75684658066633E-10  1.56415385712049E-02
 cg2d: Sum(rhs),rhsMax =   9.75755046206395E-10  1.56413576243574E-02
 cg2d: Sum(rhs),rhsMax =   9.75793251756230E-10  1.56411780485333E-02
 cg2d: Sum(rhs),rhsMax =   9.75851482953871E-10  1.56409999489887E-02
 cg2d: Sum(rhs),rhsMax =   9.75906466749166E-10  1.56408234196024E-02
 cg2d: Sum(rhs),rhsMax =   9.75974426276061E-10  1.56406485492759E-02
 cg2d: Sum(rhs),rhsMax =   9.76034322808239E-10  1.56404754171296E-02
 cg2d: Sum(rhs),rhsMax =   9.76087738413511E-10  1.56403040906069E-02
 cg2d: Sum(rhs),rhsMax =   9.76145789199911E-10  1.56401346272808E-02
 cg2d: Sum(rhs),rhsMax =   9.76194777790873E-10  1.56399670746657E-02
 cg2d: Sum(rhs),rhsMax =   9.76253314299846E-10  1.56398014667076E-02
 cg2d: Sum(rhs),rhsMax =   9.76310102207556E-10  1.56396378283781E-02
 cg2d: Sum(rhs),rhsMax =   9.76365183147365E-10  1.56394761689006E-02
 cg2d: Sum(rhs),rhsMax =   9.76412936615212E-10  1.56393164857703E-02
 cg2d: Sum(rhs),rhsMax =   9.76474831548835E-10  1.56391587662006E-02
 cg2d: Sum(rhs),rhsMax =   9.76513106487609E-10  1.56390029820414E-02
 cg2d: Sum(rhs),rhsMax =   9.76564717980466E-10  1.56388490899463E-02
 cg2d: Sum(rhs),rhsMax =   9.76607655855943E-10  1.56386970376843E-02
 cg2d: Sum(rhs),rhsMax =   9.76659281226588E-10  1.56385467584289E-02
 cg2d: Sum(rhs),rhsMax =   9.76716096889874E-10  1.56383981712487E-02
 cg2d: Sum(rhs),rhsMax =   9.76763309123996E-10  1.56382511837732E-02
 cg2d: Sum(rhs),rhsMax =   9.76819708453647E-10  1.56381056907586E-02
 cg2d: Sum(rhs),rhsMax =   9.76869696245330E-10  1.56379615749628E-02
 cg2d: Sum(rhs),rhsMax =   9.76914785177918E-10  1.56378187070816E-02
 cg2d: Sum(rhs),rhsMax =   9.76955863429829E-10  1.56376769463168E-02
 cg2d: Sum(rhs),rhsMax =   9.77006114899481E-10  1.56375361415331E-02
 cg2d: Sum(rhs),rhsMax =   9.77059030904393E-10  1.56373961315523E-02
 cg2d: Sum(rhs),rhsMax =   9.77109490540862E-10  1.56372567444014E-02
 cg2d: Sum(rhs),rhsMax =   9.77160893866902E-10  1.56371178022635E-02
 cg2d: Sum(rhs),rhsMax =   9.77215336428472E-10  1.56369791149461E-02
 cg2d: Sum(rhs),rhsMax =   9.77274525193472E-10  1.56368404872908E-02
 cg2d: Sum(rhs),rhsMax =   9.77326303219783E-10  1.56367017183078E-02
 cg2d: Sum(rhs),rhsMax =   9.77372391353093E-10  1.56365625988063E-02
 cg2d: Sum(rhs),rhsMax =   9.77417494163468E-10  1.56364229164542E-02
 cg2d: Sum(rhs),rhsMax =   9.77487438214020E-10  1.56362824546115E-02
 cg2d: Sum(rhs),rhsMax =   9.77533734514147E-10  1.56361409928946E-02
 cg2d: Sum(rhs),rhsMax =   9.77592812256844E-10  1.56359983105227E-02
 cg2d: Sum(rhs),rhsMax =   9.77638997534669E-10  1.56358541816864E-02
 cg2d: Sum(rhs),rhsMax =   9.77694439296961E-10  1.56357083858659E-02
 cg2d: Sum(rhs),rhsMax =   9.77736086538172E-10  1.56355606985835E-02
 cg2d: Sum(rhs),rhsMax =   9.77789516021232E-10  1.56354108982943E-02
 cg2d: Sum(rhs),rhsMax =   9.77843750415985E-10  1.56352587675667E-02
 cg2d: Sum(rhs),rhsMax =   9.77892433695615E-10  1.56351040898674E-02
 cg2d: Sum(rhs),rhsMax =   9.77943337421294E-10  1.56349466561203E-02
 cg2d: Sum(rhs),rhsMax =   9.77990188832933E-10  1.56347862587195E-02
 cg2d: Sum(rhs),rhsMax =   9.78046324484616E-10  1.56346226997081E-02
 cg2d: Sum(rhs),rhsMax =   9.78093994685736E-10  1.56344557854001E-02
 cg2d: Sum(rhs),rhsMax =   9.78145578423018E-10  1.56342853315728E-02
 cg2d: Sum(rhs),rhsMax =   9.78192984946169E-10  1.56341111614302E-02
 cg2d: Sum(rhs),rhsMax =   9.78254671712975E-10  1.56339331086319E-02
 cg2d: Sum(rhs),rhsMax =   9.78322173272872E-10  1.56337510159085E-02
 cg2d: Sum(rhs),rhsMax =   9.78373576598912E-10  1.56335647379004E-02
 cg2d: Sum(rhs),rhsMax =   9.78425007680528E-10  1.56333741385698E-02
 cg2d: Sum(rhs),rhsMax =   9.78463948753117E-10  1.56331790950959E-02
 cg2d: Sum(rhs),rhsMax =   9.78532171957980E-10  1.56329794948431E-02
 cg2d: Sum(rhs),rhsMax =   9.78593234224334E-10  1.56327752388076E-02
 cg2d: Sum(rhs),rhsMax =   9.78651465421976E-10  1.56325662378317E-02
 cg2d: Sum(rhs),rhsMax =   9.78714456700835E-10  1.56323524208429E-02
 cg2d: Sum(rhs),rhsMax =   9.78763833869856E-10  1.56321337266237E-02
 cg2d: Sum(rhs),rhsMax =   9.78818415209304E-10  1.56319101058733E-02
 cg2d: Sum(rhs),rhsMax =   9.78863809453223E-10  1.56316815254346E-02
 cg2d: Sum(rhs),rhsMax =   9.78915060123597E-10  1.56314479646179E-02
 cg2d: Sum(rhs),rhsMax =   9.78971528842187E-10  1.56312094142309E-02
 cg2d: Sum(rhs),rhsMax =   9.79034769921228E-10  1.56309658824566E-02
 cg2d: Sum(rhs),rhsMax =   9.79087297348080E-10  1.56307173844468E-02
 cg2d: Sum(rhs),rhsMax =   9.79137437795430E-10  1.56304639552556E-02
 cg2d: Sum(rhs),rhsMax =   9.79193059968964E-10  1.56302056368124E-02
 cg2d: Sum(rhs),rhsMax =   9.79249681343219E-10  1.56299424845958E-02
 cg2d: Sum(rhs),rhsMax =   9.79299613623752E-10  1.56296745672965E-02
 cg2d: Sum(rhs),rhsMax =   9.79364173092634E-10  1.56294019641202E-02
 cg2d: Sum(rhs),rhsMax =   9.79416422963730E-10  1.56291247641654E-02
 cg2d: Sum(rhs),rhsMax =   9.79472003503901E-10  1.56288430688150E-02
 cg2d: Sum(rhs),rhsMax =   9.79526584843349E-10  1.56285569870426E-02
 cg2d: Sum(rhs),rhsMax =   9.79585995652954E-10  1.56282666388149E-02
 cg2d: Sum(rhs),rhsMax =   9.79653913546485E-10  1.56279721527222E-02
 cg2d: Sum(rhs),rhsMax =   9.79719194660333E-10  1.56276736641412E-02
 cg2d: Sum(rhs),rhsMax =   9.79788195021314E-10  1.56273713135408E-02
 cg2d: Sum(rhs),rhsMax =   9.79848244209158E-10  1.56270652546339E-02
 cg2d: Sum(rhs),rhsMax =   9.79895359298766E-10  1.56267556396071E-02
 cg2d: Sum(rhs),rhsMax =   9.79944445034242E-10  1.56264426293251E-02
 cg2d: Sum(rhs),rhsMax =   9.80008768580731E-10  1.56261263883705E-02
 cg2d: Sum(rhs),rhsMax =   9.80084832735706E-10  1.56258070854220E-02
 cg2d: Sum(rhs),rhsMax =   9.80147060736236E-10  1.56254848880806E-02
 cg2d: Sum(rhs),rhsMax =   9.80206013578844E-10  1.56251599728099E-02
 cg2d: Sum(rhs),rhsMax =   9.80284492468897E-10  1.56248325088024E-02
 cg2d: Sum(rhs),rhsMax =   9.80343223266900E-10  1.56245026679977E-02
 cg2d: Sum(rhs),rhsMax =   9.80394043725852E-10  1.56241706184710E-02
 cg2d: Sum(rhs),rhsMax =   9.80451400622862E-10  1.56238365254832E-02
 cg2d: Sum(rhs),rhsMax =   9.80525424743028E-10  1.56235005508003E-02
 cg2d: Sum(rhs),rhsMax =   9.80585918020083E-10  1.56231628498587E-02
 cg2d: Sum(rhs),rhsMax =   9.80643330428244E-10  1.56228235745620E-02
 cg2d: Sum(rhs),rhsMax =   9.80716216569810E-10  1.56224828739838E-02
 cg2d: Sum(rhs),rhsMax =   9.80786216131513E-10  1.56221408889510E-02
 cg2d: Sum(rhs),rhsMax =   9.80853481769017E-10  1.56217977544803E-02
 cg2d: Sum(rhs),rhsMax =   9.80910894177178E-10  1.56214536005158E-02
 cg2d: Sum(rhs),rhsMax =   9.80980338627369E-10  1.56211085495785E-02
 cg2d: Sum(rhs),rhsMax =   9.81044162573497E-10  1.56207627195451E-02
 cg2d: Sum(rhs),rhsMax =   9.81102477037865E-10  1.56204162188054E-02
 cg2d: Sum(rhs),rhsMax =   9.81156197954469E-10  1.56200691519555E-02
 cg2d: Sum(rhs),rhsMax =   9.81217149198521E-10  1.56197216181237E-02
 cg2d: Sum(rhs),rhsMax =   9.81276934708397E-10  1.56193737058395E-02
 cg2d: Sum(rhs),rhsMax =   9.81345366080077E-10  1.56190255028650E-02
 cg2d: Sum(rhs),rhsMax =   9.81416184431261E-10  1.56186771005443E-02
 cg2d: Sum(rhs),rhsMax =   9.81484282736034E-10  1.56183285195691E-02
 cg2d: Sum(rhs),rhsMax =   9.81554823531461E-10  1.56179798685247E-02
 cg2d: Sum(rhs),rhsMax =   9.81620520978943E-10  1.56176312125473E-02
 cg2d: Sum(rhs),rhsMax =   9.81686953949179E-10  1.56172825987367E-02
 cg2d: Sum(rhs),rhsMax =   9.81752304451966E-10  1.56169340750580E-02
 cg2d: Sum(rhs),rhsMax =   9.81819070489109E-10  1.56165856892901E-02
 cg2d: Sum(rhs),rhsMax =   9.81857622983640E-10  1.56162374864998E-02
 cg2d: Sum(rhs),rhsMax =   9.81916020714735E-10  1.56158895067542E-02
 cg2d: Sum(rhs),rhsMax =   9.81989489723389E-10  1.56155417850488E-02
 cg2d: Sum(rhs),rhsMax =   9.82038408925412E-10  1.56151943562933E-02
 cg2d: Sum(rhs),rhsMax =   9.82098694035649E-10  1.56148472503756E-02
 cg2d: Sum(rhs),rhsMax =   9.82166736829271E-10  1.56145004952510E-02
 cg2d: Sum(rhs),rhsMax =   9.82234585333863E-10  1.56141541179627E-02
 cg2d: Sum(rhs),rhsMax =   9.82298506424506E-10  1.56138081459816E-02
 cg2d: Sum(rhs),rhsMax =   9.82350714662239E-10  1.56134626018256E-02
 cg2d: Sum(rhs),rhsMax =   9.82412859396042E-10  1.56131175122010E-02
 cg2d: Sum(rhs),rhsMax =   9.82475226174451E-10  1.56127729017879E-02
 cg2d: Sum(rhs),rhsMax =   9.82533249205275E-10  1.56124287958649E-02
 cg2d: Sum(rhs),rhsMax =   9.82606038202327E-10  1.56120852205218E-02
 cg2d: Sum(rhs),rhsMax =   9.82671471971841E-10  1.56117422032887E-02
 cg2d: Sum(rhs),rhsMax =   9.82746731215123E-10  1.56113997721274E-02
 cg2d: Sum(rhs),rhsMax =   9.82809500449378E-10  1.56110579583356E-02
 cg2d: Sum(rhs),rhsMax =   9.82881873112795E-10  1.56107167922380E-02
 cg2d: Sum(rhs),rhsMax =   9.82951067762805E-10  1.56103763095999E-02
 cg2d: Sum(rhs),rhsMax =   9.83011172461801E-10  1.56100365546784E-02
 cg2d: Sum(rhs),rhsMax =   9.83076037242014E-10  1.56096975446441E-02
 cg2d: Sum(rhs),rhsMax =   9.83145981292566E-10  1.56093593354460E-02
 cg2d: Sum(rhs),rhsMax =   9.83208514604428E-10  1.56090219746197E-02
 cg2d: Sum(rhs),rhsMax =   9.83276002286537E-10  1.56086855034912E-02
 cg2d: Sum(rhs),rhsMax =   9.83351483574424E-10  1.56083499695450E-02
 cg2d: Sum(rhs),rhsMax =   9.83413711574954E-10  1.56080154245936E-02
 cg2d: Sum(rhs),rhsMax =   9.83473386062528E-10  1.56076819235762E-02
 cg2d: Sum(rhs),rhsMax =   9.83532477683013E-10  1.56073495220499E-02
 cg2d: Sum(rhs),rhsMax =   9.83608958171622E-10  1.56070182780161E-02
 cg2d: Sum(rhs),rhsMax =   9.83674447452287E-10  1.56066882531247E-02
 cg2d: Sum(rhs),rhsMax =   9.83744891103200E-10  1.56063595072157E-02
 Computing Diagnostic #    26 "THETA   " (list#  1) Parms "SMR     MR      ", Count=     144
 Computing Diagnostic #    27 "SALT    " (list#  1) Parms "SMR     MR      ", Count=     144
 Computing Diagnostic #    30 "UVEL    " (list#  1) Parms "UUR     MR      ", Count=     144
             Vector  Mate for "UVEL    " :  Diagnostic #     31 "VVEL    " exists
 Computing Diagnostic #    32 "WVEL    " (list#  1) Parms "WM      LR      ", Count=     144
 Computing Diagnostic #    31 "VVEL    " (list#  1) Parms "VVR     MR      ", Count=     144
             Vector  Mate for "VVEL    " :  Diagnostic #     30 "UVEL    " exists
 Computing Diagnostic #   197 "BRGfwFlx" (list#  2) Parms "SM      MR      ", Count=     144
 Computing Diagnostic #   198 "BRGhtFlx" (list#  2) Parms "SM      MR      ", Count=     144
 Computing Diagnostic #   199 "BRGmltRt" (list#  2) Parms "SM      MR      ", Count=     144
 Computing Diagnostic #   201 "BRG_TauX" (list#  2) Parms "UU      MR      ", Count=    1728
 Computing Diagnostic #   202 "BRG_TauY" (list#  2) Parms "VV      MR      ", Count=    1728
 Computing Diagnostic #   203 "BRGhFacC" (list#  2) Parms "SM      MR      ", Count=    1728
 cg2d: Sum(rhs),rhsMax =   9.83813183697002E-10  1.56060321026368E-02
 cg2d: Sum(rhs),rhsMax =   9.83885806160600E-10  1.56057061033775E-02
 cg2d: Sum(rhs),rhsMax =   9.83940845467046E-10  1.56053815762594E-02
 cg2d: Sum(rhs),rhsMax =   9.83995426806494E-10  1.56050585945231E-02
 cg2d: Sum(rhs),rhsMax =   9.84064968401199E-10  1.56047372209902E-02
 cg2d: Sum(rhs),rhsMax =   9.84124781666651E-10  1.56044175224602E-02
 cg2d: Sum(rhs),rhsMax =   9.84194628572688E-10  1.56040995621088E-02
 cg2d: Sum(rhs),rhsMax =   9.84252568336785E-10  1.56037833999846E-02
 cg2d: Sum(rhs),rhsMax =   9.84299627915242E-10  1.56034691020816E-02
 cg2d: Sum(rhs),rhsMax =   9.84358150546427E-10  1.56031567317515E-02
 cg2d: Sum(rhs),rhsMax =   9.84410136739555E-10  1.56028463468074E-02
 cg2d: Sum(rhs),rhsMax =   9.84484424537690E-10  1.56025380043007E-02
 cg2d: Sum(rhs),rhsMax =   9.84543599424903E-10  1.56022317607716E-02
 cg2d: Sum(rhs),rhsMax =   9.84603495957082E-10  1.56019276685135E-02
 cg2d: Sum(rhs),rhsMax =   9.84667097858605E-10  1.56016257736939E-02
 cg2d: Sum(rhs),rhsMax =   9.84735196163378E-10  1.56013261199781E-02
 cg2d: Sum(rhs),rhsMax =   9.84790873848063E-10  1.56010287473148E-02
 cg2d: Sum(rhs),rhsMax =   9.84865355935227E-10  1.56007336934118E-02
 cg2d: Sum(rhs),rhsMax =   9.84924114488805E-10  1.56004409842152E-02
 cg2d: Sum(rhs),rhsMax =   9.84986189833670E-10  1.56001506453341E-02
 cg2d: Sum(rhs),rhsMax =   9.85051928914515E-10  1.55998626947035E-02
 cg2d: Sum(rhs),rhsMax =   9.85111478501999E-10  1.55995771449684E-02
 cg2d: Sum(rhs),rhsMax =   9.85177259216208E-10  1.55992940000078E-02
 cg2d: Sum(rhs),rhsMax =   9.85231327077507E-10  1.55990132614296E-02
 cg2d: Sum(rhs),rhsMax =   9.85286824350950E-10  1.55987349184458E-02
 cg2d: Sum(rhs),rhsMax =   9.85343001635997E-10  1.55984589603798E-02
 cg2d: Sum(rhs),rhsMax =   9.85398110331381E-10  1.55981853630138E-02
 cg2d: Sum(rhs),rhsMax =   9.85460407720851E-10  1.55979140996363E-02
 cg2d: Sum(rhs),rhsMax =   9.85516918072804E-10  1.55976451359603E-02
 cg2d: Sum(rhs),rhsMax =   9.85579631795908E-10  1.55973784272265E-02
 cg2d: Sum(rhs),rhsMax =   9.85639722617115E-10  1.55971139269832E-02
 cg2d: Sum(rhs),rhsMax =   9.85714412871097E-10  1.55968515794098E-02
 cg2d: Sum(rhs),rhsMax =   9.85772671824314E-10  1.55965913231273E-02
 cg2d: Sum(rhs),rhsMax =   9.85822812271664E-10  1.55963330857805E-02
 cg2d: Sum(rhs),rhsMax =   9.85891049354315E-10  1.55960767958400E-02
 cg2d: Sum(rhs),rhsMax =   9.85941495112996E-10  1.55958223685434E-02
 cg2d: Sum(rhs),rhsMax =   9.85995785018901E-10  1.55955697185306E-02
 cg2d: Sum(rhs),rhsMax =   9.86047299367243E-10  1.55953187515266E-02
 cg2d: Sum(rhs),rhsMax =   9.86105308520280E-10  1.55950693712564E-02
 cg2d: Sum(rhs),rhsMax =   9.86156170612595E-10  1.55948214720829E-02
 cg2d: Sum(rhs),rhsMax =   9.86218606779943E-10  1.55945749452524E-02
 cg2d: Sum(rhs),rhsMax =   9.86274270586840E-10  1.55943296836606E-02
 cg2d: Sum(rhs),rhsMax =   9.86334833252833E-10  1.55940855675697E-02
 cg2d: Sum(rhs),rhsMax =   9.86417975079590E-10  1.55938424801261E-02
 cg2d: Sum(rhs),rhsMax =   9.86459428031772E-10  1.55936003000793E-02
 cg2d: Sum(rhs),rhsMax =   9.86513148948376E-10  1.55933589028441E-02
 cg2d: Sum(rhs),rhsMax =   9.86571324634866E-10  1.55931181649902E-02
 cg2d: Sum(rhs),rhsMax =   9.86623158172328E-10  1.55928779571840E-02
 cg2d: Sum(rhs),rhsMax =   9.86679168923921E-10  1.55926381541711E-02
 cg2d: Sum(rhs),rhsMax =   9.86735540497996E-10  1.55923986291568E-02
 cg2d: Sum(rhs),rhsMax =   9.86804915559247E-10  1.55921592540142E-02
 cg2d: Sum(rhs),rhsMax =   9.86855527851382E-10  1.55919199038158E-02
 cg2d: Sum(rhs),rhsMax =   9.86907389144420E-10  1.55916804514813E-02
 cg2d: Sum(rhs),rhsMax =   9.86978623829238E-10  1.55914407771126E-02
 cg2d: Sum(rhs),rhsMax =   9.87037993005480E-10  1.55912007574663E-02
 cg2d: Sum(rhs),rhsMax =   9.87099693650073E-10  1.55909602788746E-02
 cg2d: Sum(rhs),rhsMax =   9.87157855458776E-10  1.55907192247720E-02
 cg2d: Sum(rhs),rhsMax =   9.87208564895425E-10  1.55904774869096E-02
 cg2d: Sum(rhs),rhsMax =   9.87261786211668E-10  1.55902349585405E-02
 cg2d: Sum(rhs),rhsMax =   9.87326984058789E-10  1.55899915403823E-02
 cg2d: Sum(rhs),rhsMax =   9.87380899264423E-10  1.55897471361300E-02
 cg2d: Sum(rhs),rhsMax =   9.87443488087436E-10  1.55895016551030E-02
 cg2d: Sum(rhs),rhsMax =   9.87516846073788E-10  1.55892550149509E-02
 cg2d: Sum(rhs),rhsMax =   9.87569220844975E-10  1.55890071374902E-02
 cg2d: Sum(rhs),rhsMax =   9.87643980487896E-10  1.55887579513042E-02
 cg2d: Sum(rhs),rhsMax =   9.87692483356284E-10  1.55885073940556E-02
 cg2d: Sum(rhs),rhsMax =   9.87750520264896E-10  1.55882554029748E-02
 cg2d: Sum(rhs),rhsMax =   9.87810180874682E-10  1.55880019332600E-02
 cg2d: Sum(rhs),rhsMax =   9.87876086488981E-10  1.55877469404570E-02
 cg2d: Sum(rhs),rhsMax =   9.87929488216466E-10  1.55874903917813E-02
 cg2d: Sum(rhs),rhsMax =   9.87988940659434E-10  1.55872322618148E-02
 cg2d: Sum(rhs),rhsMax =   9.88051737649265E-10  1.55869725234883E-02
 cg2d: Sum(rhs),rhsMax =   9.88117615507988E-10  1.55867111645844E-02
 cg2d: Sum(rhs),rhsMax =   9.88173293192673E-10  1.55864481811881E-02
 cg2d: Sum(rhs),rhsMax =   9.88235882015687E-10  1.55861835807503E-02
 cg2d: Sum(rhs),rhsMax =   9.88288145764571E-10  1.55859173766426E-02
 cg2d: Sum(rhs),rhsMax =   9.88338633156616E-10  1.55856495915440E-02
 cg2d: Sum(rhs),rhsMax =   9.88395254530872E-10  1.55853802496998E-02
 cg2d: Sum(rhs),rhsMax =   9.88452125705308E-10  1.55851093786464E-02
 cg2d: Sum(rhs),rhsMax =   9.88510870381099E-10  1.55848370358781E-02
 cg2d: Sum(rhs),rhsMax =   9.88572321225512E-10  1.55845632674782E-02
 cg2d: Sum(rhs),rhsMax =   9.88628540143921E-10  1.55842881128954E-02
 cg2d: Sum(rhs),rhsMax =   9.88683759861608E-10  1.55840116329945E-02
 cg2d: Sum(rhs),rhsMax =   9.88752760222589E-10  1.55837338969664E-02
 cg2d: Sum(rhs),rhsMax =   9.88816847846685E-10  1.55834549773018E-02
 cg2d: Sum(rhs),rhsMax =   9.88884432673309E-10  1.55831749483369E-02
 cg2d: Sum(rhs),rhsMax =   9.88943815727339E-10  1.55828938897263E-02
 cg2d: Sum(rhs),rhsMax =   9.89008680507553E-10  1.55826118856549E-02
 cg2d: Sum(rhs),rhsMax =   9.89062332035218E-10  1.55823290258812E-02
 cg2d: Sum(rhs),rhsMax =   9.89113554950016E-10  1.55820454014858E-02
 cg2d: Sum(rhs),rhsMax =   9.89170551024543E-10  1.55817611077129E-02
 cg2d: Sum(rhs),rhsMax =   9.89226658920650E-10  1.55814762445214E-02
 cg2d: Sum(rhs),rhsMax =   9.89291523700864E-10  1.55811909086771E-02
 cg2d: Sum(rhs),rhsMax =   9.89340789847581E-10  1.55809052044578E-02
 cg2d: Sum(rhs),rhsMax =   9.89386364502742E-10  1.55806192337680E-02
 cg2d: Sum(rhs),rhsMax =   9.89449869259751E-10  1.55803331016568E-02
 cg2d: Sum(rhs),rhsMax =   9.89508489035451E-10  1.55800469144423E-02
 cg2d: Sum(rhs),rhsMax =   9.89563611608624E-10  1.55797607765514E-02
 cg2d: Sum(rhs),rhsMax =   9.89624313052495E-10  1.55794747912640E-02
 cg2d: Sum(rhs),rhsMax =   9.89675189022599E-10  1.55791890654118E-02
 cg2d: Sum(rhs),rhsMax =   9.89739595835815E-10  1.55789036999037E-02
 cg2d: Sum(rhs),rhsMax =   9.89795231887136E-10  1.55786187996707E-02
 cg2d: Sum(rhs),rhsMax =   9.89858472966176E-10  1.55783344649735E-02
 cg2d: Sum(rhs),rhsMax =   9.89927903538579E-10  1.55780507945356E-02
 cg2d: Sum(rhs),rhsMax =   9.90001053358114E-10  1.55777678855233E-02
 cg2d: Sum(rhs),rhsMax =   9.90058979244424E-10  1.55774858325897E-02
 cg2d: Sum(rhs),rhsMax =   9.90116905130733E-10  1.55772047283905E-02
 cg2d: Sum(rhs),rhsMax =   9.90180992754830E-10  1.55769246616804E-02
 cg2d: Sum(rhs),rhsMax =   9.90242290943577E-10  1.55766457185238E-02
 cg2d: Sum(rhs),rhsMax =   9.90301882164424E-10  1.55763679818836E-02
 cg2d: Sum(rhs),rhsMax =   9.90364720787618E-10  1.55760915314403E-02
 cg2d: Sum(rhs),rhsMax =   9.90416221258172E-10  1.55758164424854E-02
 cg2d: Sum(rhs),rhsMax =   9.90472689976762E-10  1.55755427886577E-02
 cg2d: Sum(rhs),rhsMax =   9.90522219801449E-10  1.55752706355856E-02
 cg2d: Sum(rhs),rhsMax =   9.90575663162296E-10  1.55750000520521E-02
 cg2d: Sum(rhs),rhsMax =   9.90636447872895E-10  1.55747310955799E-02
 cg2d: Sum(rhs),rhsMax =   9.90697107683403E-10  1.55744638240530E-02
 cg2d: Sum(rhs),rhsMax =   9.90758808327996E-10  1.55741982908602E-02
 cg2d: Sum(rhs),rhsMax =   9.90824880475749E-10  1.55739345452869E-02
 cg2d: Sum(rhs),rhsMax =   9.90883208817905E-10  1.55736726323802E-02
 cg2d: Sum(rhs),rhsMax =   9.90949697299293E-10  1.55734125929288E-02
 cg2d: Sum(rhs),rhsMax =   9.91019960538964E-10  1.55731544654989E-02
 cg2d: Sum(rhs),rhsMax =   9.91078594192452E-10  1.55728982833320E-02
 cg2d: Sum(rhs),rhsMax =   9.91147192097586E-10  1.55726440788526E-02
 cg2d: Sum(rhs),rhsMax =   9.91208268241728E-10  1.55723918759708E-02
 cg2d: Sum(rhs),rhsMax =   9.91253815141313E-10  1.55721417004672E-02
 cg2d: Sum(rhs),rhsMax =   9.91297544050695E-10  1.55718935728268E-02
 cg2d: Sum(rhs),rhsMax =   9.91354151547164E-10  1.55716475075234E-02
 cg2d: Sum(rhs),rhsMax =   9.91425802565615E-10  1.55714035216425E-02
 cg2d: Sum(rhs),rhsMax =   9.91473111944252E-10  1.55711616232027E-02
 cg2d: Sum(rhs),rhsMax =   9.91520490711828E-10  1.55709218238570E-02
 cg2d: Sum(rhs),rhsMax =   9.91579443554436E-10  1.55706841269583E-02
 cg2d: Sum(rhs),rhsMax =   9.91640478065214E-10  1.55704485363074E-02
 cg2d: Sum(rhs),rhsMax =   9.91702608921230E-10  1.55702150538005E-02
 cg2d: Sum(rhs),rhsMax =   9.91760271129571E-10  1.55699836772171E-02
 cg2d: Sum(rhs),rhsMax =   9.91819182338816E-10  1.55697544043585E-02
 cg2d: Sum(rhs),rhsMax =   9.91874027356232E-10  1.55695272279596E-02
 cg2d: Sum(rhs),rhsMax =   9.91944304473691E-10  1.55693021430073E-02
 cg2d: Sum(rhs),rhsMax =   9.92006171651738E-10  1.55690791399740E-02
 cg2d: Sum(rhs),rhsMax =   9.92056312099088E-10  1.55688582089757E-02
 cg2d: Sum(rhs),rhsMax =   9.92104010055783E-10  1.55686393383307E-02
 cg2d: Sum(rhs),rhsMax =   9.92165460900196E-10  1.55684225132117E-02
 cg2d: Sum(rhs),rhsMax =   9.92227938700907E-10  1.55682077201506E-02
 cg2d: Sum(rhs),rhsMax =   9.92291693258096E-10  1.55679949432537E-02
 Computing Diagnostic #    26 "THETA   " (list#  1) Parms "SMR     MR      ", Count=     144
 Computing Diagnostic #    27 "SALT    " (list#  1) Parms "SMR     MR      ", Count=     144
 Computing Diagnostic #    30 "UVEL    " (list#  1) Parms "UUR     MR      ", Count=     144
             Vector  Mate for "UVEL    " :  Diagnostic #     31 "VVEL    " exists
 Computing Diagnostic #    32 "WVEL    " (list#  1) Parms "WM      LR      ", Count=     144
 Computing Diagnostic #    31 "VVEL    " (list#  1) Parms "VVR     MR      ", Count=     144
             Vector  Mate for "VVEL    " :  Diagnostic #     30 "UVEL    " exists
 Computing Diagnostic #   197 "BRGfwFlx" (list#  2) Parms "SM      MR      ", Count=     144
 Computing Diagnostic #   198 "BRGhtFlx" (list#  2) Parms "SM      MR      ", Count=     144
 Computing Diagnostic #   199 "BRGmltRt" (list#  2) Parms "SM      MR      ", Count=     144
 Computing Diagnostic #   201 "BRG_TauX" (list#  2) Parms "UU      MR      ", Count=    1728
 Computing Diagnostic #   202 "BRG_TauY" (list#  2) Parms "VV      MR      ", Count=    1728
 Computing Diagnostic #   203 "BRGhFacC" (list#  2) Parms "SM      MR      ", Count=    1728
 cg2d: Sum(rhs),rhsMax =   9.92345941530637E-10  1.55677841638476E-02
 cg2d: Sum(rhs),rhsMax =   9.92392154564037E-10  1.55675753656270E-02
 cg2d: Sum(rhs),rhsMax =   9.92448484504749E-10  1.55673685282580E-02
 cg2d: Sum(rhs),rhsMax =   9.92501927865597E-10  1.55671636306038E-02
 cg2d: Sum(rhs),rhsMax =   9.92559062718001E-10  1.55669606526626E-02
 cg2d: Sum(rhs),rhsMax =   9.92611451366976E-10  1.55667595703457E-02
 cg2d: Sum(rhs),rhsMax =   9.92674026312201E-10  1.55665603607427E-02
 cg2d: Sum(rhs),rhsMax =   9.92719101367001E-10  1.55663629992079E-02
 cg2d: Sum(rhs),rhsMax =   9.92780427311324E-10  1.55661674600280E-02
 cg2d: Sum(rhs),rhsMax =   9.92833468216325E-10  1.55659737153980E-02
 cg2d: Sum(rhs),rhsMax =   9.92884982564668E-10  1.55657817758857E-02
 cg2d: Sum(rhs),rhsMax =   9.92930612730980E-10  1.55655916212078E-02
 cg2d: Sum(rhs),rhsMax =   9.92997156723519E-10  1.55654033111366E-02
 cg2d: Sum(rhs),rhsMax =   9.93032323037824E-10  1.55652168510996E-02
 cg2d: Sum(rhs),rhsMax =   9.93077439725987E-10  1.55650322493048E-02
 cg2d: Sum(rhs),rhsMax =   9.93138390970039E-10  1.55648495160342E-02
 cg2d: Sum(rhs),rhsMax =   9.93192666998155E-10  1.55646686565647E-02
 cg2d: Sum(rhs),rhsMax =   9.93254575809566E-10  1.55644896692465E-02
 cg2d: Sum(rhs),rhsMax =   9.93302967655652E-10  1.55643125463101E-02
 cg2d: Sum(rhs),rhsMax =   9.93353010958486E-10  1.55641372786608E-02
 cg2d: Sum(rhs),rhsMax =   9.93422358264162E-10  1.55639638466828E-02
 cg2d: Sum(rhs),rhsMax =   9.93482948685731E-10  1.55637922226989E-02
 cg2d: Sum(rhs),rhsMax =   9.93534948756647E-10  1.55636223758530E-02
 cg2d: Sum(rhs),rhsMax =   9.93595719589457E-10  1.55634542644083E-02
 cg2d: Sum(rhs),rhsMax =   9.93637339075093E-10  1.55632878394877E-02
 cg2d: Sum(rhs),rhsMax =   9.93682941485829E-10  1.55631230449677E-02
 cg2d: Sum(rhs),rhsMax =   9.93747417687985E-10  1.55629598140076E-02
 cg2d: Sum(rhs),rhsMax =   9.93818013994563E-10  1.55627980761227E-02
 cg2d: Sum(rhs),rhsMax =   9.93882476318930E-10  1.55626377464441E-02
 cg2d: Sum(rhs),rhsMax =   9.93936405402351E-10  1.55624787344619E-02
 cg2d: Sum(rhs),rhsMax =   9.93995913356471E-10  1.55623209402680E-02
 cg2d: Sum(rhs),rhsMax =   9.94053311886844E-10  1.55621642596326E-02
 cg2d: Sum(rhs),rhsMax =   9.94107254848053E-10  1.55620085788868E-02
 cg2d: Sum(rhs),rhsMax =   9.94150928246285E-10  1.55618537773588E-02
 cg2d: Sum(rhs),rhsMax =   9.94205495707945E-10  1.55616997271363E-02
 cg2d: Sum(rhs),rhsMax =   9.94265836329333E-10  1.55615462942529E-02
 cg2d: Sum(rhs),rhsMax =   9.94314519608963E-10  1.55613933381216E-02
 cg2d: Sum(rhs),rhsMax =   9.94370835671887E-10  1.55612407149730E-02
 cg2d: Sum(rhs),rhsMax =   9.94421434086235E-10  1.55610882721056E-02
 cg2d: Sum(rhs),rhsMax =   9.94459264935799E-10  1.55609358573210E-02
 cg2d: Sum(rhs),rhsMax =   9.94499524398229E-10  1.55607833115247E-02
 cg2d: Sum(rhs),rhsMax =   9.94560531153432E-10  1.55606304740046E-02
 cg2d: Sum(rhs),rhsMax =   9.94628476802539E-10  1.55604771817664E-02
 cg2d: Sum(rhs),rhsMax =   9.94679075216887E-10  1.55603232731613E-02
 cg2d: Sum(rhs),rhsMax =   9.94726606640128E-10  1.55601685817543E-02
 cg2d: Sum(rhs),rhsMax =   9.94771653939353E-10  1.55600129457566E-02
 cg2d: Sum(rhs),rhsMax =   9.94823973199388E-10  1.55598562021551E-02
 cg2d: Sum(rhs),rhsMax =   9.94888879612965E-10  1.55596981900001E-02
 cg2d: Sum(rhs),rhsMax =   9.94931872999594E-10  1.55595387542283E-02
 cg2d: Sum(rhs),rhsMax =   9.94980056678862E-10  1.55593777404262E-02
 cg2d: Sum(rhs),rhsMax =   9.95029100780975E-10  1.55592150019111E-02
 cg2d: Sum(rhs),rhsMax =   9.95089302624486E-10  1.55590503961329E-02
 cg2d: Sum(rhs),rhsMax =   9.95146257065649E-10  1.55588837870400E-02
 cg2d: Sum(rhs),rhsMax =   9.95198520814533E-10  1.55587150452567E-02
 cg2d: Sum(rhs),rhsMax =   9.95252991131679E-10  1.55585440508132E-02
 cg2d: Sum(rhs),rhsMax =   9.95299620498713E-10  1.55583706913529E-02
 cg2d: Sum(rhs),rhsMax =   9.95348067855950E-10  1.55581948665401E-02
 cg2d: Sum(rhs),rhsMax =   9.95401261416617E-10  1.55580164821829E-02
 cg2d: Sum(rhs),rhsMax =   9.95460672226223E-10  1.55578354570132E-02
 cg2d: Sum(rhs),rhsMax =   9.95506663215018E-10  1.55576517191107E-02
 cg2d: Sum(rhs),rhsMax =   9.95562590699883E-10  1.55574652120331E-02
 cg2d: Sum(rhs),rhsMax =   9.95605362041907E-10  1.55572758867729E-02
 cg2d: Sum(rhs),rhsMax =   9.95653254287632E-10  1.55570837095050E-02
 cg2d: Sum(rhs),rhsMax =   9.95699259154215E-10  1.55568886572232E-02
 cg2d: Sum(rhs),rhsMax =   9.95753673960209E-10  1.55566907212445E-02
 cg2d: Sum(rhs),rhsMax =   9.95802676428958E-10  1.55564899032245E-02
 cg2d: Sum(rhs),rhsMax =   9.95860588437480E-10  1.55562862201984E-02
 cg2d: Sum(rhs),rhsMax =   9.95923149504918E-10  1.55560797003075E-02
 cg2d: Sum(rhs),rhsMax =   9.95967308625723E-10  1.55558703843465E-02
 cg2d: Sum(rhs),rhsMax =   9.96025983912574E-10  1.55556583261884E-02
 cg2d: Sum(rhs),rhsMax =   9.96084964510757E-10  1.55554435899732E-02
 cg2d: Sum(rhs),rhsMax =   9.96133522890297E-10  1.55552262554398E-02
 cg2d: Sum(rhs),rhsMax =   9.96180360424148E-10  1.55550064098037E-02
 cg2d: Sum(rhs),rhsMax =   9.96245017037545E-10  1.55547841508362E-02
 cg2d: Sum(rhs),rhsMax =   9.96298321620515E-10  1.55545595888878E-02
 cg2d: Sum(rhs),rhsMax =   9.96332932823307E-10  1.55543328428906E-02
 cg2d: Sum(rhs),rhsMax =   9.96385293716706E-10  1.55541040387216E-02
 cg2d: Sum(rhs),rhsMax =   9.96454599389018E-10  1.55538733121380E-02
 cg2d: Sum(rhs),rhsMax =   9.96506155370724E-10  1.55536408055190E-02
 cg2d: Sum(rhs),rhsMax =   9.96568466637981E-10  1.55534066668314E-02
 cg2d: Sum(rhs),rhsMax =   9.96635926564515E-10  1.55531710509162E-02
 cg2d: Sum(rhs),rhsMax =   9.96702276268024E-10  1.55529341143531E-02
 cg2d: Sum(rhs),rhsMax =   9.96768181882324E-10  1.55526960195891E-02
 cg2d: Sum(rhs),rhsMax =   9.96821167276174E-10  1.55524569312362E-02
 cg2d: Sum(rhs),rhsMax =   9.96869475855533E-10  1.55522170130114E-02
 cg2d: Sum(rhs),rhsMax =   9.96946511455654E-10  1.55519764294864E-02
 cg2d: Sum(rhs),rhsMax =   9.97005408787111E-10  1.55517353462214E-02
 cg2d: Sum(rhs),rhsMax =   9.97071245012471E-10  1.55514939256622E-02
 cg2d: Sum(rhs),rhsMax =   9.97124841028985E-10  1.55512523267934E-02
 cg2d: Sum(rhs),rhsMax =   9.97179616657462E-10  1.55510107055647E-02
 cg2d: Sum(rhs),rhsMax =   9.97241178524177E-10  1.55507692126164E-02
 cg2d: Sum(rhs),rhsMax =   9.97304169803037E-10  1.55505279907497E-02
 cg2d: Sum(rhs),rhsMax =   9.97363344690250E-10  1.55502871815060E-02
 cg2d: Sum(rhs),rhsMax =   9.97417898274122E-10  1.55500469110030E-02
 cg2d: Sum(rhs),rhsMax =   9.97483831643997E-10  1.55498073022091E-02
 cg2d: Sum(rhs),rhsMax =   9.97533541879925E-10  1.55495684655300E-02
 cg2d: Sum(rhs),rhsMax =   9.97598323393412E-10  1.55493305015510E-02
 cg2d: Sum(rhs),rhsMax =   9.97653390455433E-10  1.55490935024501E-02
 cg2d: Sum(rhs),rhsMax =   9.97701310456733E-10  1.55488575451383E-02
 cg2d: Sum(rhs),rhsMax =   9.97764329491169E-10  1.55486226973568E-02
 cg2d: Sum(rhs),rhsMax =   9.97825655435491E-10  1.55483890116430E-02
 cg2d: Sum(rhs),rhsMax =   9.97895224785772E-10  1.55481565279715E-02
 cg2d: Sum(rhs),rhsMax =   9.97939328395425E-10  1.55479252750141E-02
 cg2d: Sum(rhs),rhsMax =   9.97998336749184E-10  1.55476952654259E-02
 cg2d: Sum(rhs),rhsMax =   9.98047727795992E-10  1.55474664993785E-02
 cg2d: Sum(rhs),rhsMax =   9.98115007311284E-10  1.55472389618341E-02
 cg2d: Sum(rhs),rhsMax =   9.98175750388519E-10  1.55470126260749E-02
 cg2d: Sum(rhs),rhsMax =   9.98245028305256E-10  1.55467874487829E-02
 cg2d: Sum(rhs),rhsMax =   9.98308977151474E-10  1.55465633761103E-02
 cg2d: Sum(rhs),rhsMax =   9.98364488302705E-10  1.55463403396707E-02
 cg2d: Sum(rhs),rhsMax =   9.98427590603868E-10  1.55461182573071E-02
 cg2d: Sum(rhs),rhsMax =   9.98496757498302E-10  1.55458970347779E-02
 cg2d: Sum(rhs),rhsMax =   9.98553628672738E-10  1.55456765686543E-02
 cg2d: Sum(rhs),rhsMax =   9.98605365065686E-10  1.55454567400664E-02
 cg2d: Sum(rhs),rhsMax =   9.98661639495246E-10  1.55452374229386E-02
 cg2d: Sum(rhs),rhsMax =   9.98730959045346E-10  1.55450184786865E-02
 cg2d: Sum(rhs),rhsMax =   9.98780738670213E-10  1.55447997627086E-02
 cg2d: Sum(rhs),rhsMax =   9.98843854849163E-10  1.55445811206333E-02
 cg2d: Sum(rhs),rhsMax =   9.98890345438319E-10  1.55443623915128E-02
 cg2d: Sum(rhs),rhsMax =   9.98947605190814E-10  1.55441434071070E-02
 cg2d: Sum(rhs),rhsMax =   9.99000451806786E-10  1.55439239951313E-02
 cg2d: Sum(rhs),rhsMax =   9.99050314698380E-10  1.55437039803638E-02
 cg2d: Sum(rhs),rhsMax =   9.99095917109116E-10  1.55434831829194E-02
 cg2d: Sum(rhs),rhsMax =   9.99143309754480E-10  1.55432614231492E-02
 cg2d: Sum(rhs),rhsMax =   9.99206231644401E-10  1.55430385182583E-02
 cg2d: Sum(rhs),rhsMax =   9.99265420409401E-10  1.55428142883491E-02
 cg2d: Sum(rhs),rhsMax =   9.99323818140496E-10  1.55425885565793E-02
 cg2d: Sum(rhs),rhsMax =   9.99385393884999E-10  1.55423611446302E-02
 cg2d: Sum(rhs),rhsMax =   9.99439961346660E-10  1.55421318807500E-02
 cg2d: Sum(rhs),rhsMax =   9.99502799969854E-10  1.55419006006039E-02
 cg2d: Sum(rhs),rhsMax =   9.99559629510927E-10  1.55416671420304E-02
 cg2d: Sum(rhs),rhsMax =   9.99609173213400E-10  1.55414313528195E-02
 cg2d: Sum(rhs),rhsMax =   9.99668278711674E-10  1.55411930861420E-02
 cg2d: Sum(rhs),rhsMax =   9.99733018591797E-10  1.55409522067013E-02
 cg2d: Sum(rhs),rhsMax =   9.99794663725240E-10  1.55407085881695E-02
 cg2d: Sum(rhs),rhsMax =   9.99860458317237E-10  1.55404621187084E-02
 cg2d: Sum(rhs),rhsMax =   9.99922478150950E-10  1.55402126957785E-02
 cg2d: Sum(rhs),rhsMax =   9.99980917515408E-10  1.55399602317951E-02
 cg2d: Sum(rhs),rhsMax =   1.00003944014659E-09  1.55397046510592E-02
 cg2d: Sum(rhs),rhsMax =   1.00009536763146E-09  1.55394458978751E-02
 cg2d: Sum(rhs),rhsMax =   1.00015161430544E-09  1.55391839214327E-02
 cg2d: Sum(rhs),rhsMax =   1.00020321192051E-09  1.55389186961064E-02
 cg2d: Sum(rhs),rhsMax =   1.00026549543220E-09  1.55386502071550E-02
 cg2d: Sum(rhs),rhsMax =   1.00032414296347E-09  1.55383784572613E-02
(PID.TID 0000.0001)      cg2d_init_res =   7.90059790654318E-05
(PID.TID 0000.0001)      cg2d_iters(min,last) =      -1      38
(PID.TID 0000.0001)      cg2d_last_res =   7.44457140892818E-14
(PID.TID 0000.0001) // =======================================================
(PID.TID 0000.0001) // Begin MONITOR dynamic field statistics
(PID.TID 0000.0001) // =======================================================
(PID.TID 0000.0001) %MON time_tsnumber                =                 22464
(PID.TID 0000.0001) %MON time_secondsf                =   5.6160000000000E+05
(PID.TID 0000.0001) %MON dynstat_eta_max              =   4.9406268615934E-03
(PID.TID 0000.0001) %MON dynstat_eta_min              =  -2.4563528711443E-03
(PID.TID 0000.0001) %MON dynstat_eta_mean             =  -1.0408969462234E-13
(PID.TID 0000.0001) %MON dynstat_eta_sd               =   2.4999706263749E-03
(PID.TID 0000.0001) %MON dynstat_eta_del2             =   2.0503620599279E-05
(PID.TID 0000.0001) %MON dynstat_uvel_max             =   4.4777536057625E-02
(PID.TID 0000.0001) %MON dynstat_uvel_min             =  -4.3687008519055E-02
(PID.TID 0000.0001) %MON dynstat_uvel_mean            =   6.1745473807753E-09
(PID.TID 0000.0001) %MON dynstat_uvel_sd              =   6.5554815628217E-03
(PID.TID 0000.0001) %MON dynstat_uvel_del2            =   1.0160754987545E-04
(PID.TID 0000.0001) %MON dynstat_vvel_max             =   2.3159644999219E-02
(PID.TID 0000.0001) %MON dynstat_vvel_min             =  -3.3527126565973E-02
(PID.TID 0000.0001) %MON dynstat_vvel_mean            =  -8.0919745450902E-03
(PID.TID 0000.0001) %MON dynstat_vvel_sd              =   1.1548584406667E-02
(PID.TID 0000.0001) %MON dynstat_vvel_del2            =   9.1131773577589E-05
(PID.TID 0000.0001) %MON dynstat_wvel_max             =   1.3684183720846E-03
(PID.TID 0000.0001) %MON dynstat_wvel_min             =  -1.1047055223980E-03
(PID.TID 0000.0001) %MON dynstat_wvel_mean            =   9.9901805240338E-21
(PID.TID 0000.0001) %MON dynstat_wvel_sd              =   1.2542717420206E-04
(PID.TID 0000.0001) %MON dynstat_wvel_del2            =   6.4007979139950E-06
(PID.TID 0000.0001) %MON dynstat_theta_max            =   2.6931451612903E+00
(PID.TID 0000.0001) %MON dynstat_theta_min            =  -6.6218529003018E-01
(PID.TID 0000.0001) %MON dynstat_theta_mean           =   2.2217720570557E+00
(PID.TID 0000.0001) %MON dynstat_theta_sd             =   5.2501349092265E-01
(PID.TID 0000.0001) %MON dynstat_theta_del2           =   1.6172759800373E-03
(PID.TID 0000.0001) %MON dynstat_salt_max             =   3.4699999999999E+01
(PID.TID 0000.0001) %MON dynstat_salt_min             =   3.3037882823581E+01
(PID.TID 0000.0001) %MON dynstat_salt_mean            =   3.4364050730890E+01
(PID.TID 0000.0001) %MON dynstat_salt_sd              =   3.2238832320792E-01
(PID.TID 0000.0001) %MON dynstat_salt_del2            =   1.9283785930598E-04
(PID.TID 0000.0001) %MON advcfl_uvel_max              =   2.2388768028812E-03
(PID.TID 0000.0001) %MON advcfl_vvel_max              =   1.6763563282986E-03
(PID.TID 0000.0001) %MON advcfl_wvel_max              =   6.6078287212038E-04
(PID.TID 0000.0001) %MON advcfl_W_hf_max              =   1.4093935055545E-03
(PID.TID 0000.0001) %MON pe_b_mean                    =   5.2145217616726E-08
(PID.TID 0000.0001) %MON ke_max                       =   9.2224439250880E-04
(PID.TID 0000.0001) %MON ke_mean                      =   1.1094941664821E-04
(PID.TID 0000.0001) %MON ke_vol                       =   3.2921708585402E+10
(PID.TID 0000.0001) // =======================================================
(PID.TID 0000.0001) // End MONITOR dynamic field statistics
(PID.TID 0000.0001) // =======================================================
(PID.TID 0000.0001) // =======================================================
(PID.TID 0000.0001) // Begin OBCS MONITOR field statistics
(PID.TID 0000.0001) // =======================================================
(PID.TID 0000.0001) %MON obc_E_uVel_max               =   0.0000000000000E+00
(PID.TID 0000.0001) %MON obc_E_uVel_min               =   0.0000000000000E+00
(PID.TID 0000.0001) %MON obc_E_uVel_mean              =   0.0000000000000E+00
(PID.TID 0000.0001) %MON obc_E_uVel_sd                =   0.0000000000000E+00
(PID.TID 0000.0001) %MON obc_E_uVel_Int               =   0.0000000000000E+00
(PID.TID 0000.0001) %MON obc_N_vVel_max               =  -3.6115799844846E-05
(PID.TID 0000.0001) %MON obc_N_vVel_min               =  -3.0000000000000E-02
(PID.TID 0000.0001) %MON obc_N_vVel_mean              =  -1.3225455303334E-02
(PID.TID 0000.0001) %MON obc_N_vVel_sd                =   1.1350864292742E-02
(PID.TID 0000.0001) %MON obc_N_vVel_Int               =  -5.9514548865004E+04
(PID.TID 0000.0001) %MON obc_S_vVel_max               =  -3.6115799844846E-05
(PID.TID 0000.0001) %MON obc_S_vVel_min               =  -3.0000000000000E-02
(PID.TID 0000.0001) %MON obc_S_vVel_mean              =  -1.3225455303334E-02
(PID.TID 0000.0001) %MON obc_S_vVel_sd                =   1.1350864292742E-02
(PID.TID 0000.0001) %MON obc_S_vVel_Int               =  -5.9514548865004E+04
(PID.TID 0000.0001) // =======================================================
(PID.TID 0000.0001) // End OBCS MONITOR field statistics
(PID.TID 0000.0001) // =======================================================
 Computing Diagnostic #    26 "THETA   " (list#  1) Parms "SMR     MR      ", Count=     144
 Computing Diagnostic #    27 "SALT    " (list#  1) Parms "SMR     MR      ", Count=     144
 Computing Diagnostic #    30 "UVEL    " (list#  1) Parms "UUR     MR      ", Count=     144
             Vector  Mate for "UVEL    " :  Diagnostic #     31 "VVEL    " exists
 Computing Diagnostic #    32 "WVEL    " (list#  1) Parms "WM      LR      ", Count=     144
 Computing Diagnostic #    31 "VVEL    " (list#  1) Parms "VVR     MR      ", Count=     144
             Vector  Mate for "VVEL    " :  Diagnostic #     30 "UVEL    " exists
 Computing Diagnostic #   197 "BRGfwFlx" (list#  2) Parms "SM      MR      ", Count=     144
 Computing Diagnostic #   198 "BRGhtFlx" (list#  2) Parms "SM      MR      ", Count=     144
 Computing Diagnostic #   199 "BRGmltRt" (list#  2) Parms "SM      MR      ", Count=     144
 Computing Diagnostic #   201 "BRG_TauX" (list#  2) Parms "UU      MR      ", Count=    1728
 Computing Diagnostic #   202 "BRG_TauY" (list#  2) Parms "VV      MR      ", Count=    1728
 Computing Diagnostic #   203 "BRGhFacC" (list#  2) Parms "SM      MR      ", Count=    1728
 cg2d: Sum(rhs),rhsMax =   1.00037289563204E-09  1.55381034642618E-02
 cg2d: Sum(rhs),rhsMax =   1.00043993922494E-09  1.55378252631956E-02
 cg2d: Sum(rhs),rhsMax =   1.00050430440479E-09  1.55375439046819E-02
 cg2d: Sum(rhs),rhsMax =   1.00056127272374E-09  1.55372594561986E-02
 cg2d: Sum(rhs),rhsMax =   1.00062838570558E-09  1.55369720018447E-02
 cg2d: Sum(rhs),rhsMax =   1.00068761610395E-09  1.55366816379714E-02
 cg2d: Sum(rhs),rhsMax =   1.00075484010809E-09  1.55363884794261E-02
 cg2d: Sum(rhs),rhsMax =   1.00081402887309E-09  1.55360926556840E-02
 cg2d: Sum(rhs),rhsMax =   1.00085520426951E-09  1.55357943083230E-02
 cg2d: Sum(rhs),rhsMax =   1.00093187904715E-09  1.55354935931975E-02
 cg2d: Sum(rhs),rhsMax =   1.00100239208700E-09  1.55351906804505E-02
 cg2d: Sum(rhs),rhsMax =   1.00106838096803E-09  1.55348857476943E-02
 cg2d: Sum(rhs),rhsMax =   1.00113194123619E-09  1.55345789886663E-02
 cg2d: Sum(rhs),rhsMax =   1.00119684764977E-09  1.55342706036932E-02
 cg2d: Sum(rhs),rhsMax =   1.00126630597774E-09  1.55339608026657E-02
 cg2d: Sum(rhs),rhsMax =   1.00131535007986E-09  1.55336498035416E-02
 cg2d: Sum(rhs),rhsMax =   1.00136990366373E-09  1.55333378315886E-02
 cg2d: Sum(rhs),rhsMax =   1.00143275616471E-09  1.55330251140713E-02
 cg2d: Sum(rhs),rhsMax =   1.00149810666750E-09  1.55327118873076E-02
 cg2d: Sum(rhs),rhsMax =   1.00155375659661E-09  1.55323983862356E-02
 cg2d: Sum(rhs),rhsMax =   1.00162561578188E-09  1.55320848520837E-02
 cg2d: Sum(rhs),rhsMax =   1.00168140448886E-09  1.55317715212401E-02
 cg2d: Sum(rhs),rhsMax =   1.00173920547508E-09  1.55314586343649E-02
 cg2d: Sum(rhs),rhsMax =   1.00180677642392E-09  1.55311464248533E-02
 cg2d: Sum(rhs),rhsMax =   1.00187703966359E-09  1.55308351252839E-02
 cg2d: Sum(rhs),rhsMax =   1.00194605390236E-09  1.55305249635880E-02
 cg2d: Sum(rhs),rhsMax =   1.00200989172627E-09  1.55302161603612E-02
 cg2d: Sum(rhs),rhsMax =   1.00207335484992E-09  1.55299089285329E-02
 cg2d: Sum(rhs),rhsMax =   1.00213388976034E-09  1.55296034769229E-02
 cg2d: Sum(rhs),rhsMax =   1.00221127230515E-09  1.55293000000456E-02
 cg2d: Sum(rhs),rhsMax =   1.00227724730839E-09  1.55289986826546E-02
 cg2d: Sum(rhs),rhsMax =   1.00234290312251E-09  1.55286996989257E-02
 cg2d: Sum(rhs),rhsMax =   1.00240654665740E-09  1.55284032094540E-02
 cg2d: Sum(rhs),rhsMax =   1.00246309864271E-09  1.55281093627453E-02
 cg2d: Sum(rhs),rhsMax =   1.00252835200099E-09  1.55278182912425E-02
 cg2d: Sum(rhs),rhsMax =   1.00260312552169E-09  1.55275301117361E-02
 cg2d: Sum(rhs),rhsMax =   1.00268050806651E-09  1.55272449285896E-02
 cg2d: Sum(rhs),rhsMax =   1.00274143155499E-09  1.55269628284631E-02
 cg2d: Sum(rhs),rhsMax =   1.00279907988554E-09  1.55266838807081E-02
 cg2d: Sum(rhs),rhsMax =   1.00285649229370E-09  1.55264081372896E-02
 cg2d: Sum(rhs),rhsMax =   1.00291276672326E-09  1.55261356335452E-02
 cg2d: Sum(rhs),rhsMax =   1.00298250260700E-09  1.55258663879270E-02
 cg2d: Sum(rhs),rhsMax =   1.00304120564942E-09  1.55256003986577E-02
 cg2d: Sum(rhs),rhsMax =   1.00309609230020E-09  1.55253376495370E-02
 cg2d: Sum(rhs),rhsMax =   1.00314881401609E-09  1.55250781059799E-02
 cg2d: Sum(rhs),rhsMax =   1.00319623441703E-09  1.55248217142651E-02
 cg2d: Sum(rhs),rhsMax =   1.00325359131404E-09  1.55245684067378E-02
 cg2d: Sum(rhs),rhsMax =   1.00331067065529E-09  1.55243180979523E-02
 cg2d: Sum(rhs),rhsMax =   1.00336210173690E-09  1.55240706870253E-02
 cg2d: Sum(rhs),rhsMax =   1.00342568976064E-09  1.55238260566742E-02
 cg2d: Sum(rhs),rhsMax =   1.00348900022862E-09  1.55235840758028E-02
 cg2d: Sum(rhs),rhsMax =   1.00353736431913E-09  1.55233446006659E-02
 cg2d: Sum(rhs),rhsMax =   1.00358808763357E-09  1.55231074723591E-02
 cg2d: Sum(rhs),rhsMax =   1.00365527000434E-09  1.55228725197487E-02
 cg2d: Sum(rhs),rhsMax =   1.00371276567923E-09  1.55226395649433E-02
 cg2d: Sum(rhs),rhsMax =   1.00375280309706E-09  1.55224084136960E-02
 cg2d: Sum(rhs),rhsMax =   1.00381190859533E-09  1.55221788676090E-02
 cg2d: Sum(rhs),rhsMax =   1.00387022305970E-09  1.55219507166934E-02
 cg2d: Sum(rhs),rhsMax =   1.00391411850254E-09  1.55217237496987E-02
 cg2d: Sum(rhs),rhsMax =   1.00396994884289E-09  1.55214977448126E-02
 cg2d: Sum(rhs),rhsMax =   1.00401623126523E-09  1.55212724804181E-02
 cg2d: Sum(rhs),rhsMax =   1.00407862579921E-09  1.55210477275385E-02
 cg2d: Sum(rhs),rhsMax =   1.00412608783351E-09  1.55208232610507E-02
 cg2d: Sum(rhs),rhsMax =   1.00418015569481E-09  1.55205988509256E-02
 cg2d: Sum(rhs),rhsMax =   1.00423917792636E-09  1.55203742690840E-02
 cg2d: Sum(rhs),rhsMax =   1.00429224658694E-09  1.55201492940325E-02
 cg2d: Sum(rhs),rhsMax =   1.00434396910210E-09  1.55199237038026E-02
 cg2d: Sum(rhs),rhsMax =   1.00439823125242E-09  1.55196972823611E-02
 cg2d: Sum(rhs),rhsMax =   1.00445041173458E-09  1.55194698191602E-02
 cg2d: Sum(rhs),rhsMax =   1.00452192397515E-09  1.55192411128912E-02
 cg2d: Sum(rhs),rhsMax =   1.00458034946183E-09  1.55190109684579E-02
 cg2d: Sum(rhs),rhsMax =   1.00463985741595E-09  1.55187792017803E-02
 cg2d: Sum(rhs),rhsMax =   1.00468763863937E-09  1.55185456399939E-02
 cg2d: Sum(rhs),rhsMax =   1.00473890318753E-09  1.55183101198736E-02
 cg2d: Sum(rhs),rhsMax =   1.00478030062856E-09  1.55180724894134E-02
 cg2d: Sum(rhs),rhsMax =   1.00485123000205E-09  1.55178326131685E-02
 cg2d: Sum(rhs),rhsMax =   1.00491179266804E-09  1.55175903687070E-02
 cg2d: Sum(rhs),rhsMax =   1.00496398702798E-09  1.55173456461067E-02
 cg2d: Sum(rhs),rhsMax =   1.00503289024445E-09  1.55170983535798E-02
 cg2d: Sum(rhs),rhsMax =   1.00509675582394E-09  1.55168484125237E-02
 cg2d: Sum(rhs),rhsMax =   1.00514976897337E-09  1.55165957594288E-02
 cg2d: Sum(rhs),rhsMax =   1.00520079759914E-09  1.55163403517676E-02
 cg2d: Sum(rhs),rhsMax =   1.00526609259077E-09  1.55160821574174E-02
 cg2d: Sum(rhs),rhsMax =   1.00533274760561E-09  1.55158211654996E-02
 cg2d: Sum(rhs),rhsMax =   1.00539283842682E-09  1.55155573795031E-02
 cg2d: Sum(rhs),rhsMax =   1.00545119452455E-09  1.55152908183729E-02
 cg2d: Sum(rhs),rhsMax =   1.00552144388644E-09  1.55150215176820E-02
 cg2d: Sum(rhs),rhsMax =   1.00558066040701E-09  1.55147495347377E-02
 cg2d: Sum(rhs),rhsMax =   1.00564619132104E-09  1.55144749384983E-02
 cg2d: Sum(rhs),rhsMax =   1.00570855809945E-09  1.55141978079154E-02
 cg2d: Sum(rhs),rhsMax =   1.00575925365831E-09  1.55139182379506E-02
 cg2d: Sum(rhs),rhsMax =   1.00582218942602E-09  1.55136363422408E-02
 cg2d: Sum(rhs),rhsMax =   1.00588057327933E-09  1.55133522482335E-02
 cg2d: Sum(rhs),rhsMax =   1.00594123308984E-09  1.55130660907370E-02
 cg2d: Sum(rhs),rhsMax =   1.00600945629470E-09  1.55127780189707E-02
 cg2d: Sum(rhs),rhsMax =   1.00607655539875E-09  1.55124881902185E-02
 cg2d: Sum(rhs),rhsMax =   1.00614504228158E-09  1.55121967749224E-02
 cg2d: Sum(rhs),rhsMax =   1.00620366205728E-09  1.55119039479478E-02
 cg2d: Sum(rhs),rhsMax =   1.00625337229321E-09  1.55116098939992E-02
 cg2d: Sum(rhs),rhsMax =   1.00632788213595E-09  1.55113148025565E-02
 cg2d: Sum(rhs),rhsMax =   1.00639670208569E-09  1.55110188821507E-02
 cg2d: Sum(rhs),rhsMax =   1.00646353751177E-09  1.55107223368861E-02
 cg2d: Sum(rhs),rhsMax =   1.00652849943650E-09  1.55104253692809E-02
 cg2d: Sum(rhs),rhsMax =   1.00659618140764E-09  1.55101281828988E-02
 cg2d: Sum(rhs),rhsMax =   1.00666028290952E-09  1.55098309828796E-02
 cg2d: Sum(rhs),rhsMax =   1.00671578018297E-09  1.55095339724100E-02
 cg2d: Sum(rhs),rhsMax =   1.00677571834851E-09  1.55092373535649E-02
 cg2d: Sum(rhs),rhsMax =   1.00684742487811E-09  1.55089413231423E-02
 cg2d: Sum(rhs),rhsMax =   1.00690690507665E-09  1.55086460747493E-02
 cg2d: Sum(rhs),rhsMax =   1.00696048721538E-09  1.55083517973017E-02
 cg2d: Sum(rhs),rhsMax =   1.00701383343171E-09  1.55080586736010E-02
 cg2d: Sum(rhs),rhsMax =   1.00707042705039E-09  1.55077668781180E-02
 cg2d: Sum(rhs),rhsMax =   1.00713078154957E-09  1.55074765777823E-02
 cg2d: Sum(rhs),rhsMax =   1.00720302931290E-09  1.55071879298441E-02
 cg2d: Sum(rhs),rhsMax =   1.00726707530363E-09  1.55069010807164E-02
 cg2d: Sum(rhs),rhsMax =   1.00734162677973E-09  1.55066161685232E-02
 cg2d: Sum(rhs),rhsMax =   1.00739892816559E-09  1.55063333191765E-02
 cg2d: Sum(rhs),rhsMax =   1.00745776998590E-09  1.55060526434863E-02
 cg2d: Sum(rhs),rhsMax =   1.00752123310954E-09  1.55057742436002E-02
 cg2d: Sum(rhs),rhsMax =   1.00759289800578E-09  1.55054982055830E-02
 cg2d: Sum(rhs),rhsMax =   1.00764314947543E-09  1.55052246046809E-02
 cg2d: Sum(rhs),rhsMax =   1.00771095634666E-09  1.55049534986955E-02
 cg2d: Sum(rhs),rhsMax =   1.00778112244182E-09  1.55046849393219E-02
 cg2d: Sum(rhs),rhsMax =   1.00784108836294E-09  1.55044189475359E-02
 cg2d: Sum(rhs),rhsMax =   1.00791670842870E-09  1.55041555461439E-02
 cg2d: Sum(rhs),rhsMax =   1.00797131752373E-09  1.55038947430913E-02
 cg2d: Sum(rhs),rhsMax =   1.00802917402110E-09  1.55036365238435E-02
 cg2d: Sum(rhs),rhsMax =   1.00809731395923E-09  1.55033808625696E-02
 cg2d: Sum(rhs),rhsMax =   1.00816521797498E-09  1.55031277224026E-02
 cg2d: Sum(rhs),rhsMax =   1.00821745396829E-09  1.55028770511285E-02
 cg2d: Sum(rhs),rhsMax =   1.00827024507311E-09  1.55026287856999E-02
 cg2d: Sum(rhs),rhsMax =   1.00831119842493E-09  1.55023828484573E-02
 cg2d: Sum(rhs),rhsMax =   1.00837284355837E-09  1.55021391518309E-02
 cg2d: Sum(rhs),rhsMax =   1.00843000616635E-09  1.55018975946351E-02
 cg2d: Sum(rhs),rhsMax =   1.00848371320517E-09  1.55016580703737E-02
 cg2d: Sum(rhs),rhsMax =   1.00855777895870E-09  1.55014204560697E-02
 cg2d: Sum(rhs),rhsMax =   1.00862006247038E-09  1.55011846261071E-02
 cg2d: Sum(rhs),rhsMax =   1.00867522667691E-09  1.55009504438908E-02
 cg2d: Sum(rhs),rhsMax =   1.00873338848562E-09  1.55007177677252E-02
 cg2d: Sum(rhs),rhsMax =   1.00879235520601E-09  1.55004864496140E-02
 cg2d: Sum(rhs),rhsMax =   1.00886735077133E-09  1.55002563352939E-02
 cg2d: Sum(rhs),rhsMax =   1.00893100818400E-09  1.55000272691009E-02
 cg2d: Sum(rhs),rhsMax =   1.00897759591767E-09  1.54997990875964E-02
 cg2d: Sum(rhs),rhsMax =   1.00903765898330E-09  1.54995716277830E-02
 Computing Diagnostic #    26 "THETA   " (list#  1) Parms "SMR     MR      ", Count=     144
 Computing Diagnostic #    27 "SALT    " (list#  1) Parms "SMR     MR      ", Count=     144
 Computing Diagnostic #    30 "UVEL    " (list#  1) Parms "UUR     MR      ", Count=     144
             Vector  Mate for "UVEL    " :  Diagnostic #     31 "VVEL    " exists
 Computing Diagnostic #    32 "WVEL    " (list#  1) Parms "WM      LR      ", Count=     144
 Computing Diagnostic #    31 "VVEL    " (list#  1) Parms "VVR     MR      ", Count=     144
             Vector  Mate for "VVEL    " :  Diagnostic #     30 "UVEL    " exists
 Computing Diagnostic #   197 "BRGfwFlx" (list#  2) Parms "SM      MR      ", Count=     144
 Computing Diagnostic #   198 "BRGhtFlx" (list#  2) Parms "SM      MR      ", Count=     144
 Computing Diagnostic #   199 "BRGmltRt" (list#  2) Parms "SM      MR      ", Count=     144
 Computing Diagnostic #   201 "BRG_TauX" (list#  2) Parms "UU      MR      ", Count=    1728
 Computing Diagnostic #   202 "BRG_TauY" (list#  2) Parms "VV      MR      ", Count=    1728
 Computing Diagnostic #   203 "BRGhFacC" (list#  2) Parms "SM      MR      ", Count=    1728
 cg2d: Sum(rhs),rhsMax =   1.00908964517643E-09  1.54993447282014E-02
 cg2d: Sum(rhs),rhsMax =   1.00914407386021E-09  1.54991182227158E-02
 cg2d: Sum(rhs),rhsMax =   1.00920653778314E-09  1.54988919493009E-02
 cg2d: Sum(rhs),rhsMax =   1.00926825230552E-09  1.54986657461093E-02
 cg2d: Sum(rhs),rhsMax =   1.00932597002501E-09  1.54984394547990E-02
 cg2d: Sum(rhs),rhsMax =   1.00937952440816E-09  1.54982129188628E-02
 cg2d: Sum(rhs),rhsMax =   1.00943539638187E-09  1.54979859918120E-02
 cg2d: Sum(rhs),rhsMax =   1.00950564574376E-09  1.54977585268392E-02
 cg2d: Sum(rhs),rhsMax =   1.00956860926704E-09  1.54975303879391E-02
 cg2d: Sum(rhs),rhsMax =   1.00961265736554E-09  1.54973014435346E-02
 cg2d: Sum(rhs),rhsMax =   1.00966825178350E-09  1.54970715711436E-02
 cg2d: Sum(rhs),rhsMax =   1.00972012695433E-09  1.54968406593866E-02
 cg2d: Sum(rhs),rhsMax =   1.00976457750868E-09  1.54966086025479E-02
 cg2d: Sum(rhs),rhsMax =   1.00982218420587E-09  1.54963753078307E-02
 cg2d: Sum(rhs),rhsMax =   1.00989094864445E-09  1.54961406906096E-02
 cg2d: Sum(rhs),rhsMax =   1.00995312113383E-09  1.54959046792169E-02
 cg2d: Sum(rhs),rhsMax =   1.01000455221545E-09  1.54956672135988E-02
 cg2d: Sum(rhs),rhsMax =   1.01006115971192E-09  1.54954282425116E-02
 cg2d: Sum(rhs),rhsMax =   1.01011615738500E-09  1.54951877314360E-02
 cg2d: Sum(rhs),rhsMax =   1.01017227915889E-09  1.54949456555097E-02
 cg2d: Sum(rhs),rhsMax =   1.01023224508001E-09  1.54947019999711E-02
 cg2d: Sum(rhs),rhsMax =   1.01030603327779E-09  1.54944567662037E-02
 cg2d: Sum(rhs),rhsMax =   1.01035889377155E-09  1.54942099665398E-02
 cg2d: Sum(rhs),rhsMax =   1.01042534061957E-09  1.54939616236160E-02
 cg2d: Sum(rhs),rhsMax =   1.01047178957536E-09  1.54937117748298E-02
 cg2d: Sum(rhs),rhsMax =   1.01054509205056E-09  1.54934604693807E-02
 cg2d: Sum(rhs),rhsMax =   1.01059177692875E-09  1.54932077649686E-02
 cg2d: Sum(rhs),rhsMax =   1.01065247837262E-09  1.54929537320366E-02
 cg2d: Sum(rhs),rhsMax =   1.01071596925184E-09  1.54926984533431E-02
 cg2d: Sum(rhs),rhsMax =   1.01078019565382E-09  1.54924420178899E-02
 cg2d: Sum(rhs),rhsMax =   1.01082915648920E-09  1.54921845266777E-02
 cg2d: Sum(rhs),rhsMax =   1.01090594228914E-09  1.54919260910600E-02
 cg2d: Sum(rhs),rhsMax =   1.01095322391220E-09  1.54916668252388E-02
 cg2d: Sum(rhs),rhsMax =   1.01101364780032E-09  1.54914068584631E-02
 cg2d: Sum(rhs),rhsMax =   1.01107047734139E-09  1.54911463178415E-02
 cg2d: Sum(rhs),rhsMax =   1.01113678541154E-09  1.54908853450058E-02
 cg2d: Sum(rhs),rhsMax =   1.01119469742006E-09  1.54906240794515E-02
 cg2d: Sum(rhs),rhsMax =   1.01124313089951E-09  1.54903626715085E-02
 cg2d: Sum(rhs),rhsMax =   1.01130627483403E-09  1.54901012687469E-02
 cg2d: Sum(rhs),rhsMax =   1.01136768404508E-09  1.54898400233136E-02
 cg2d: Sum(rhs),rhsMax =   1.01141471586796E-09  1.54895790932553E-02
 cg2d: Sum(rhs),rhsMax =   1.01148232845016E-09  1.54893186288778E-02
 cg2d: Sum(rhs),rhsMax =   1.01154183640428E-09  1.54890587885762E-02
 cg2d: Sum(rhs),rhsMax =   1.01159308707466E-09  1.54887997239286E-02
 cg2d: Sum(rhs),rhsMax =   1.01165995025632E-09  1.54885415867610E-02
 cg2d: Sum(rhs),rhsMax =   1.01172073496691E-09  1.54882845261965E-02
 cg2d: Sum(rhs),rhsMax =   1.01177166644817E-09  1.54880286871123E-02
 cg2d: Sum(rhs),rhsMax =   1.01183118828008E-09  1.54877742096892E-02
 cg2d: Sum(rhs),rhsMax =   1.01188250833939E-09  1.54875212273875E-02
 cg2d: Sum(rhs),rhsMax =   1.01194461143983E-09  1.54872698709718E-02
 cg2d: Sum(rhs),rhsMax =   1.01199154611820E-09  1.54870202609394E-02
 cg2d: Sum(rhs),rhsMax =   1.01205016589390E-09  1.54867725112875E-02
 cg2d: Sum(rhs),rhsMax =   1.01210760605763E-09  1.54865267274656E-02
 cg2d: Sum(rhs),rhsMax =   1.01215116843356E-09  1.54862830080308E-02
 cg2d: Sum(rhs),rhsMax =   1.01220558323956E-09  1.54860414402159E-02
 cg2d: Sum(rhs),rhsMax =   1.01227025373074E-09  1.54858021005797E-02
 cg2d: Sum(rhs),rhsMax =   1.01232006111118E-09  1.54855650571198E-02
 cg2d: Sum(rhs),rhsMax =   1.01238356586819E-09  1.54853303685112E-02
 cg2d: Sum(rhs),rhsMax =   1.01241934280516E-09  1.54850980790950E-02
 cg2d: Sum(rhs),rhsMax =   1.01246173944691E-09  1.54848682241002E-02
 cg2d: Sum(rhs),rhsMax =   1.01253204431995E-09  1.54846408280335E-02
 cg2d: Sum(rhs),rhsMax =   1.01258380846847E-09  1.54844158997553E-02
 cg2d: Sum(rhs),rhsMax =   1.01265057450561E-09  1.54841934424809E-02
 cg2d: Sum(rhs),rhsMax =   1.01270550278976E-09  1.54839734454996E-02
 cg2d: Sum(rhs),rhsMax =   1.01276750874568E-09  1.54837558831614E-02
 cg2d: Sum(rhs),rhsMax =   1.01282840447858E-09  1.54835407247898E-02
 cg2d: Sum(rhs),rhsMax =   1.01288077924977E-09  1.54833279214895E-02
 cg2d: Sum(rhs),rhsMax =   1.01294136967134E-09  1.54831174206434E-02
 cg2d: Sum(rhs),rhsMax =   1.01300214050415E-09  1.54829091524092E-02
 cg2d: Sum(rhs),rhsMax =   1.01305323851886E-09  1.54827030427143E-02
 cg2d: Sum(rhs),rhsMax =   1.01311044276020E-09  1.54824990044493E-02
 cg2d: Sum(rhs),rhsMax =   1.01316856293554E-09  1.54822969412081E-02
 cg2d: Sum(rhs),rhsMax =   1.01322425449801E-09  1.54820967470120E-02
 cg2d: Sum(rhs),rhsMax =   1.01329034052355E-09  1.54818983096784E-02
 cg2d: Sum(rhs),rhsMax =   1.01335381752499E-09  1.54817015074459E-02
 cg2d: Sum(rhs),rhsMax =   1.01341057767712E-09  1.54815062119511E-02
 cg2d: Sum(rhs),rhsMax =   1.01346701864014E-09  1.54813122904545E-02
 cg2d: Sum(rhs),rhsMax =   1.01353177239805E-09  1.54811195996518E-02
 cg2d: Sum(rhs),rhsMax =   1.01359678983393E-09  1.54809279955547E-02
 cg2d: Sum(rhs),rhsMax =   1.01365316140800E-09  1.54807373259900E-02
 cg2d: Sum(rhs),rhsMax =   1.01369855565192E-09  1.54805474395695E-02
 cg2d: Sum(rhs),rhsMax =   1.01375284555782E-09  1.54803581800212E-02
 cg2d: Sum(rhs),rhsMax =   1.01380588646283E-09  1.54801693894554E-02
 cg2d: Sum(rhs),rhsMax =   1.01385722039993E-09  1.54799809066789E-02
 cg2d: Sum(rhs),rhsMax =   1.01392111373499E-09  1.54797925704675E-02
 cg2d: Sum(rhs),rhsMax =   1.01398056617796E-09  1.54796042229366E-02
 cg2d: Sum(rhs),rhsMax =   1.01403746510798E-09  1.54794157024167E-02
 cg2d: Sum(rhs),rhsMax =   1.01409546038322E-09  1.54792268539404E-02
 cg2d: Sum(rhs),rhsMax =   1.01416522402253E-09  1.54790375175512E-02
 cg2d: Sum(rhs),rhsMax =   1.01422301113097E-09  1.54788475440498E-02
 cg2d: Sum(rhs),rhsMax =   1.01428676568815E-09  1.54786567832948E-02
 cg2d: Sum(rhs),rhsMax =   1.01433619836833E-09  1.54784650906580E-02
 cg2d: Sum(rhs),rhsMax =   1.01438892008421E-09  1.54782723251139E-02
 cg2d: Sum(rhs),rhsMax =   1.01444318223454E-09  1.54780783536929E-02
 cg2d: Sum(rhs),rhsMax =   1.01448288658545E-09  1.54778830474392E-02
 cg2d: Sum(rhs),rhsMax =   1.01453376255556E-09  1.54776862846491E-02
 cg2d: Sum(rhs),rhsMax =   1.01458043355596E-09  1.54774879484552E-02
 cg2d: Sum(rhs),rhsMax =   1.01463995538786E-09  1.54772879328047E-02
 cg2d: Sum(rhs),rhsMax =   1.01469674329557E-09  1.54770861357902E-02
 cg2d: Sum(rhs),rhsMax =   1.01475711167254E-09  1.54768824651526E-02
 cg2d: Sum(rhs),rhsMax =   1.01481249792368E-09  1.54766768375750E-02
 cg2d: Sum(rhs),rhsMax =   1.01488022152818E-09  1.54764691763573E-02
 cg2d: Sum(rhs),rhsMax =   1.01493230486582E-09  1.54762594121166E-02
 cg2d: Sum(rhs),rhsMax =   1.01498703886094E-09  1.54760474875701E-02
 cg2d: Sum(rhs),rhsMax =   1.01504911420580E-09  1.54758333529816E-02
 cg2d: Sum(rhs),rhsMax =   1.01510388983428E-09  1.54756169673037E-02
 cg2d: Sum(rhs),rhsMax =   1.01516356432185E-09  1.54753982950652E-02
 cg2d: Sum(rhs),rhsMax =   1.01522579232238E-09  1.54751773134759E-02
 cg2d: Sum(rhs),rhsMax =   1.01528194185185E-09  1.54749540069101E-02
 cg2d: Sum(rhs),rhsMax =   1.01534204655085E-09  1.54747283653104E-02
 cg2d: Sum(rhs),rhsMax =   1.01540778563169E-09  1.54745003932680E-02
 cg2d: Sum(rhs),rhsMax =   1.01545637176681E-09  1.54742700986136E-02
 cg2d: Sum(rhs),rhsMax =   1.01550572118025E-09  1.54740374945987E-02
 cg2d: Sum(rhs),rhsMax =   1.01555766574002E-09  1.54738025973770E-02
 cg2d: Sum(rhs),rhsMax =   1.01562998289229E-09  1.54735654484655E-02
 cg2d: Sum(rhs),rhsMax =   1.01569644361810E-09  1.54733260965698E-02
 cg2d: Sum(rhs),rhsMax =   1.01574704203244E-09  1.54730845680188E-02
 cg2d: Sum(rhs),rhsMax =   1.01579844535848E-09  1.54728409067000E-02
 cg2d: Sum(rhs),rhsMax =   1.01584612943739E-09  1.54725951738804E-02
 cg2d: Sum(rhs),rhsMax =   1.01591469958695E-09  1.54723474295727E-02
 cg2d: Sum(rhs),rhsMax =   1.01598593427177E-09  1.54720977424555E-02
 cg2d: Sum(rhs),rhsMax =   1.01604737123839E-09  1.54718461723937E-02
 cg2d: Sum(rhs),rhsMax =   1.01611404013102E-09  1.54715927848628E-02
 cg2d: Sum(rhs),rhsMax =   1.01617923797814E-09  1.54713376557780E-02
 cg2d: Sum(rhs),rhsMax =   1.01625188819732E-09  1.54710808621689E-02
 cg2d: Sum(rhs),rhsMax =   1.01631364435306E-09  1.54708224793809E-02
 cg2d: Sum(rhs),rhsMax =   1.01637910587815E-09  1.54705625872004E-02
 cg2d: Sum(rhs),rhsMax =   1.01645326877620E-09  1.54703012642395E-02
 cg2d: Sum(rhs),rhsMax =   1.01651441430928E-09  1.54700385921873E-02
 cg2d: Sum(rhs),rhsMax =   1.01658058360155E-09  1.54697746570599E-02
 cg2d: Sum(rhs),rhsMax =   1.01663022444853E-09  1.54695095274974E-02
 cg2d: Sum(rhs),rhsMax =   1.01669771213064E-09  1.54692432812227E-02
 cg2d: Sum(rhs),rhsMax =   1.01675866337470E-09  1.54689759939966E-02
 cg2d: Sum(rhs),rhsMax =   1.01682920417012E-09  1.54687077379705E-02
 cg2d: Sum(rhs),rhsMax =   1.01688960030266E-09  1.54684385912155E-02
 cg2d: Sum(rhs),rhsMax =   1.01694863641200E-09  1.54681686251833E-02
 cg2d: Sum(rhs),rhsMax =   1.01701087829031E-09  1.54678979011725E-02
 cg2d: Sum(rhs),rhsMax =   1.01707968436227E-09  1.54676264851785E-02
 cg2d: Sum(rhs),rhsMax =   1.01714242584094E-09  1.54673544345069E-02
 cg2d: Sum(rhs),rhsMax =   1.01721463197091E-09  1.54670818079287E-02
 cg2d: Sum(rhs),rhsMax =   1.01727333501334E-09  1.54668086551525E-02
 cg2d: Sum(rhs),rhsMax =   1.01733256541170E-09  1.54665350234103E-02
 cg2d: Sum(rhs),rhsMax =   1.01739190683237E-09  1.54662609569846E-02
 cg2d: Sum(rhs),rhsMax =   1.01746214231646E-09  1.54659864926981E-02
 Computing Diagnostic #    26 "THETA   " (list#  1) Parms "SMR     MR      ", Count=     144
 Computing Diagnostic #    27 "SALT    " (list#  1) Parms "SMR     MR      ", Count=     144
 Computing Diagnostic #    30 "UVEL    " (list#  1) Parms "UUR     MR      ", Count=     144
             Vector  Mate for "UVEL    " :  Diagnostic #     31 "VVEL    " exists
 Computing Diagnostic #    32 "WVEL    " (list#  1) Parms "WM      LR      ", Count=     144
 Computing Diagnostic #    31 "VVEL    " (list#  1) Parms "VVR     MR      ", Count=     144
             Vector  Mate for "VVEL    " :  Diagnostic #     30 "UVEL    " exists
 Computing Diagnostic #   197 "BRGfwFlx" (list#  2) Parms "SM      MR      ", Count=     144
 Computing Diagnostic #   198 "BRGhtFlx" (list#  2) Parms "SM      MR      ", Count=     144
 Computing Diagnostic #   199 "BRGmltRt" (list#  2) Parms "SM      MR      ", Count=     144
 Computing Diagnostic #   201 "BRG_TauX" (list#  2) Parms "UU      MR      ", Count=    1728
 Computing Diagnostic #   202 "BRG_TauY" (list#  2) Parms "VV      MR      ", Count=    1728
 Computing Diagnostic #   203 "BRGhFacC" (list#  2) Parms "SM      MR      ", Count=    1728
 cg2d: Sum(rhs),rhsMax =   1.01751530812155E-09  1.54657116674965E-02
 cg2d: Sum(rhs),rhsMax =   1.01758049209089E-09  1.54654365058886E-02
 cg2d: Sum(rhs),rhsMax =   1.01764403848126E-09  1.54651610370164E-02
 cg2d: Sum(rhs),rhsMax =   1.01770639138188E-09  1.54648852772986E-02
 cg2d: Sum(rhs),rhsMax =   1.01778044325762E-09  1.54646092446780E-02
 cg2d: Sum(rhs),rhsMax =   1.01785065098614E-09  1.54643329488321E-02
 cg2d: Sum(rhs),rhsMax =   1.01791848561295E-09  1.54640563943790E-02
 cg2d: Sum(rhs),rhsMax =   1.01797917317903E-09  1.54637795853868E-02
 cg2d: Sum(rhs),rhsMax =   1.01804062402344E-09  1.54635025187205E-02
 cg2d: Sum(rhs),rhsMax =   1.01810085362253E-09  1.54632251881746E-02
 cg2d: Sum(rhs),rhsMax =   1.01815479658374E-09  1.54629475827264E-02
 cg2d: Sum(rhs),rhsMax =   1.01822171527655E-09  1.54626696890126E-02
 cg2d: Sum(rhs),rhsMax =   1.01828598331188E-09  1.54623914885634E-02
 cg2d: Sum(rhs),rhsMax =   1.01835308241593E-09  1.54621129605658E-02
 cg2d: Sum(rhs),rhsMax =   1.01840608168757E-09  1.54618340801236E-02
 cg2d: Sum(rhs),rhsMax =   1.01847100197894E-09  1.54615548204284E-02
 cg2d: Sum(rhs),rhsMax =   1.01853275813468E-09  1.54612751538427E-02
 cg2d: Sum(rhs),rhsMax =   1.01859003176497E-09  1.54609950474031E-02
 cg2d: Sum(rhs),rhsMax =   1.01866608204215E-09  1.54607144676206E-02
 cg2d: Sum(rhs),rhsMax =   1.01873373625772E-09  1.54604333799580E-02
 cg2d: Sum(rhs),rhsMax =   1.01880201497373E-09  1.54601517481085E-02
 cg2d: Sum(rhs),rhsMax =   1.01885466730067E-09  1.54598695299080E-02
 cg2d: Sum(rhs),rhsMax =   1.01891974024770E-09  1.54595866826849E-02
 cg2d: Sum(rhs),rhsMax =   1.01898751936336E-09  1.54593031760265E-02
 cg2d: Sum(rhs),rhsMax =   1.01903567528705E-09  1.54590189765317E-02
 cg2d: Sum(rhs),rhsMax =   1.01909576610826E-09  1.54587340450827E-02
 cg2d: Sum(rhs),rhsMax =   1.01916618200359E-09  1.54584483408513E-02
 cg2d: Sum(rhs),rhsMax =   1.01921796002991E-09  1.54581618264599E-02
 cg2d: Sum(rhs),rhsMax =   1.01928697426867E-09  1.54578744629121E-02
 cg2d: Sum(rhs),rhsMax =   1.01935125618180E-09  1.54575862173383E-02
 cg2d: Sum(rhs),rhsMax =   1.01942200514404E-09  1.54572970541244E-02
 cg2d: Sum(rhs),rhsMax =   1.01949564068615E-09  1.54570069428925E-02
 cg2d: Sum(rhs),rhsMax =   1.01956421083571E-09  1.54567158520030E-02
 cg2d: Sum(rhs),rhsMax =   1.01961890319746E-09  1.54564237568544E-02
 cg2d: Sum(rhs),rhsMax =   1.01967295718097E-09  1.54561306292809E-02
 cg2d: Sum(rhs),rhsMax =   1.01974050037423E-09  1.54558364476148E-02
 cg2d: Sum(rhs),rhsMax =   1.01980517086542E-09  1.54555411893489E-02
 cg2d: Sum(rhs),rhsMax =   1.01984679035105E-09  1.54552448418039E-02
 cg2d: Sum(rhs),rhsMax =   1.01990395295903E-09  1.54549473843114E-02
 cg2d: Sum(rhs),rhsMax =   1.01997135737442E-09  1.54546488086774E-02
 cg2d: Sum(rhs),rhsMax =   1.02002450930172E-09  1.54543491066522E-02
 cg2d: Sum(rhs),rhsMax =   1.02008071434234E-09  1.54540482701469E-02
 cg2d: Sum(rhs),rhsMax =   1.02015391967303E-09  1.54537462988914E-02
 cg2d: Sum(rhs),rhsMax =   1.02021337211600E-09  1.54534431937278E-02
 cg2d: Sum(rhs),rhsMax =   1.02026974369007E-09  1.54531389570893E-02
 cg2d: Sum(rhs),rhsMax =   1.02033428928117E-09  1.54528335974645E-02
 cg2d: Sum(rhs),rhsMax =   1.02039440785795E-09  1.54525271251214E-02
 cg2d: Sum(rhs),rhsMax =   1.02046161798430E-09  1.54522195565096E-02
 cg2d: Sum(rhs),rhsMax =   1.02053074324537E-09  1.54519109069737E-02
 cg2d: Sum(rhs),rhsMax =   1.02058464457322E-09  1.54516011972929E-02
 cg2d: Sum(rhs),rhsMax =   1.02065433882359E-09  1.54512904514824E-02
 cg2d: Sum(rhs),rhsMax =   1.02071136265369E-09  1.54509786973359E-02
 cg2d: Sum(rhs),rhsMax =   1.02077946095847E-09  1.54506659640287E-02
 cg2d: Sum(rhs),rhsMax =   1.02083835828992E-09  1.54503522832523E-02
 cg2d: Sum(rhs),rhsMax =   1.02090716436187E-09  1.54500376920071E-02
 cg2d: Sum(rhs),rhsMax =   1.02096799070583E-09  1.54497222308280E-02
 cg2d: Sum(rhs),rhsMax =   1.02105481014636E-09  1.54494059412376E-02
 cg2d: Sum(rhs),rhsMax =   1.02110332689254E-09  1.54490888663884E-02
 cg2d: Sum(rhs),rhsMax =   1.02116232136851E-09  1.54487710514727E-02
 cg2d: Sum(rhs),rhsMax =   1.02122896250556E-09  1.54484525461029E-02
 cg2d: Sum(rhs),rhsMax =   1.02129352197444E-09  1.54481334003170E-02
 cg2d: Sum(rhs),rhsMax =   1.02135355728450E-09  1.54478136671677E-02
 cg2d: Sum(rhs),rhsMax =   1.02142908020575E-09  1.54474934025158E-02
 cg2d: Sum(rhs),rhsMax =   1.02149212699576E-09  1.54471726638313E-02
 cg2d: Sum(rhs),rhsMax =   1.02156530457087E-09  1.54468515078073E-02
 cg2d: Sum(rhs),rhsMax =   1.02162489579172E-09  1.54465299988996E-02
 cg2d: Sum(rhs),rhsMax =   1.02169452065315E-09  1.54462081967130E-02
 cg2d: Sum(rhs),rhsMax =   1.02175033711571E-09  1.54458861649443E-02
 cg2d: Sum(rhs),rhsMax =   1.02181596517426E-09  1.54455639698370E-02
 cg2d: Sum(rhs),rhsMax =   1.02187378003826E-09  1.54452416765681E-02
 cg2d: Sum(rhs),rhsMax =   1.02195378548497E-09  1.54449193525861E-02
 cg2d: Sum(rhs),rhsMax =   1.02201978824379E-09  1.54445970644338E-02
 cg2d: Sum(rhs),rhsMax =   1.02208640162527E-09  1.54442748833689E-02
 cg2d: Sum(rhs),rhsMax =   1.02214399444467E-09  1.54439528791574E-02
 cg2d: Sum(rhs),rhsMax =   1.02220784614637E-09  1.54436311194960E-02
 cg2d: Sum(rhs),rhsMax =   1.02226958842433E-09  1.54433096760950E-02
 cg2d: Sum(rhs),rhsMax =   1.02234294641068E-09  1.54429886224567E-02
 cg2d: Sum(rhs),rhsMax =   1.02239958166273E-09  1.54426680273741E-02
 cg2d: Sum(rhs),rhsMax =   1.02245870103879E-09  1.54423479628493E-02
 cg2d: Sum(rhs),rhsMax =   1.02251943023823E-09  1.54420285032820E-02
 cg2d: Sum(rhs),rhsMax =   1.02259421763673E-09  1.54417097166345E-02
 cg2d: Sum(rhs),rhsMax =   1.02266282941965E-09  1.54413916768170E-02
 cg2d: Sum(rhs),rhsMax =   1.02271957569400E-09  1.54410744560200E-02
 cg2d: Sum(rhs),rhsMax =   1.02279228142432E-09  1.54407581255351E-02
 cg2d: Sum(rhs),rhsMax =   1.02285756253817E-09  1.54404427540817E-02
 cg2d: Sum(rhs),rhsMax =   1.02292406489735E-09  1.54401284158115E-02
 cg2d: Sum(rhs),rhsMax =   1.02298562676406E-09  1.54398151771611E-02
 cg2d: Sum(rhs),rhsMax =   1.02303580884477E-09  1.54395031089029E-02
 cg2d: Sum(rhs),rhsMax =   1.02310895866431E-09  1.54391922781908E-02
 cg2d: Sum(rhs),rhsMax =   1.02317471162294E-09  1.54388827540378E-02
 cg2d: Sum(rhs),rhsMax =   1.02322939010691E-09  1.54385746011726E-02
 cg2d: Sum(rhs),rhsMax =   1.02329000828405E-09  1.54382678848939E-02
 cg2d: Sum(rhs),rhsMax =   1.02335413754151E-09  1.54379626695929E-02
 cg2d: Sum(rhs),rhsMax =   1.02341107810489E-09  1.54376590182976E-02
 cg2d: Sum(rhs),rhsMax =   1.02347288977178E-09  1.54373569901105E-02
 cg2d: Sum(rhs),rhsMax =   1.02354311137809E-09  1.54370566449901E-02
 cg2d: Sum(rhs),rhsMax =   1.02361420728503E-09  1.54367580411751E-02
 cg2d: Sum(rhs),rhsMax =   1.02368276355680E-09  1.54364612324876E-02
 cg2d: Sum(rhs),rhsMax =   1.02374687893647E-09  1.54361662743660E-02
 cg2d: Sum(rhs),rhsMax =   1.02380842692540E-09  1.54358732173950E-02
 cg2d: Sum(rhs),rhsMax =   1.02386936429166E-09  1.54355821093721E-02
 cg2d: Sum(rhs),rhsMax =   1.02393708789617E-09  1.54352929979093E-02
 cg2d: Sum(rhs),rhsMax =   1.02400875279240E-09  1.54350059263339E-02
 cg2d: Sum(rhs),rhsMax =   1.02406876034689E-09  1.54347209352996E-02
 cg2d: Sum(rhs),rhsMax =   1.02413726110751E-09  1.54344380629196E-02
 cg2d: Sum(rhs),rhsMax =   1.02418827585549E-09  1.54341573449182E-02
 cg2d: Sum(rhs),rhsMax =   1.02424684012004E-09  1.54338788126280E-02
 cg2d: Sum(rhs),rhsMax =   1.02430885995375E-09  1.54336024944015E-02
 cg2d: Sum(rhs),rhsMax =   1.02436256699256E-09  1.54333284136508E-02
 cg2d: Sum(rhs),rhsMax =   1.02443684091291E-09  1.54330565944506E-02
 cg2d: Sum(rhs),rhsMax =   1.02449800032378E-09  1.54327870518218E-02
 cg2d: Sum(rhs),rhsMax =   1.02456294837072E-09  1.54325197998251E-02
 cg2d: Sum(rhs),rhsMax =   1.02462160977979E-09  1.54322548491744E-02
 cg2d: Sum(rhs),rhsMax =   1.02466843343585E-09  1.54319922034581E-02
 cg2d: Sum(rhs),rhsMax =   1.02472089147376E-09  1.54317318656631E-02
 cg2d: Sum(rhs),rhsMax =   1.02478285579632E-09  1.54314738310481E-02
 cg2d: Sum(rhs),rhsMax =   1.02484813691017E-09  1.54312180919533E-02
 cg2d: Sum(rhs),rhsMax =   1.02490749220863E-09  1.54309646372682E-02
 cg2d: Sum(rhs),rhsMax =   1.02496283682640E-09  1.54307134478848E-02
 cg2d: Sum(rhs),rhsMax =   1.02502811794025E-09  1.54304645042501E-02
 cg2d: Sum(rhs),rhsMax =   1.02508075638941E-09  1.54302177795890E-02
 cg2d: Sum(rhs),rhsMax =   1.02513481037292E-09  1.54299732439444E-02
 cg2d: Sum(rhs),rhsMax =   1.02519706612902E-09  1.54297308594026E-02
 cg2d: Sum(rhs),rhsMax =   1.02525983536328E-09  1.54294905882311E-02
 cg2d: Sum(rhs),rhsMax =   1.02532002332900E-09  1.54292523838174E-02
 cg2d: Sum(rhs),rhsMax =   1.02537542345793E-09  1.54290161963822E-02
 cg2d: Sum(rhs),rhsMax =   1.02543047664216E-09  1.54287819719896E-02
 cg2d: Sum(rhs),rhsMax =   1.02548410041425E-09  1.54285496509429E-02
 cg2d: Sum(rhs),rhsMax =   1.02554972847280E-09  1.54283191722758E-02
 cg2d: Sum(rhs),rhsMax =   1.02561004133861E-09  1.54280904643426E-02
 cg2d: Sum(rhs),rhsMax =   1.02566914683688E-09  1.54278634581659E-02
 cg2d: Sum(rhs),rhsMax =   1.02571678928243E-09  1.54276380768932E-02
 cg2d: Sum(rhs),rhsMax =   1.02578837091194E-09  1.54274142409133E-02
 cg2d: Sum(rhs),rhsMax =   1.02584399308547E-09  1.54271918663942E-02
 cg2d: Sum(rhs),rhsMax =   1.02590885786569E-09  1.54269708659630E-02
 cg2d: Sum(rhs),rhsMax =   1.02596359186080E-09  1.54267511496293E-02
 cg2d: Sum(rhs),rhsMax =   1.02604176543952E-09  1.54265326238964E-02
 cg2d: Sum(rhs),rhsMax =   1.02610399344005E-09  1.54263151919389E-02
 cg2d: Sum(rhs),rhsMax =   1.02616311281611E-09  1.54260987555464E-02
 cg2d: Sum(rhs),rhsMax =   1.02623487485687E-09  1.54258832154995E-02
 cg2d: Sum(rhs),rhsMax =   1.02628855414011E-09  1.54256684670994E-02
 cg2d: Sum(rhs),rhsMax =   1.02633292142773E-09  1.54254544075173E-02
 cg2d: Sum(rhs),rhsMax =   1.02638818277878E-09  1.54252409301255E-02
 cg2d: Sum(rhs),rhsMax =   1.02643596400220E-09  1.54250279285410E-02
 Computing Diagnostic #    26 "THETA   " (list#  1) Parms "SMR     MR      ", Count=     144
 Computing Diagnostic #    27 "SALT    " (list#  1) Parms "SMR     MR      ", Count=     144
 Computing Diagnostic #    30 "UVEL    " (list#  1) Parms "UUR     MR      ", Count=     144
             Vector  Mate for "UVEL    " :  Diagnostic #     31 "VVEL    " exists
 Computing Diagnostic #    32 "WVEL    " (list#  1) Parms "WM      LR      ", Count=     144
 Computing Diagnostic #    31 "VVEL    " (list#  1) Parms "VVR     MR      ", Count=     144
             Vector  Mate for "VVEL    " :  Diagnostic #     30 "UVEL    " exists
 Computing Diagnostic #   197 "BRGfwFlx" (list#  2) Parms "SM      MR      ", Count=     144
 Computing Diagnostic #   198 "BRGhtFlx" (list#  2) Parms "SM      MR      ", Count=     144
 Computing Diagnostic #   199 "BRGmltRt" (list#  2) Parms "SM      MR      ", Count=     144
 Computing Diagnostic #   201 "BRG_TauX" (list#  2) Parms "UU      MR      ", Count=    1728
 Computing Diagnostic #   202 "BRG_TauY" (list#  2) Parms "VV      MR      ", Count=    1728
 Computing Diagnostic #   203 "BRGhFacC" (list#  2) Parms "SM      MR      ", Count=    1728
 cg2d: Sum(rhs),rhsMax =   1.02648271826933E-09  1.54248152976223E-02
 cg2d: Sum(rhs),rhsMax =   1.02653575917433E-09  1.54246029293020E-02
 cg2d: Sum(rhs),rhsMax =   1.02661107392876E-09  1.54243907179493E-02
 cg2d: Sum(rhs),rhsMax =   1.02666318502198E-09  1.54241785559602E-02
 cg2d: Sum(rhs),rhsMax =   1.02671141033461E-09  1.54239663399434E-02
 cg2d: Sum(rhs),rhsMax =   1.02676522839573E-09  1.54237539653271E-02
 cg2d: Sum(rhs),rhsMax =   1.02683057889852E-09  1.54235413314100E-02
 cg2d: Sum(rhs),rhsMax =   1.02688063607914E-09  1.54233283262641E-02
 cg2d: Sum(rhs),rhsMax =   1.02692776504654E-09  1.54231147257692E-02
 cg2d: Sum(rhs),rhsMax =   1.02698269333068E-09  1.54229004893987E-02
 cg2d: Sum(rhs),rhsMax =   1.02703617832489E-09  1.54226853571547E-02
 cg2d: Sum(rhs),rhsMax =   1.02709991900429E-09  1.54224692034172E-02
 cg2d: Sum(rhs),rhsMax =   1.02715420891020E-09  1.54222518916028E-02
 cg2d: Sum(rhs),rhsMax =   1.02721213479651E-09  1.54220332808207E-02
 cg2d: Sum(rhs),rhsMax =   1.02726648021356E-09  1.54218132430665E-02
 cg2d: Sum(rhs),rhsMax =   1.02730887685532E-09  1.54215916624705E-02
 cg2d: Sum(rhs),rhsMax =   1.02736415208415E-09  1.54213684302933E-02
 cg2d: Sum(rhs),rhsMax =   1.02741225249670E-09  1.54211434547055E-02
 cg2d: Sum(rhs),rhsMax =   1.02747715891027E-09  1.54209166544707E-02
 cg2d: Sum(rhs),rhsMax =   1.02753078268236E-09  1.54206879619805E-02
 cg2d: Sum(rhs),rhsMax =   1.02759224740456E-09  1.54204573192407E-02
 cg2d: Sum(rhs),rhsMax =   1.02764981246839E-09  1.54202246867998E-02
 cg2d: Sum(rhs),rhsMax =   1.02771076371244E-09  1.54199900377082E-02
 cg2d: Sum(rhs),rhsMax =   1.02776785693148E-09  1.54197533570586E-02
 cg2d: Sum(rhs),rhsMax =   1.02782941879820E-09  1.54195146476331E-02
 cg2d: Sum(rhs),rhsMax =   1.02788615119476E-09  1.54192739220312E-02
 cg2d: Sum(rhs),rhsMax =   1.02794696366093E-09  1.54190312104778E-02
 cg2d: Sum(rhs),rhsMax =   1.02800452872476E-09  1.54187865553826E-02
 cg2d: Sum(rhs),rhsMax =   1.02807354296353E-09  1.54185400156556E-02
 cg2d: Sum(rhs),rhsMax =   1.02812253155449E-09  1.54182915889254E-02
 cg2d: Sum(rhs),rhsMax =   1.02817887537299E-09  1.54180413239464E-02
 cg2d: Sum(rhs),rhsMax =   1.02823799474905E-09  1.54177893168702E-02
 cg2d: Sum(rhs),rhsMax =   1.02829220138823E-09  1.54175356791709E-02
 cg2d: Sum(rhs),rhsMax =   1.02835551185620E-09  1.54172805309499E-02
 cg2d: Sum(rhs),rhsMax =   1.02841972438039E-09  1.54170240050050E-02
 cg2d: Sum(rhs),rhsMax =   1.02848529692778E-09  1.54167662445141E-02
 cg2d: Sum(rhs),rhsMax =   1.02855089723075E-09  1.54165074037421E-02
 cg2d: Sum(rhs),rhsMax =   1.02860540918126E-09  1.54162476431586E-02
 cg2d: Sum(rhs),rhsMax =   1.02866243301136E-09  1.54159871345284E-02
 cg2d: Sum(rhs),rhsMax =   1.02873014273808E-09  1.54157260541034E-02
 cg2d: Sum(rhs),rhsMax =   1.02879339769490E-09  1.54154645827677E-02
 cg2d: Sum(rhs),rhsMax =   1.02884968600225E-09  1.54152029118557E-02
 cg2d: Sum(rhs),rhsMax =   1.02890553022039E-09  1.54149412296501E-02
 cg2d: Sum(rhs),rhsMax =   1.02896473286318E-09  1.54146797312228E-02
 cg2d: Sum(rhs),rhsMax =   1.02901021037383E-09  1.54144186122945E-02
 cg2d: Sum(rhs),rhsMax =   1.02908530308365E-09  1.54141580689920E-02
 cg2d: Sum(rhs),rhsMax =   1.02914876620730E-09  1.54138982980320E-02
 cg2d: Sum(rhs),rhsMax =   1.02922041722575E-09  1.54136394919578E-02
 cg2d: Sum(rhs),rhsMax =   1.02927426304245E-09  1.54133818408312E-02
 cg2d: Sum(rhs),rhsMax =   1.02933352119638E-09  1.54131255318598E-02
 cg2d: Sum(rhs),rhsMax =   1.02941397073231E-09  1.54128707463813E-02
 cg2d: Sum(rhs),rhsMax =   1.02947722568913E-09  1.54126176582571E-02
 cg2d: Sum(rhs),rhsMax =   1.02953914837833E-09  1.54123664365185E-02
 cg2d: Sum(rhs),rhsMax =   1.02959879511033E-09  1.54121172398613E-02
 cg2d: Sum(rhs),rhsMax =   1.02965805326427E-09  1.54118702167761E-02
 cg2d: Sum(rhs),rhsMax =   1.02972072535401E-09  1.54116255087041E-02
 cg2d: Sum(rhs),rhsMax =   1.02978066351955E-09  1.54113832416346E-02
 cg2d: Sum(rhs),rhsMax =   1.02982888883218E-09  1.54111435328142E-02
 cg2d: Sum(rhs),rhsMax =   1.02990421746441E-09  1.54109064856032E-02
 cg2d: Sum(rhs),rhsMax =   1.02996508544173E-09  1.54106721903229E-02
 cg2d: Sum(rhs),rhsMax =   1.03003183760109E-09  1.54104407213208E-02
 cg2d: Sum(rhs),rhsMax =   1.03009470397986E-09  1.54102121421540E-02
 cg2d: Sum(rhs),rhsMax =   1.03013418628617E-09  1.54099864983386E-02
 cg2d: Sum(rhs),rhsMax =   1.03019699715379E-09  1.54097638189470E-02
 cg2d: Sum(rhs),rhsMax =   1.03024880293567E-09  1.54095441210430E-02
 cg2d: Sum(rhs),rhsMax =   1.03031307097101E-09  1.54093274040559E-02
 cg2d: Sum(rhs),rhsMax =   1.03037031684572E-09  1.54091136497135E-02
 cg2d: Sum(rhs),rhsMax =   1.03043375221379E-09  1.54089028267441E-02
 cg2d: Sum(rhs),rhsMax =   1.03048268529360E-09  1.54086948837383E-02
 cg2d: Sum(rhs),rhsMax =   1.03053626743232E-09  1.54084897575808E-02
 cg2d: Sum(rhs),rhsMax =   1.03059681622053E-09  1.54082873667170E-02
 cg2d: Sum(rhs),rhsMax =   1.03065973811045E-09  1.54080876162792E-02
 cg2d: Sum(rhs),rhsMax =   1.03070747770051E-09  1.54078903945802E-02
 cg2d: Sum(rhs),rhsMax =   1.03076674973224E-09  1.54076955752216E-02
 cg2d: Sum(rhs),rhsMax =   1.03081158886464E-09  1.54075030182938E-02
 cg2d: Sum(rhs),rhsMax =   1.03086465752522E-09  1.54073125732337E-02
 cg2d: Sum(rhs),rhsMax =   1.03092001602079E-09  1.54071240718185E-02
 cg2d: Sum(rhs),rhsMax =   1.03097554104981E-09  1.54069373372051E-02
 cg2d: Sum(rhs),rhsMax =   1.03101988058185E-09  1.54067521809166E-02
 cg2d: Sum(rhs),rhsMax =   1.03107430926563E-09  1.54065684037946E-02
 cg2d: Sum(rhs),rhsMax =   1.03114095040269E-09  1.54063857971941E-02
 cg2d: Sum(rhs),rhsMax =   1.03119053573852E-09  1.54062041452943E-02
 cg2d: Sum(rhs),rhsMax =   1.03125871731002E-09  1.54060232238783E-02
 cg2d: Sum(rhs),rhsMax =   1.03131138351475E-09  1.54058428033721E-02
 cg2d: Sum(rhs),rhsMax =   1.03136356399691E-09  1.54056626485680E-02
 cg2d: Sum(rhs),rhsMax =   1.03141761798042E-09  1.54054825207641E-02
 cg2d: Sum(rhs),rhsMax =   1.03147380914326E-09  1.54053021778570E-02
 cg2d: Sum(rhs),rhsMax =   1.03152646147020E-09  1.54051213773321E-02
 cg2d: Sum(rhs),rhsMax =   1.03157279940369E-09  1.54049398751456E-02
 cg2d: Sum(rhs),rhsMax =   1.03164531084499E-09  1.54047574301797E-02
 cg2d: Sum(rhs),rhsMax =   1.03170721965640E-09  1.54045738005000E-02
 cg2d: Sum(rhs),rhsMax =   1.03176157895124E-09  1.54043887524360E-02
 cg2d: Sum(rhs),rhsMax =   1.03181739541380E-09  1.54042020517749E-02
 cg2d: Sum(rhs),rhsMax =   1.03186877098427E-09  1.54040134702251E-02
 cg2d: Sum(rhs),rhsMax =   1.03193292799730E-09  1.54038227871772E-02
 cg2d: Sum(rhs),rhsMax =   1.03197235479247E-09  1.54036297900585E-02
 cg2d: Sum(rhs),rhsMax =   1.03202811574388E-09  1.54034342721684E-02
 cg2d: Sum(rhs),rhsMax =   1.03207847823583E-09  1.54032360396169E-02
 cg2d: Sum(rhs),rhsMax =   1.03214059521406E-09  1.54030349082053E-02
 cg2d: Sum(rhs),rhsMax =   1.03218168734376E-09  1.54028307043169E-02
 cg2d: Sum(rhs),rhsMax =   1.03225186731670E-09  1.54026232683554E-02
 cg2d: Sum(rhs),rhsMax =   1.03230309023150E-09  1.54024124527641E-02
 cg2d: Sum(rhs),rhsMax =   1.03235348047903E-09  1.54021981236723E-02
 cg2d: Sum(rhs),rhsMax =   1.03241695748046E-09  1.54019801646163E-02
 cg2d: Sum(rhs),rhsMax =   1.03246183824623E-09  1.54017584708818E-02
 cg2d: Sum(rhs),rhsMax =   1.03251204808252E-09  1.54015329540267E-02
 cg2d: Sum(rhs),rhsMax =   1.03257533079493E-09  1.54013035432016E-02
 cg2d: Sum(rhs),rhsMax =   1.03262692841000E-09  1.54010701838622E-02
 cg2d: Sum(rhs),rhsMax =   1.03268148199387E-09  1.54008328360095E-02
 cg2d: Sum(rhs),rhsMax =   1.03273459228781E-09  1.54005914794302E-02
 cg2d: Sum(rhs),rhsMax =   1.03279272634094E-09  1.54003461081379E-02
 cg2d: Sum(rhs),rhsMax =   1.03285061059388E-09  1.54000967347283E-02
 cg2d: Sum(rhs),rhsMax =   1.03291325492805E-09  1.53998433884128E-02
 cg2d: Sum(rhs),rhsMax =   1.03297097264754E-09  1.53995861157586E-02
 cg2d: Sum(rhs),rhsMax =   1.03303288145895E-09  1.53993249793674E-02
 cg2d: Sum(rhs),rhsMax =   1.03310322796535E-09  1.53990600560486E-02
 cg2d: Sum(rhs),rhsMax =   1.03315349331279E-09  1.53987914395093E-02
 cg2d: Sum(rhs),rhsMax =   1.03322825295571E-09  1.53985192457534E-02
 cg2d: Sum(rhs),rhsMax =   1.03329941825159E-09  1.53982435978819E-02
 cg2d: Sum(rhs),rhsMax =   1.03336772472318E-09  1.53979646298162E-02
 cg2d: Sum(rhs),rhsMax =   1.03342646939897E-09  1.53976825003086E-02
 cg2d: Sum(rhs),rhsMax =   1.03348657409796E-09  1.53973973745003E-02
 cg2d: Sum(rhs),rhsMax =   1.03355686509321E-09  1.53971094280124E-02
 cg2d: Sum(rhs),rhsMax =   1.03363073655771E-09  1.53968188509908E-02
 cg2d: Sum(rhs),rhsMax =   1.03368674730930E-09  1.53965258413757E-02
 cg2d: Sum(rhs),rhsMax =   1.03375100146685E-09  1.53962306084886E-02
 cg2d: Sum(rhs),rhsMax =   1.03381195271091E-09  1.53959333706923E-02
 cg2d: Sum(rhs),rhsMax =   1.03387723382475E-09  1.53956343512317E-02
 cg2d: Sum(rhs),rhsMax =   1.03393495154425E-09  1.53953337816988E-02
 cg2d: Sum(rhs),rhsMax =   1.03399885875710E-09  1.53950318995646E-02
 cg2d: Sum(rhs),rhsMax =   1.03407339635542E-09  1.53947289453043E-02
 cg2d: Sum(rhs),rhsMax =   1.03414010688141E-09  1.53944251621503E-02
 cg2d: Sum(rhs),rhsMax =   1.03420473573923E-09  1.53941207963733E-02
 cg2d: Sum(rhs),rhsMax =   1.03427638675768E-09  1.53938160959890E-02
 cg2d: Sum(rhs),rhsMax =   1.03435235376814E-09  1.53935113050059E-02
 cg2d: Sum(rhs),rhsMax =   1.03442940324605E-09  1.53932066722791E-02
 cg2d: Sum(rhs),rhsMax =   1.03449671051692E-09  1.53929024387258E-02
 cg2d: Sum(rhs),rhsMax =   1.03456652966738E-09  1.53925988447233E-02
 cg2d: Sum(rhs),rhsMax =   1.03462566292123E-09  1.53922961253960E-02
 cg2d: Sum(rhs),rhsMax =   1.03467762135878E-09  1.53919945121021E-02
 cg2d: Sum(rhs),rhsMax =   1.03473232759832E-09  1.53916942275587E-02
 cg2d: Sum(rhs),rhsMax =   1.03478742241592E-09  1.53913954862916E-02
 cg2d: Sum(rhs),rhsMax =   1.03485513214263E-09  1.53910984982900E-02
 cg2d: Sum(rhs),rhsMax =   1.03491967773373E-09  1.53908034625132E-02
 Computing Diagnostic #    26 "THETA   " (list#  1) Parms "SMR     MR      ", Count=     144
 Computing Diagnostic #    27 "SALT    " (list#  1) Parms "SMR     MR      ", Count=     144
 Computing Diagnostic #    30 "UVEL    " (list#  1) Parms "UUR     MR      ", Count=     144
             Vector  Mate for "UVEL    " :  Diagnostic #     31 "VVEL    " exists
 Computing Diagnostic #    32 "WVEL    " (list#  1) Parms "WM      LR      ", Count=     144
 Computing Diagnostic #    31 "VVEL    " (list#  1) Parms "VVR     MR      ", Count=     144
             Vector  Mate for "VVEL    " :  Diagnostic #     30 "UVEL    " exists
 Computing Diagnostic #   197 "BRGfwFlx" (list#  2) Parms "SM      MR      ", Count=     144
 Computing Diagnostic #   198 "BRGhtFlx" (list#  2) Parms "SM      MR      ", Count=     144
 Computing Diagnostic #   199 "BRGmltRt" (list#  2) Parms "SM      MR      ", Count=     144
 Computing Diagnostic #   201 "BRG_TauX" (list#  2) Parms "UU      MR      ", Count=    1728
 Computing Diagnostic #   202 "BRG_TauY" (list#  2) Parms "VV      MR      ", Count=    1728
 Computing Diagnostic #   203 "BRGhFacC" (list#  2) Parms "SM      MR      ", Count=    1728
 cg2d: Sum(rhs),rhsMax =   1.03498638825972E-09  1.53905105672704E-02
 cg2d: Sum(rhs),rhsMax =   1.03504067816562E-09  1.53902199902868E-02
 cg2d: Sum(rhs),rhsMax =   1.03511324511807E-09  1.53899319002081E-02
 cg2d: Sum(rhs),rhsMax =   1.03517129590447E-09  1.53896464517781E-02
 cg2d: Sum(rhs),rhsMax =   1.03522800054545E-09  1.53893637858538E-02
 cg2d: Sum(rhs),rhsMax =   1.03529856909645E-09  1.53890840317005E-02
 cg2d: Sum(rhs),rhsMax =   1.03533888407004E-09  1.53888073062604E-02
 cg2d: Sum(rhs),rhsMax =   1.03539318785373E-09  1.53885337116162E-02
 cg2d: Sum(rhs),rhsMax =   1.03544571528058E-09  1.53882633346736E-02
 cg2d: Sum(rhs),rhsMax =   1.03551447971917E-09  1.53879962488372E-02
 cg2d: Sum(rhs),rhsMax =   1.03556743735744E-09  1.53877325117926E-02
 cg2d: Sum(rhs),rhsMax =   1.03563944919838E-09  1.53874721681477E-02
 cg2d: Sum(rhs),rhsMax =   1.03569240683665E-09  1.53872152467187E-02
 cg2d: Sum(rhs),rhsMax =   1.03575924226273E-09  1.53869617608638E-02
 cg2d: Sum(rhs),rhsMax =   1.03582734056751E-09  1.53867117103482E-02
 cg2d: Sum(rhs),rhsMax =   1.03588573829860E-09  1.53864650804102E-02
 cg2d: Sum(rhs),rhsMax =   1.03593922329281E-09  1.53862218390062E-02
 cg2d: Sum(rhs),rhsMax =   1.03600815426486E-09  1.53859819453326E-02
 cg2d: Sum(rhs),rhsMax =   1.03605732326706E-09  1.53857453411595E-02
 cg2d: Sum(rhs),rhsMax =   1.03611706714357E-09  1.53855119559963E-02
 cg2d: Sum(rhs),rhsMax =   1.03618115476767E-09  1.53852817044817E-02
 cg2d: Sum(rhs),rhsMax =   1.03623877534265E-09  1.53850544909498E-02
 cg2d: Sum(rhs),rhsMax =   1.03629427261609E-09  1.53848302097096E-02
 cg2d: Sum(rhs),rhsMax =   1.03635472425978E-09  1.53846087384873E-02
 cg2d: Sum(rhs),rhsMax =   1.03641276116839E-09  1.53843899485473E-02
 cg2d: Sum(rhs),rhsMax =   1.03647507243565E-09  1.53841737003420E-02
 cg2d: Sum(rhs),rhsMax =   1.03654128336128E-09  1.53839598448393E-02
 cg2d: Sum(rhs),rhsMax =   1.03660371952863E-09  1.53837482231412E-02
 cg2d: Sum(rhs),rhsMax =   1.03665517836582E-09  1.53835345811474E-02
 cg2d: Sum(rhs),rhsMax =   1.03671246587389E-09  1.53832269217953E-02
 cg2d: Sum(rhs),rhsMax =   1.03678157725717E-09  1.53829180921044E-02
 cg2d: Sum(rhs),rhsMax =   1.03686256802682E-09  1.53826133162441E-02
 cg2d: Sum(rhs),rhsMax =   1.03691770447778E-09  1.53823114947076E-02
 cg2d: Sum(rhs),rhsMax =   1.03698659381646E-09  1.53820127558307E-02
 cg2d: Sum(rhs),rhsMax =   1.03704661524873E-09  1.53817173992362E-02
 cg2d: Sum(rhs),rhsMax =   1.03712134713607E-09  1.53814257016256E-02
 cg2d: Sum(rhs),rhsMax =   1.03719051403051E-09  1.53811379129483E-02
 cg2d: Sum(rhs),rhsMax =   1.03724877298372E-09  1.53808542740056E-02
 cg2d: Sum(rhs),rhsMax =   1.03730095346588E-09  1.53805750078415E-02
 cg2d: Sum(rhs),rhsMax =   1.03736853829250E-09  1.53803003170965E-02
 cg2d: Sum(rhs),rhsMax =   1.03743687251967E-09  1.53800303897421E-02
 cg2d: Sum(rhs),rhsMax =   1.03749138447018E-09  1.53797653950151E-02
 cg2d: Sum(rhs),rhsMax =   1.03755318225929E-09  1.53795054849012E-02
 cg2d: Sum(rhs),rhsMax =   1.03761092773436E-09  1.53792507736215E-02
 cg2d: Sum(rhs),rhsMax =   1.03766770176428E-09  1.53790013840884E-02
 cg2d: Sum(rhs),rhsMax =   1.03772554438386E-09  1.53787574052016E-02
 cg2d: Sum(rhs),rhsMax =   1.03778410864841E-09  1.53785189015871E-02
 cg2d: Sum(rhs),rhsMax =   1.03784179861233E-09  1.53782859181304E-02
 cg2d: Sum(rhs),rhsMax =   1.03789446481706E-09  1.53780584829034E-02
 cg2d: Sum(rhs),rhsMax =   1.03795243233673E-09  1.53778365984908E-02
 cg2d: Sum(rhs),rhsMax =   1.03801771345058E-09  1.53776202473643E-02
 cg2d: Sum(rhs),rhsMax =   1.03807225315666E-09  1.53774093913510E-02
 cg2d: Sum(rhs),rhsMax =   1.03812522467273E-09  1.53772039700499E-02
 cg2d: Sum(rhs),rhsMax =   1.03819138008721E-09  1.53770039017890E-02
 cg2d: Sum(rhs),rhsMax =   1.03825172070859E-09  1.53768090840826E-02
 cg2d: Sum(rhs),rhsMax =   1.03830227748958E-09  1.53766193960426E-02
 cg2d: Sum(rhs),rhsMax =   1.03836127196555E-09  1.53764346929900E-02
 cg2d: Sum(rhs),rhsMax =   1.03840756826568E-09  1.53762548123802E-02
 cg2d: Sum(rhs),rhsMax =   1.03845572418937E-09  1.53760795756708E-02
 cg2d: Sum(rhs),rhsMax =   1.03850998633970E-09  1.53759087816317E-02
 cg2d: Sum(rhs),rhsMax =   1.03856748201459E-09  1.53757422139172E-02
 cg2d: Sum(rhs),rhsMax =   1.03861670652794E-09  1.53755796373048E-02
 cg2d: Sum(rhs),rhsMax =   1.03866867884328E-09  1.53754208243047E-02
 cg2d: Sum(rhs),rhsMax =   1.03872022094720E-09  1.53752655235090E-02
 cg2d: Sum(rhs),rhsMax =   1.03876926504931E-09  1.53751134534381E-02
 cg2d: Sum(rhs),rhsMax =   1.03883046609354E-09  1.53749643182294E-02
 cg2d: Sum(rhs),rhsMax =   1.03889781499777E-09  1.53748178120430E-02
 cg2d: Sum(rhs),rhsMax =   1.03896027892070E-09  1.53746736161949E-02
 cg2d: Sum(rhs),rhsMax =   1.03900614500940E-09  1.53745314028545E-02
 cg2d: Sum(rhs),rhsMax =   1.03906790116515E-09  1.53743908333447E-02
 cg2d: Sum(rhs),rhsMax =   1.03910648141525E-09  1.53742515617216E-02
 cg2d: Sum(rhs),rhsMax =   1.03915823168599E-09  1.53741132368825E-02
 cg2d: Sum(rhs),rhsMax =   1.03921286853659E-09  1.53739755012355E-02
 cg2d: Sum(rhs),rhsMax =   1.03926460492954E-09  1.53738379925562E-02
 cg2d: Sum(rhs),rhsMax =   1.03930584971490E-09  1.53737003446035E-02
 cg2d: Sum(rhs),rhsMax =   1.03935612894013E-09  1.53735621928993E-02
 cg2d: Sum(rhs),rhsMax =   1.03939953866039E-09  1.53734231696986E-02
 cg2d: Sum(rhs),rhsMax =   1.03945088647528E-09  1.53732829088077E-02
 cg2d: Sum(rhs),rhsMax =   1.03950498209215E-09  1.53731410459470E-02
 cg2d: Sum(rhs),rhsMax =   1.03954853059030E-09  1.53729972206471E-02
 cg2d: Sum(rhs),rhsMax =   1.03960164088424E-09  1.53728510781594E-02
 cg2d: Sum(rhs),rhsMax =   1.03964675757240E-09  1.53727022674823E-02
 cg2d: Sum(rhs),rhsMax =   1.03971255216440E-09  1.53725504475914E-02
 cg2d: Sum(rhs),rhsMax =   1.03978053944687E-09  1.53723952825740E-02
 cg2d: Sum(rhs),rhsMax =   1.03983907595584E-09  1.53722364476376E-02
 cg2d: Sum(rhs),rhsMax =   1.03989639121949E-09  1.53720736281801E-02
 cg2d: Sum(rhs),rhsMax =   1.03994705902277E-09  1.53719065228308E-02
 cg2d: Sum(rhs),rhsMax =   1.03999273082245E-09  1.53717348397718E-02
 cg2d: Sum(rhs),rhsMax =   1.04004344025910E-09  1.53715583039215E-02
 cg2d: Sum(rhs),rhsMax =   1.04009810486527E-09  1.53713766534034E-02
 cg2d: Sum(rhs),rhsMax =   1.04016001367668E-09  1.53711896400877E-02
 cg2d: Sum(rhs),rhsMax =   1.04020519975379E-09  1.53709970345788E-02
 cg2d: Sum(rhs),rhsMax =   1.04026454117445E-09  1.53707986237086E-02
 cg2d: Sum(rhs),rhsMax =   1.04031820657990E-09  1.53705942114563E-02
 cg2d: Sum(rhs),rhsMax =   1.04036457226897E-09  1.53703836186655E-02
 cg2d: Sum(rhs),rhsMax =   1.04040574766540E-09  1.53701666887435E-02
 cg2d: Sum(rhs),rhsMax =   1.04048340776597E-09  1.53699433175619E-02
 cg2d: Sum(rhs),rhsMax =   1.04053990424013E-09  1.53697133937755E-02
 cg2d: Sum(rhs),rhsMax =   1.04058632544035E-09  1.53694768162808E-02
 cg2d: Sum(rhs),rhsMax =   1.04064884487443E-09  1.53692335089315E-02
 cg2d: Sum(rhs),rhsMax =   1.04071487538882E-09  1.53689834128803E-02
 cg2d: Sum(rhs),rhsMax =   1.04077697848926E-09  1.53687264886515E-02
 cg2d: Sum(rhs),rhsMax =   1.04083423824175E-09  1.53684627206625E-02
 cg2d: Sum(rhs),rhsMax =   1.04089685482034E-09  1.53681921098178E-02
 cg2d: Sum(rhs),rhsMax =   1.04096706254886E-09  1.53679146779900E-02
 cg2d: Sum(rhs),rhsMax =   1.04101906261977E-09  1.53676304700246E-02
 cg2d: Sum(rhs),rhsMax =   1.04107651666130E-09  1.53673395460428E-02
 cg2d: Sum(rhs),rhsMax =   1.04114815380196E-09  1.53670419882983E-02
 cg2d: Sum(rhs),rhsMax =   1.04121250510403E-09  1.53667378970281E-02
 cg2d: Sum(rhs),rhsMax =   1.04127287348099E-09  1.53664273919212E-02
 cg2d: Sum(rhs),rhsMax =   1.04135257361637E-09  1.53661106090000E-02
 cg2d: Sum(rhs),rhsMax =   1.04141707757410E-09  1.53657877040576E-02
 cg2d: Sum(rhs),rhsMax =   1.04146971602326E-09  1.53654588477045E-02
 cg2d: Sum(rhs),rhsMax =   1.04153156932352E-09  1.53651242293647E-02
 cg2d: Sum(rhs),rhsMax =   1.04159471325804E-09  1.53647840491473E-02
 cg2d: Sum(rhs),rhsMax =   1.04166004988304E-09  1.53644385270888E-02
 cg2d: Sum(rhs),rhsMax =   1.04174362192122E-09  1.53640878943870E-02
 cg2d: Sum(rhs),rhsMax =   1.04181155369254E-09  1.53637323975458E-02
 cg2d: Sum(rhs),rhsMax =   1.04186806404449E-09  1.53633917114083E-02
 cg2d: Sum(rhs),rhsMax =   1.04193645378281E-09  1.53630589963585E-02
 cg2d: Sum(rhs),rhsMax =   1.04199857076104E-09  1.53627188553111E-02
 cg2d: Sum(rhs),rhsMax =   1.04205148676595E-09  1.53623751874186E-02
 cg2d: Sum(rhs),rhsMax =   1.04211679563537E-09  1.53620279585185E-02
 cg2d: Sum(rhs),rhsMax =   1.04219176344511E-09  1.53616777743742E-02
 cg2d: Sum(rhs),rhsMax =   1.04225640618072E-09  1.53613259298977E-02
 cg2d: Sum(rhs),rhsMax =   1.04233349729199E-09  1.53609731503663E-02
 cg2d: Sum(rhs),rhsMax =   1.04239523956995E-09  1.53606199876998E-02
 cg2d: Sum(rhs),rhsMax =   1.04245308218953E-09  1.53602669912671E-02
 cg2d: Sum(rhs),rhsMax =   1.04253211619110E-09  1.53599146944872E-02
 cg2d: Sum(rhs),rhsMax =   1.04259124944495E-09  1.53595636224027E-02
 cg2d: Sum(rhs),rhsMax =   1.04265573952489E-09  1.53592142771186E-02
 cg2d: Sum(rhs),rhsMax =   1.04272457335242E-09  1.53588671428562E-02
 cg2d: Sum(rhs),rhsMax =   1.04278014001480E-09  1.53585226704690E-02
 cg2d: Sum(rhs),rhsMax =   1.04284679502964E-09  1.53581813013434E-02
 cg2d: Sum(rhs),rhsMax =   1.04290330538159E-09  1.53578434734343E-02
 cg2d: Sum(rhs),rhsMax =   1.04297102898609E-09  1.53575095964441E-02
 cg2d: Sum(rhs),rhsMax =   1.04304383186093E-09  1.53571800352683E-02
 cg2d: Sum(rhs),rhsMax =   1.04308656156960E-09  1.53568551240126E-02
 cg2d: Sum(rhs),rhsMax =   1.04314817894746E-09  1.53565351700649E-02
 cg2d: Sum(rhs),rhsMax =   1.04320746485698E-09  1.53562204528957E-02
 cg2d: Sum(rhs),rhsMax =   1.04326976224645E-09  1.53559112334390E-02
 cg2d: Sum(rhs),rhsMax =   1.04334124673144E-09  1.53556077316496E-02
 cg2d: Sum(rhs),rhsMax =   1.04340339146525E-09  1.53553101356571E-02
 cg2d: Sum(rhs),rhsMax =   1.04346908891273E-09  1.53550186050402E-02
 Computing Diagnostic #    26 "THETA   " (list#  1) Parms "SMR     MR      ", Count=     144
 Computing Diagnostic #    27 "SALT    " (list#  1) Parms "SMR     MR      ", Count=     144
 Computing Diagnostic #    30 "UVEL    " (list#  1) Parms "UUR     MR      ", Count=     144
             Vector  Mate for "UVEL    " :  Diagnostic #     31 "VVEL    " exists
 Computing Diagnostic #    32 "WVEL    " (list#  1) Parms "WM      LR      ", Count=     144
 Computing Diagnostic #    31 "VVEL    " (list#  1) Parms "VVR     MR      ", Count=     144
             Vector  Mate for "VVEL    " :  Diagnostic #     30 "UVEL    " exists
 Computing Diagnostic #   197 "BRGfwFlx" (list#  2) Parms "SM      MR      ", Count=     144
 Computing Diagnostic #   198 "BRGhtFlx" (list#  2) Parms "SM      MR      ", Count=     144
 Computing Diagnostic #   199 "BRGmltRt" (list#  2) Parms "SM      MR      ", Count=     144
 Computing Diagnostic #   201 "BRG_TauX" (list#  2) Parms "UU      MR      ", Count=    1728
 Computing Diagnostic #   202 "BRG_TauY" (list#  2) Parms "VV      MR      ", Count=    1728
 Computing Diagnostic #   203 "BRGhFacC" (list#  2) Parms "SM      MR      ", Count=    1728
 cg2d: Sum(rhs),rhsMax =   1.04353964358594E-09  1.53547332623040E-02
 cg2d: Sum(rhs),rhsMax =   1.04360413366589E-09  1.53544542016298E-02
 cg2d: Sum(rhs),rhsMax =   1.04367131603667E-09  1.53541814840799E-02
 cg2d: Sum(rhs),rhsMax =   1.04372903375616E-09  1.53539151407197E-02
 cg2d: Sum(rhs),rhsMax =   1.04379395404752E-09  1.53536551664429E-02
 cg2d: Sum(rhs),rhsMax =   1.04385704247090E-09  1.53534015306129E-02
 cg2d: Sum(rhs),rhsMax =   1.04391824351513E-09  1.53531541707763E-02
 cg2d: Sum(rhs),rhsMax =   1.04396585820510E-09  1.53529129968099E-02
 cg2d: Sum(rhs),rhsMax =   1.04401425005118E-09  1.53526778873845E-02
 cg2d: Sum(rhs),rhsMax =   1.04406699952264E-09  1.53524486986170E-02
 cg2d: Sum(rhs),rhsMax =   1.04413146184701E-09  1.53522252568239E-02
 cg2d: Sum(rhs),rhsMax =   1.04418981794474E-09  1.53520073661299E-02
 cg2d: Sum(rhs),rhsMax =   1.04423571178902E-09  1.53517948089022E-02
 cg2d: Sum(rhs),rhsMax =   1.04429859204558E-09  1.53515873401993E-02
 cg2d: Sum(rhs),rhsMax =   1.04433951764182E-09  1.53513847014730E-02
 cg2d: Sum(rhs),rhsMax =   1.04441100212682E-09  1.53511866124763E-02
 cg2d: Sum(rhs),rhsMax =   1.04446591653318E-09  1.53509927768699E-02
 cg2d: Sum(rhs),rhsMax =   1.04452138605104E-09  1.53508028833554E-02
 cg2d: Sum(rhs),rhsMax =   1.04458441896327E-09  1.53506166041643E-02
 cg2d: Sum(rhs),rhsMax =   1.04465409933585E-09  1.53504336040159E-02
 cg2d: Sum(rhs),rhsMax =   1.04469483064307E-09  1.53502535358680E-02
 cg2d: Sum(rhs),rhsMax =   1.04475343654098E-09  1.53500760438873E-02
 cg2d: Sum(rhs),rhsMax =   1.04479630502752E-09  1.53499007660327E-02
 cg2d: Sum(rhs),rhsMax =   1.04482815455054E-09  1.53497273385648E-02
 cg2d: Sum(rhs),rhsMax =   1.04487968277667E-09  1.53495553906817E-02
 cg2d: Sum(rhs),rhsMax =   1.04493434738284E-09  1.53493845525373E-02
 cg2d: Sum(rhs),rhsMax =   1.04498697195421E-09  1.53492144578513E-02
 cg2d: Sum(rhs),rhsMax =   1.04504056797072E-09  1.53490447380707E-02
 cg2d: Sum(rhs),rhsMax =   1.04508962595062E-09  1.53488750331449E-02
 cg2d: Sum(rhs),rhsMax =   1.04514559506885E-09  1.53487049860257E-02
 cg2d: Sum(rhs),rhsMax =   1.04520697652433E-09  1.53485342471800E-02
 cg2d: Sum(rhs),rhsMax =   1.04525538224820E-09  1.53483624781985E-02
 cg2d: Sum(rhs),rhsMax =   1.04530994970986E-09  1.53481893491199E-02
 cg2d: Sum(rhs),rhsMax =   1.04534990386096E-09  1.53480145429681E-02
 cg2d: Sum(rhs),rhsMax =   1.04541102163846E-09  1.53478377536135E-02
 cg2d: Sum(rhs),rhsMax =   1.04546390988780E-09  1.53476586902979E-02
 cg2d: Sum(rhs),rhsMax =   1.04552193291862E-09  1.53474770774725E-02
 cg2d: Sum(rhs),rhsMax =   1.04556430180480E-09  1.53472926565644E-02
 cg2d: Sum(rhs),rhsMax =   1.04561245772850E-09  1.53471051862966E-02
 cg2d: Sum(rhs),rhsMax =   1.04566946768081E-09  1.53469144387000E-02
 cg2d: Sum(rhs),rhsMax =   1.04572528414337E-09  1.53467202080555E-02
 cg2d: Sum(rhs),rhsMax =   1.04577753401447E-09  1.53465223078700E-02
 cg2d: Sum(rhs),rhsMax =   1.04583826321392E-09  1.53463205703793E-02
 cg2d: Sum(rhs),rhsMax =   1.04590165694862E-09  1.53461148498422E-02
 cg2d: Sum(rhs),rhsMax =   1.04595840322297E-09  1.53459050168349E-02
 cg2d: Sum(rhs),rhsMax =   1.04599542916084E-09  1.53456909662482E-02
 cg2d: Sum(rhs),rhsMax =   1.04605356321397E-09  1.53454726105271E-02
 cg2d: Sum(rhs),rhsMax =   1.04611420914669E-09  1.53452498856054E-02
 cg2d: Sum(rhs),rhsMax =   1.04617239871097E-09  1.53450227432881E-02
 cg2d: Sum(rhs),rhsMax =   1.04622908947416E-09  1.53447911603145E-02
 cg2d: Sum(rhs),rhsMax =   1.04630587527410E-09  1.53445551316705E-02
 cg2d: Sum(rhs),rhsMax =   1.04637006004271E-09  1.53443146693316E-02
 cg2d: Sum(rhs),rhsMax =   1.04642758347318E-09  1.53440698055001E-02
 cg2d: Sum(rhs),rhsMax =   1.04648154031217E-09  1.53438205909457E-02
 cg2d: Sum(rhs),rhsMax =   1.04655203947424E-09  1.53435670967611E-02
 cg2d: Sum(rhs),rhsMax =   1.04660170807680E-09  1.53433094059547E-02
 cg2d: Sum(rhs),rhsMax =   1.04665462408171E-09  1.53430476199396E-02
 cg2d: Sum(rhs),rhsMax =   1.04669793665746E-09  1.53427818571373E-02
 cg2d: Sum(rhs),rhsMax =   1.04676524392833E-09  1.53425122481531E-02
 cg2d: Sum(rhs),rhsMax =   1.04681723012146E-09  1.53422389375647E-02
 cg2d: Sum(rhs),rhsMax =   1.04688158142352E-09  1.53419620825338E-02
 cg2d: Sum(rhs),rhsMax =   1.04694403146866E-09  1.53416818514297E-02
 cg2d: Sum(rhs),rhsMax =   1.04701666781004E-09  1.53413984241466E-02
 cg2d: Sum(rhs),rhsMax =   1.04708446080348E-09  1.53411119872589E-02
 cg2d: Sum(rhs),rhsMax =   1.04713776538645E-09  1.53408227352304E-02
 cg2d: Sum(rhs),rhsMax =   1.04721015192766E-09  1.53405308750706E-02
 cg2d: Sum(rhs),rhsMax =   1.04728188621284E-09  1.53402366132077E-02
 cg2d: Sum(rhs),rhsMax =   1.04735534134370E-09  1.53399401630349E-02
 cg2d: Sum(rhs),rhsMax =   1.04741104678396E-09  1.53396417426626E-02
 cg2d: Sum(rhs),rhsMax =   1.04748573703795E-09  1.53393415700534E-02
 cg2d: Sum(rhs),rhsMax =   1.04755124019640E-09  1.53390398679725E-02
 cg2d: Sum(rhs),rhsMax =   1.04762144792492E-09  1.53387368563526E-02
 cg2d: Sum(rhs),rhsMax =   1.04767894359981E-09  1.53384327563449E-02
 cg2d: Sum(rhs),rhsMax =   1.04774602882607E-09  1.53381277853555E-02
 cg2d: Sum(rhs),rhsMax =   1.04781060217274E-09  1.53378221590620E-02
 cg2d: Sum(rhs),rhsMax =   1.04787067911616E-09  1.53375160883495E-02
 cg2d: Sum(rhs),rhsMax =   1.04793064503728E-09  1.53372097799523E-02
 cg2d: Sum(rhs),rhsMax =   1.04800092215473E-09  1.53369034364629E-02
 cg2d: Sum(rhs),rhsMax =   1.04806371914457E-09  1.53365972537116E-02
 cg2d: Sum(rhs),rhsMax =   1.04813455137354E-09  1.53362914185814E-02
 cg2d: Sum(rhs),rhsMax =   1.04820141455519E-09  1.53359861132904E-02
 cg2d: Sum(rhs),rhsMax =   1.04827982405631E-09  1.53356815083834E-02
 cg2d: Sum(rhs),rhsMax =   1.04833632053047E-09  1.53353777661789E-02
 cg2d: Sum(rhs),rhsMax =   1.04840476577994E-09  1.53350750419635E-02
 cg2d: Sum(rhs),rhsMax =   1.04845593318359E-09  1.53347734770648E-02
 cg2d: Sum(rhs),rhsMax =   1.04851870241784E-09  1.53344732063553E-02
 cg2d: Sum(rhs),rhsMax =   1.04858706440059E-09  1.53341743494410E-02
 cg2d: Sum(rhs),rhsMax =   1.04863719097015E-09  1.53338770170354E-02
 cg2d: Sum(rhs),rhsMax =   1.04869418704467E-09  1.53335813102067E-02
 cg2d: Sum(rhs),rhsMax =   1.04876134165988E-09  1.53332873217650E-02
 cg2d: Sum(rhs),rhsMax =   1.04881719975580E-09  1.53329951286397E-02
 cg2d: Sum(rhs),rhsMax =   1.04888346619258E-09  1.53327047961625E-02
 cg2d: Sum(rhs),rhsMax =   1.04895116204151E-09  1.53324163771592E-02
 cg2d: Sum(rhs),rhsMax =   1.04901438924276E-09  1.53321299152727E-02
 cg2d: Sum(rhs),rhsMax =   1.04906822118167E-09  1.53318454425298E-02
 cg2d: Sum(rhs),rhsMax =   1.04913405740703E-09  1.53315629799733E-02
 cg2d: Sum(rhs),rhsMax =   1.04920007404363E-09  1.53312825377676E-02
 cg2d: Sum(rhs),rhsMax =   1.04926310695586E-09  1.53310041187672E-02
 cg2d: Sum(rhs),rhsMax =   1.04933943478880E-09  1.53307277122286E-02
 cg2d: Sum(rhs),rhsMax =   1.04939694434147E-09  1.53304533007468E-02
 cg2d: Sum(rhs),rhsMax =   1.04944739010016E-09  1.53301808569428E-02
 cg2d: Sum(rhs),rhsMax =   1.04949933465992E-09  1.53299103438943E-02
 cg2d: Sum(rhs),rhsMax =   1.04956396351774E-09  1.53296417202059E-02
 cg2d: Sum(rhs),rhsMax =   1.04962492863958E-09  1.53293749300552E-02
 cg2d: Sum(rhs),rhsMax =   1.04967265435185E-09  1.53291099184759E-02
 cg2d: Sum(rhs),rhsMax =   1.04973545134168E-09  1.53288466185724E-02
 cg2d: Sum(rhs),rhsMax =   1.04978629955621E-09  1.53285849614186E-02
 cg2d: Sum(rhs),rhsMax =   1.04983510773593E-09  1.53283248713300E-02
 cg2d: Sum(rhs),rhsMax =   1.04988405469353E-09  1.53280662661339E-02
 cg2d: Sum(rhs),rhsMax =   1.04994857252905E-09  1.53278090638460E-02
 cg2d: Sum(rhs),rhsMax =   1.05002356809436E-09  1.53275531775485E-02
 cg2d: Sum(rhs),rhsMax =   1.05008188255873E-09  1.53272985174847E-02
 cg2d: Sum(rhs),rhsMax =   1.05013719942093E-09  1.53270449925550E-02
 cg2d: Sum(rhs),rhsMax =   1.05020230012354E-09  1.53267925109184E-02
 cg2d: Sum(rhs),rhsMax =   1.05026365382344E-09  1.53265409787861E-02
 cg2d: Sum(rhs),rhsMax =   1.05032384178916E-09  1.53262903047936E-02
 cg2d: Sum(rhs),rhsMax =   1.05040424969172E-09  1.53260403949836E-02
 cg2d: Sum(rhs),rhsMax =   1.05044181686331E-09  1.53257911580050E-02
 cg2d: Sum(rhs),rhsMax =   1.05051799204059E-09  1.53255435609267E-02
 cg2d: Sum(rhs),rhsMax =   1.05056974231132E-09  1.53252965012380E-02
 cg2d: Sum(rhs),rhsMax =   1.05063234501213E-09  1.53250498253256E-02
 cg2d: Sum(rhs),rhsMax =   1.05068746758530E-09  1.53248034370873E-02
 cg2d: Sum(rhs),rhsMax =   1.05075201317639E-09  1.53245572415692E-02
 cg2d: Sum(rhs),rhsMax =   1.05081687795661E-09  1.53243111492352E-02
 cg2d: Sum(rhs),rhsMax =   1.05088190927027E-09  1.53240650781676E-02
 cg2d: Sum(rhs),rhsMax =   1.05094176416909E-09  1.53238189495076E-02
 cg2d: Sum(rhs),rhsMax =   1.05098833802497E-09  1.53235726906270E-02
 cg2d: Sum(rhs),rhsMax =   1.05106127967769E-09  1.53233262356642E-02
 cg2d: Sum(rhs),rhsMax =   1.05113388826350E-09  1.53230795263005E-02
 cg2d: Sum(rhs),rhsMax =   1.05119186966096E-09  1.53228325096120E-02
 cg2d: Sum(rhs),rhsMax =   1.05125715077481E-09  1.53225851397128E-02
 cg2d: Sum(rhs),rhsMax =   1.05133249328482E-09  1.53223373796234E-02
 cg2d: Sum(rhs),rhsMax =   1.05138464601140E-09  1.53220891986106E-02
 cg2d: Sum(rhs),rhsMax =   1.05146306939030E-09  1.53218405718958E-02
 cg2d: Sum(rhs),rhsMax =   1.05152235529982E-09  1.53215914865654E-02
 cg2d: Sum(rhs),rhsMax =   1.05156698626541E-09  1.53213419325726E-02
 cg2d: Sum(rhs),rhsMax =   1.05162971386630E-09  1.53210919107302E-02
 cg2d: Sum(rhs),rhsMax =   1.05168661279631E-09  1.53208414263236E-02
 cg2d: Sum(rhs),rhsMax =   1.05174301212596E-09  1.53205904932978E-02
 cg2d: Sum(rhs),rhsMax =   1.05178560305674E-09  1.53203391332852E-02
 cg2d: Sum(rhs),rhsMax =   1.05185567200738E-09  1.53200873734239E-02
 cg2d: Sum(rhs),rhsMax =   1.05191470811672E-09  1.53198352487755E-02
 cg2d: Sum(rhs),rhsMax =   1.05197046906813E-09  1.53195827997332E-02
 cg2d: Sum(rhs),rhsMax =   1.05201300448776E-09  1.53193300756785E-02
(PID.TID 0000.0001)      cg2d_init_res =   6.21391882028951E-05
(PID.TID 0000.0001)      cg2d_iters(min,last) =      -1      38
(PID.TID 0000.0001)      cg2d_last_res =   9.04997593431075E-14
(PID.TID 0000.0001) // =======================================================
(PID.TID 0000.0001) // Begin MONITOR dynamic field statistics
(PID.TID 0000.0001) // =======================================================
(PID.TID 0000.0001) %MON time_tsnumber                =                 23328
(PID.TID 0000.0001) %MON time_secondsf                =   5.8320000000000E+05
(PID.TID 0000.0001) %MON dynstat_eta_max              =   4.9018727435706E-03
(PID.TID 0000.0001) %MON dynstat_eta_min              =  -2.4387881880102E-03
(PID.TID 0000.0001) %MON dynstat_eta_mean             =  -1.0792539418701E-13
(PID.TID 0000.0001) %MON dynstat_eta_sd               =   2.4787817774220E-03
(PID.TID 0000.0001) %MON dynstat_eta_del2             =   2.0281805984247E-05
(PID.TID 0000.0001) %MON dynstat_uvel_max             =   4.4587396823939E-02
(PID.TID 0000.0001) %MON dynstat_uvel_min             =  -4.4049578788893E-02
(PID.TID 0000.0001) %MON dynstat_uvel_mean            =   5.9333911478348E-09
(PID.TID 0000.0001) %MON dynstat_uvel_sd              =   6.5794709203468E-03
(PID.TID 0000.0001) %MON dynstat_uvel_del2            =   1.0151708861156E-04
(PID.TID 0000.0001) %MON dynstat_vvel_max             =   2.3263077108752E-02
(PID.TID 0000.0001) %MON dynstat_vvel_min             =  -3.3798342064274E-02
(PID.TID 0000.0001) %MON dynstat_vvel_mean            =  -8.0919745557641E-03
(PID.TID 0000.0001) %MON dynstat_vvel_sd              =   1.1557731238129E-02
(PID.TID 0000.0001) %MON dynstat_vvel_del2            =   9.1101143405143E-05
(PID.TID 0000.0001) %MON dynstat_wvel_max             =   1.3667495614375E-03
(PID.TID 0000.0001) %MON dynstat_wvel_min             =  -1.1094310978792E-03
(PID.TID 0000.0001) %MON dynstat_wvel_mean            =   1.6118740023100E-20
(PID.TID 0000.0001) %MON dynstat_wvel_sd              =   1.2533477346925E-04
(PID.TID 0000.0001) %MON dynstat_wvel_del2            =   6.3969662098066E-06
(PID.TID 0000.0001) %MON dynstat_theta_max            =   2.6931451612903E+00
(PID.TID 0000.0001) %MON dynstat_theta_min            =  -6.7731544007428E-01
(PID.TID 0000.0001) %MON dynstat_theta_mean           =   2.2212795835974E+00
(PID.TID 0000.0001) %MON dynstat_theta_sd             =   5.2657148701979E-01
(PID.TID 0000.0001) %MON dynstat_theta_del2           =   1.6257927484423E-03
(PID.TID 0000.0001) %MON dynstat_salt_max             =   3.4699999999999E+01
(PID.TID 0000.0001) %MON dynstat_salt_min             =   3.3040642991434E+01
(PID.TID 0000.0001) %MON dynstat_salt_mean            =   3.4364036096753E+01
(PID.TID 0000.0001) %MON dynstat_salt_sd              =   3.2237146355458E-01
(PID.TID 0000.0001) %MON dynstat_salt_del2            =   1.9249010904529E-04
(PID.TID 0000.0001) %MON advcfl_uvel_max              =   2.2293698411969E-03
(PID.TID 0000.0001) %MON advcfl_vvel_max              =   1.6899171032137E-03
(PID.TID 0000.0001) %MON advcfl_wvel_max              =   6.6085559028516E-04
(PID.TID 0000.0001) %MON advcfl_W_hf_max              =   1.4076747250003E-03
(PID.TID 0000.0001) %MON pe_b_mean                    =   5.1265035447104E-08
(PID.TID 0000.0001) %MON ke_max                       =   9.3890277694873E-04
(PID.TID 0000.0001) %MON ke_mean                      =   1.1121239211173E-04
(PID.TID 0000.0001) %MON ke_vol                       =   3.2921708585402E+10
(PID.TID 0000.0001) // =======================================================
(PID.TID 0000.0001) // End MONITOR dynamic field statistics
(PID.TID 0000.0001) // =======================================================
(PID.TID 0000.0001) // =======================================================
(PID.TID 0000.0001) // Begin OBCS MONITOR field statistics
(PID.TID 0000.0001) // =======================================================
(PID.TID 0000.0001) %MON obc_E_uVel_max               =   0.0000000000000E+00
(PID.TID 0000.0001) %MON obc_E_uVel_min               =   0.0000000000000E+00
(PID.TID 0000.0001) %MON obc_E_uVel_mean              =   0.0000000000000E+00
(PID.TID 0000.0001) %MON obc_E_uVel_sd                =   0.0000000000000E+00
(PID.TID 0000.0001) %MON obc_E_uVel_Int               =   0.0000000000000E+00
(PID.TID 0000.0001) %MON obc_N_vVel_max               =  -3.6115799844846E-05
(PID.TID 0000.0001) %MON obc_N_vVel_min               =  -3.0000000000000E-02
(PID.TID 0000.0001) %MON obc_N_vVel_mean              =  -1.3225455303334E-02
(PID.TID 0000.0001) %MON obc_N_vVel_sd                =   1.1350864292742E-02
(PID.TID 0000.0001) %MON obc_N_vVel_Int               =  -5.9514548865004E+04
(PID.TID 0000.0001) %MON obc_S_vVel_max               =  -3.6115799844846E-05
(PID.TID 0000.0001) %MON obc_S_vVel_min               =  -3.0000000000000E-02
(PID.TID 0000.0001) %MON obc_S_vVel_mean              =  -1.3225455303334E-02
(PID.TID 0000.0001) %MON obc_S_vVel_sd                =   1.1350864292742E-02
(PID.TID 0000.0001) %MON obc_S_vVel_Int               =  -5.9514548865004E+04
(PID.TID 0000.0001) // =======================================================
(PID.TID 0000.0001) // End OBCS MONITOR field statistics
(PID.TID 0000.0001) // =======================================================
 Computing Diagnostic #    26 "THETA   " (list#  1) Parms "SMR     MR      ", Count=     144
 Computing Diagnostic #    27 "SALT    " (list#  1) Parms "SMR     MR      ", Count=     144
 Computing Diagnostic #    30 "UVEL    " (list#  1) Parms "UUR     MR      ", Count=     144
             Vector  Mate for "UVEL    " :  Diagnostic #     31 "VVEL    " exists
 Computing Diagnostic #    32 "WVEL    " (list#  1) Parms "WM      LR      ", Count=     144
 Computing Diagnostic #    31 "VVEL    " (list#  1) Parms "VVR     MR      ", Count=     144
             Vector  Mate for "VVEL    " :  Diagnostic #     30 "UVEL    " exists
 Computing Diagnostic #   197 "BRGfwFlx" (list#  2) Parms "SM      MR      ", Count=     144
 Computing Diagnostic #   198 "BRGhtFlx" (list#  2) Parms "SM      MR      ", Count=     144
 Computing Diagnostic #   199 "BRGmltRt" (list#  2) Parms "SM      MR      ", Count=     144
 Computing Diagnostic #   201 "BRG_TauX" (list#  2) Parms "UU      MR      ", Count=    1728
 Computing Diagnostic #   202 "BRG_TauY" (list#  2) Parms "VV      MR      ", Count=    1728
 Computing Diagnostic #   203 "BRGhFacC" (list#  2) Parms "SM      MR      ", Count=    1728
 cg2d: Sum(rhs),rhsMax =   1.05207711986743E-09  1.53190771263791E-02
 cg2d: Sum(rhs),rhsMax =   1.05213168732909E-09  1.53188240099930E-02
 cg2d: Sum(rhs),rhsMax =   1.05219433166326E-09  1.53185707875263E-02
 cg2d: Sum(rhs),rhsMax =   1.05224849666907E-09  1.53183175265998E-02
 cg2d: Sum(rhs),rhsMax =   1.05231762193014E-09  1.53180642980302E-02
 cg2d: Sum(rhs),rhsMax =   1.05237547842751E-09  1.53178111751170E-02
 cg2d: Sum(rhs),rhsMax =   1.05242722869825E-09  1.53175582328788E-02
 cg2d: Sum(rhs),rhsMax =   1.05248654236334E-09  1.53173055534885E-02
 cg2d: Sum(rhs),rhsMax =   1.05254789606324E-09  1.53170532160702E-02
 cg2d: Sum(rhs),rhsMax =   1.05259628790932E-09  1.53168013048955E-02
 cg2d: Sum(rhs),rhsMax =   1.05265289540579E-09  1.53165499039738E-02
 cg2d: Sum(rhs),rhsMax =   1.05271545647323E-09  1.53162990947607E-02
 cg2d: Sum(rhs),rhsMax =   1.05278591400193E-09  1.53160489628740E-02
 cg2d: Sum(rhs),rhsMax =   1.05285115348241E-09  1.53157995920336E-02
 cg2d: Sum(rhs),rhsMax =   1.05292251306732E-09  1.53155510632269E-02
 cg2d: Sum(rhs),rhsMax =   1.05299306774054E-09  1.53153034590797E-02
 cg2d: Sum(rhs),rhsMax =   1.05303936404066E-09  1.53150568559132E-02
 cg2d: Sum(rhs),rhsMax =   1.05309043429980E-09  1.53148113305628E-02
 cg2d: Sum(rhs),rhsMax =   1.05313988085776E-09  1.53145669556587E-02
 cg2d: Sum(rhs),rhsMax =   1.05321908139278E-09  1.53143238016515E-02
 cg2d: Sum(rhs),rhsMax =   1.05327550847800E-09  1.53140819339485E-02
 cg2d: Sum(rhs),rhsMax =   1.05332788324919E-09  1.53138414149622E-02
 cg2d: Sum(rhs),rhsMax =   1.05338072986516E-09  1.53136023008562E-02
 cg2d: Sum(rhs),rhsMax =   1.05344458156686E-09  1.53133646463804E-02
 cg2d: Sum(rhs),rhsMax =   1.05350442258789E-09  1.53131284958882E-02
 cg2d: Sum(rhs),rhsMax =   1.05356247337429E-09  1.53128938918900E-02
 cg2d: Sum(rhs),rhsMax =   1.05360856150760E-09  1.53126608726737E-02
 cg2d: Sum(rhs),rhsMax =   1.05366781966154E-09  1.53124294674606E-02
 cg2d: Sum(rhs),rhsMax =   1.05372902070577E-09  1.53121997024074E-02
 cg2d: Sum(rhs),rhsMax =   1.05379308057429E-09  1.53119715940950E-02
 cg2d: Sum(rhs),rhsMax =   1.05384888315907E-09  1.53117451565759E-02
 cg2d: Sum(rhs),rhsMax =   1.05390630944502E-09  1.53115203958710E-02
 cg2d: Sum(rhs),rhsMax =   1.05395213390036E-09  1.53112973104365E-02
 cg2d: Sum(rhs),rhsMax =   1.05401160022112E-09  1.53110758952249E-02
 cg2d: Sum(rhs),rhsMax =   1.05407040040806E-09  1.53108561355621E-02
 cg2d: Sum(rhs),rhsMax =   1.05412098494462E-09  1.53106380156208E-02
 cg2d: Sum(rhs),rhsMax =   1.05419109552862E-09  1.53104215083824E-02
 cg2d: Sum(rhs),rhsMax =   1.05423211826938E-09  1.53102065840288E-02
 cg2d: Sum(rhs),rhsMax =   1.05431643970810E-09  1.53099932047936E-02
 cg2d: Sum(rhs),rhsMax =   1.05437304720457E-09  1.53097813286451E-02
 cg2d: Sum(rhs),rhsMax =   1.05443813402939E-09  1.53095709075715E-02
 cg2d: Sum(rhs),rhsMax =   1.05448488829651E-09  1.53093618875228E-02
 cg2d: Sum(rhs),rhsMax =   1.05454135701510E-09  1.53091542118375E-02
 cg2d: Sum(rhs),rhsMax =   1.05460566668381E-09  1.53089478156184E-02
 cg2d: Sum(rhs),rhsMax =   1.05466051170122E-09  1.53087426321842E-02
 cg2d: Sum(rhs),rhsMax =   1.05471598121909E-09  1.53085385897409E-02
 cg2d: Sum(rhs),rhsMax =   1.05476581635511E-09  1.53083356124056E-02
 cg2d: Sum(rhs),rhsMax =   1.05482245160715E-09  1.53081336229441E-02
 cg2d: Sum(rhs),rhsMax =   1.05487485413391E-09  1.53079325381824E-02
 cg2d: Sum(rhs),rhsMax =   1.05493007385160E-09  1.53077322731060E-02
 cg2d: Sum(rhs),rhsMax =   1.05499264879683E-09  1.53075327417912E-02
 cg2d: Sum(rhs),rhsMax =   1.05505007508278E-09  1.53073338554108E-02
 cg2d: Sum(rhs),rhsMax =   1.05510453152213E-09  1.53071355232979E-02
 cg2d: Sum(rhs),rhsMax =   1.05516788362348E-09  1.53069376530074E-02
 cg2d: Sum(rhs),rhsMax =   1.05522071636166E-09  1.53067401521270E-02
 cg2d: Sum(rhs),rhsMax =   1.05527876714806E-09  1.53065429291967E-02
 cg2d: Sum(rhs),rhsMax =   1.05532863003965E-09  1.53063458900757E-02
 cg2d: Sum(rhs),rhsMax =   1.05538662531490E-09  1.53061489425342E-02
 cg2d: Sum(rhs),rhsMax =   1.05543986050893E-09  1.53059519965684E-02
 cg2d: Sum(rhs),rhsMax =   1.05549607942734E-09  1.53057549594168E-02
 cg2d: Sum(rhs),rhsMax =   1.05554572027433E-09  1.53055577435289E-02
 cg2d: Sum(rhs),rhsMax =   1.05560307717134E-09  1.53053602619824E-02
 cg2d: Sum(rhs),rhsMax =   1.05566773378474E-09  1.53051624306872E-02
 cg2d: Sum(rhs),rhsMax =   1.05571791586545E-09  1.53049641651010E-02
 cg2d: Sum(rhs),rhsMax =   1.05577049880345E-09  1.53047653895645E-02
 cg2d: Sum(rhs),rhsMax =   1.05583468357207E-09  1.53045660236826E-02
 cg2d: Sum(rhs),rhsMax =   1.05590565457891E-09  1.53043660111339E-02
 cg2d: Sum(rhs),rhsMax =   1.05595986121809E-09  1.53041652859808E-02
 cg2d: Sum(rhs),rhsMax =   1.05602104838454E-09  1.53039637776435E-02
 cg2d: Sum(rhs),rhsMax =   1.05608401190782E-09  1.53037614247590E-02
 cg2d: Sum(rhs),rhsMax =   1.05614281209476E-09  1.53035581704138E-02
 cg2d: Sum(rhs),rhsMax =   1.05618500056970E-09  1.53033539611615E-02
 cg2d: Sum(rhs),rhsMax =   1.05624346768973E-09  1.53031487491072E-02
 cg2d: Sum(rhs),rhsMax =   1.05629614777225E-09  1.53029424912368E-02
 cg2d: Sum(rhs),rhsMax =   1.05636122071928E-09  1.53027351470927E-02
 cg2d: Sum(rhs),rhsMax =   1.05642307401954E-09  1.53025266815214E-02
 cg2d: Sum(rhs),rhsMax =   1.05648179093976E-09  1.53023170684195E-02
 cg2d: Sum(rhs),rhsMax =   1.05653412407758E-09  1.53021062805421E-02
 cg2d: Sum(rhs),rhsMax =   1.05659396509861E-09  1.53018943025900E-02
 cg2d: Sum(rhs),rhsMax =   1.05663781890808E-09  1.53016811160545E-02
 cg2d: Sum(rhs),rhsMax =   1.05669917260798E-09  1.53014667157375E-02
 cg2d: Sum(rhs),rhsMax =   1.05675945771821E-09  1.53012510957315E-02
 cg2d: Sum(rhs),rhsMax =   1.05681709217098E-09  1.53010342562511E-02
 cg2d: Sum(rhs),rhsMax =   1.05687719686998E-09  1.53008162034330E-02
 cg2d: Sum(rhs),rhsMax =   1.05693750973579E-09  1.53005969457779E-02
 cg2d: Sum(rhs),rhsMax =   1.05699934915826E-09  1.53003765000965E-02
 cg2d: Sum(rhs),rhsMax =   1.05705402764222E-09  1.53001548846433E-02
 cg2d: Sum(rhs),rhsMax =   1.05711621400939E-09  1.52999321207491E-02
 cg2d: Sum(rhs),rhsMax =   1.05717722076459E-09  1.52997082396008E-02
 cg2d: Sum(rhs),rhsMax =   1.05722687548937E-09  1.52994832713217E-02
 cg2d: Sum(rhs),rhsMax =   1.05726417898300E-09  1.52992572507757E-02
 cg2d: Sum(rhs),rhsMax =   1.05732532451608E-09  1.52990302158626E-02
 cg2d: Sum(rhs),rhsMax =   1.05739389466564E-09  1.52988022079871E-02
 cg2d: Sum(rhs),rhsMax =   1.05745866230134E-09  1.52985732697063E-02
 cg2d: Sum(rhs),rhsMax =   1.05751711554358E-09  1.52983434479908E-02
 cg2d: Sum(rhs),rhsMax =   1.05757533286344E-09  1.52981127905561E-02
 cg2d: Sum(rhs),rhsMax =   1.05764118296658E-09  1.52978813483431E-02
 cg2d: Sum(rhs),rhsMax =   1.05769681901791E-09  1.52976491730236E-02
 cg2d: Sum(rhs),rhsMax =   1.05775611880521E-09  1.52974163180865E-02
 cg2d: Sum(rhs),rhsMax =   1.05780915971021E-09  1.52971828369107E-02
 cg2d: Sum(rhs),rhsMax =   1.05788217075187E-09  1.52969487844548E-02
 cg2d: Sum(rhs),rhsMax =   1.05793135363186E-09  1.52967142165583E-02
 cg2d: Sum(rhs),rhsMax =   1.05799911886972E-09  1.52964791886077E-02
 cg2d: Sum(rhs),rhsMax =   1.05805288141969E-09  1.52962437560679E-02
 cg2d: Sum(rhs),rhsMax =   1.05810823991526E-09  1.52960079709174E-02
 cg2d: Sum(rhs),rhsMax =   1.05815455009317E-09  1.52957718898741E-02
 cg2d: Sum(rhs),rhsMax =   1.05820550933000E-09  1.52955355639236E-02
 cg2d: Sum(rhs),rhsMax =   1.05827016594340E-09  1.52952990437163E-02
 cg2d: Sum(rhs),rhsMax =   1.05833027064239E-09  1.52950623831726E-02
 cg2d: Sum(rhs),rhsMax =   1.05838117436807E-09  1.52948256265497E-02
 cg2d: Sum(rhs),rhsMax =   1.05843762920887E-09  1.52945888182404E-02
 cg2d: Sum(rhs),rhsMax =   1.05850536669116E-09  1.52943520015228E-02
 cg2d: Sum(rhs),rhsMax =   1.05856429177820E-09  1.52941152195640E-02
 cg2d: Sum(rhs),rhsMax =   1.05861244770189E-09  1.52938785078120E-02
 cg2d: Sum(rhs),rhsMax =   1.05867395405745E-09  1.52936419002240E-02
 cg2d: Sum(rhs),rhsMax =   1.05873138034340E-09  1.52934054291875E-02
 cg2d: Sum(rhs),rhsMax =   1.05879152667576E-09  1.52931691207110E-02
 cg2d: Sum(rhs),rhsMax =   1.05885430978780E-09  1.52929330001164E-02
 cg2d: Sum(rhs),rhsMax =   1.05891878598996E-09  1.52926970853625E-02
 cg2d: Sum(rhs),rhsMax =   1.05897998703419E-09  1.52924613928647E-02
 cg2d: Sum(rhs),rhsMax =   1.05904053582240E-09  1.52922259377982E-02
 cg2d: Sum(rhs),rhsMax =   1.05909016279160E-09  1.52919907254837E-02
 cg2d: Sum(rhs),rhsMax =   1.05914579884292E-09  1.52917557617762E-02
 cg2d: Sum(rhs),rhsMax =   1.05920583415298E-09  1.52915210443213E-02
 cg2d: Sum(rhs),rhsMax =   1.05925690441211E-09  1.52912865715906E-02
 cg2d: Sum(rhs),rhsMax =   1.05931967364636E-09  1.52910523340198E-02
 cg2d: Sum(rhs),rhsMax =   1.05937070227213E-09  1.52908183194620E-02
 cg2d: Sum(rhs),rhsMax =   1.05943645523077E-09  1.52905845110226E-02
 cg2d: Sum(rhs),rhsMax =   1.05949170270403E-09  1.52903508886690E-02
 cg2d: Sum(rhs),rhsMax =   1.05955323681517E-09  1.52901174284501E-02
 cg2d: Sum(rhs),rhsMax =   1.05961557583800E-09  1.52898841027431E-02
 cg2d: Sum(rhs),rhsMax =   1.05967093433357E-09  1.52896508796516E-02
 cg2d: Sum(rhs),rhsMax =   1.05972615405125E-09  1.52894177239637E-02
 cg2d: Sum(rhs),rhsMax =   1.05978816000718E-09  1.52891845964820E-02
 cg2d: Sum(rhs),rhsMax =   1.05983563591927E-09  1.52889514583849E-02
 cg2d: Sum(rhs),rhsMax =   1.05988844090188E-09  1.52887182682589E-02
 cg2d: Sum(rhs),rhsMax =   1.05995266730385E-09  1.52884849703723E-02
 cg2d: Sum(rhs),rhsMax =   1.06002216726520E-09  1.52882515160741E-02
 cg2d: Sum(rhs),rhsMax =   1.06008357647625E-09  1.52880178608211E-02
 cg2d: Sum(rhs),rhsMax =   1.06013046952125E-09  1.52877839484916E-02
 cg2d: Sum(rhs),rhsMax =   1.06020164869491E-09  1.52875497217602E-02
 cg2d: Sum(rhs),rhsMax =   1.06025369039919E-09  1.52873151253082E-02
 cg2d: Sum(rhs),rhsMax =   1.06032155278157E-09  1.52870801018204E-02
 cg2d: Sum(rhs),rhsMax =   1.06037323366337E-09  1.52868445928052E-02
 Computing Diagnostic #    26 "THETA   " (list#  1) Parms "SMR     MR      ", Count=     144
 Computing Diagnostic #    27 "SALT    " (list#  1) Parms "SMR     MR      ", Count=     144
 Computing Diagnostic #    30 "UVEL    " (list#  1) Parms "UUR     MR      ", Count=     144
             Vector  Mate for "UVEL    " :  Diagnostic #     31 "VVEL    " exists
 Computing Diagnostic #    32 "WVEL    " (list#  1) Parms "WM      LR      ", Count=     144
 Computing Diagnostic #    31 "VVEL    " (list#  1) Parms "VVR     MR      ", Count=     144
             Vector  Mate for "VVEL    " :  Diagnostic #     30 "UVEL    " exists
 Computing Diagnostic #   197 "BRGfwFlx" (list#  2) Parms "SM      MR      ", Count=     144
 Computing Diagnostic #   198 "BRGhtFlx" (list#  2) Parms "SM      MR      ", Count=     144
 Computing Diagnostic #   199 "BRGmltRt" (list#  2) Parms "SM      MR      ", Count=     144
 Computing Diagnostic #   201 "BRG_TauX" (list#  2) Parms "UU      MR      ", Count=    1728
 Computing Diagnostic #   202 "BRG_TauY" (list#  2) Parms "VV      MR      ", Count=    1728
 Computing Diagnostic #   203 "BRGhFacC" (list#  2) Parms "SM      MR      ", Count=    1728
 cg2d: Sum(rhs),rhsMax =   1.06044201197975E-09  1.52866085398605E-02
 cg2d: Sum(rhs),rhsMax =   1.06050636328181E-09  1.52863718817062E-02
 cg2d: Sum(rhs),rhsMax =   1.06057897186762E-09  1.52861345611138E-02
 cg2d: Sum(rhs),rhsMax =   1.06064597382716E-09  1.52858965189774E-02
 cg2d: Sum(rhs),rhsMax =   1.06069686367505E-09  1.52856576967962E-02
 cg2d: Sum(rhs),rhsMax =   1.06076761263729E-09  1.52854180387768E-02
 cg2d: Sum(rhs),rhsMax =   1.06083866691087E-09  1.52851774898668E-02
 cg2d: Sum(rhs),rhsMax =   1.06089742546445E-09  1.52849359951154E-02
 cg2d: Sum(rhs),rhsMax =   1.06096154084412E-09  1.52846935020693E-02
 cg2d: Sum(rhs),rhsMax =   1.06101440133788E-09  1.52844499615184E-02
 cg2d: Sum(rhs),rhsMax =   1.06108817565786E-09  1.52842053286399E-02
 cg2d: Sum(rhs),rhsMax =   1.06115180531496E-09  1.52839595554209E-02
 cg2d: Sum(rhs),rhsMax =   1.06121290921468E-09  1.52837126012503E-02
 cg2d: Sum(rhs),rhsMax =   1.06127605314921E-09  1.52834644298298E-02
 cg2d: Sum(rhs),rhsMax =   1.06134327715335E-09  1.52832150076213E-02
 cg2d: Sum(rhs),rhsMax =   1.06140950195677E-09  1.52829642985685E-02
 cg2d: Sum(rhs),rhsMax =   1.06147514389310E-09  1.52827122789268E-02
 cg2d: Sum(rhs),rhsMax =   1.06152613088550E-09  1.52824589269016E-02
 cg2d: Sum(rhs),rhsMax =   1.06158656865141E-09  1.52822042223618E-02
 cg2d: Sum(rhs),rhsMax =   1.06164578517198E-09  1.52819481500565E-02
 cg2d: Sum(rhs),rhsMax =   1.06171273162037E-09  1.52816907016177E-02
 cg2d: Sum(rhs),rhsMax =   1.06176385739065E-09  1.52814318710369E-02
 cg2d: Sum(rhs),rhsMax =   1.06182551640188E-09  1.52811716598437E-02
 cg2d: Sum(rhs),rhsMax =   1.06188657866824E-09  1.52809100697714E-02
 cg2d: Sum(rhs),rhsMax =   1.06195555127364E-09  1.52806471130148E-02
 cg2d: Sum(rhs),rhsMax =   1.06201948624207E-09  1.52803828017863E-02
 cg2d: Sum(rhs),rhsMax =   1.06209159522752E-09  1.52801171556871E-02
 cg2d: Sum(rhs),rhsMax =   1.06217304396417E-09  1.52798502004006E-02
 cg2d: Sum(rhs),rhsMax =   1.06223138618411E-09  1.52795819633694E-02
 cg2d: Sum(rhs),rhsMax =   1.06228804919173E-09  1.52793124765587E-02
 cg2d: Sum(rhs),rhsMax =   1.06235172048219E-09  1.52790417797489E-02
 cg2d: Sum(rhs),rhsMax =   1.06240706509997E-09  1.52787699169146E-02
 cg2d: Sum(rhs),rhsMax =   1.06248071451986E-09  1.52784969327295E-02
 cg2d: Sum(rhs),rhsMax =   1.06254349763191E-09  1.52782228805662E-02
 cg2d: Sum(rhs),rhsMax =   1.06260521215429E-09  1.52779478155190E-02
 cg2d: Sum(rhs),rhsMax =   1.06266855037784E-09  1.52776717982012E-02
 cg2d: Sum(rhs),rhsMax =   1.06273195799034E-09  1.52773948902666E-02
 cg2d: Sum(rhs),rhsMax =   1.06279438027990E-09  1.52771171598176E-02
 cg2d: Sum(rhs),rhsMax =   1.06286107692810E-09  1.52768386780638E-02
 cg2d: Sum(rhs),rhsMax =   1.06292363799554E-09  1.52765595150876E-02
 cg2d: Sum(rhs),rhsMax =   1.06298404800587E-09  1.52762797499834E-02
 cg2d: Sum(rhs),rhsMax =   1.06304928748635E-09  1.52759994605029E-02
 cg2d: Sum(rhs),rhsMax =   1.06310679703903E-09  1.52757187306414E-02
 cg2d: Sum(rhs),rhsMax =   1.06316812298335E-09  1.52754376385203E-02
 cg2d: Sum(rhs),rhsMax =   1.06322445292406E-09  1.52751562642501E-02
 cg2d: Sum(rhs),rhsMax =   1.06329228755087E-09  1.52748746931888E-02
 cg2d: Sum(rhs),rhsMax =   1.06335540372982E-09  1.52745930130626E-02
 cg2d: Sum(rhs),rhsMax =   1.06343230055206E-09  1.52743113101322E-02
 cg2d: Sum(rhs),rhsMax =   1.06350023232338E-09  1.52740296716004E-02
 cg2d: Sum(rhs),rhsMax =   1.06357023188508E-09  1.52737481818068E-02
 cg2d: Sum(rhs),rhsMax =   1.06363587382141E-09  1.52734669270257E-02
 cg2d: Sum(rhs),rhsMax =   1.06369153762831E-09  1.52731859923785E-02
 cg2d: Sum(rhs),rhsMax =   1.06376142616771E-09  1.52729054633526E-02
 cg2d: Sum(rhs),rhsMax =   1.06382547215844E-09  1.52726254185826E-02
 cg2d: Sum(rhs),rhsMax =   1.06388811649261E-09  1.52723459412714E-02
 cg2d: Sum(rhs),rhsMax =   1.06395581234153E-09  1.52720671085370E-02
 cg2d: Sum(rhs),rhsMax =   1.06401652766319E-09  1.52717889954933E-02
 cg2d: Sum(rhs),rhsMax =   1.06407185840318E-09  1.52715116759894E-02
 cg2d: Sum(rhs),rhsMax =   1.06413529377125E-09  1.52712352210320E-02
 cg2d: Sum(rhs),rhsMax =   1.06421449430627E-09  1.52709596961697E-02
 cg2d: Sum(rhs),rhsMax =   1.06427815171894E-09  1.52706851668004E-02
 cg2d: Sum(rhs),rhsMax =   1.06433761803970E-09  1.52704116934078E-02
 cg2d: Sum(rhs),rhsMax =   1.06440925518037E-09  1.52701393308047E-02
 cg2d: Sum(rhs),rhsMax =   1.06446775005598E-09  1.52698681320126E-02
 cg2d: Sum(rhs),rhsMax =   1.06452774373267E-09  1.52695981443603E-02
 cg2d: Sum(rhs),rhsMax =   1.06459310811324E-09  1.52693294142960E-02
 cg2d: Sum(rhs),rhsMax =   1.06464770333048E-09  1.52690619769134E-02
 cg2d: Sum(rhs),rhsMax =   1.06469442984203E-09  1.52687958729022E-02
 cg2d: Sum(rhs),rhsMax =   1.06476344408080E-09  1.52685311292981E-02
 cg2d: Sum(rhs),rhsMax =   1.06480420314359E-09  1.52682677719380E-02
 cg2d: Sum(rhs),rhsMax =   1.06486558459906E-09  1.52680058230187E-02
 cg2d: Sum(rhs),rhsMax =   1.06492073492781E-09  1.52677452995466E-02
 cg2d: Sum(rhs),rhsMax =   1.06498115881593E-09  1.52674862125153E-02
 cg2d: Sum(rhs),rhsMax =   1.06504056962553E-09  1.52672285681896E-02
 cg2d: Sum(rhs),rhsMax =   1.06509995267956E-09  1.52669723711638E-02
 cg2d: Sum(rhs),rhsMax =   1.06517752951341E-09  1.52667176205497E-02
 cg2d: Sum(rhs),rhsMax =   1.06523558029981E-09  1.52664643093434E-02
 cg2d: Sum(rhs),rhsMax =   1.06530584353948E-09  1.52662124270841E-02
 cg2d: Sum(rhs),rhsMax =   1.06535884281111E-09  1.52659619607783E-02
 cg2d: Sum(rhs),rhsMax =   1.06541135636018E-09  1.52657128915835E-02
 cg2d: Sum(rhs),rhsMax =   1.06547226597087E-09  1.52654651993786E-02
 cg2d: Sum(rhs),rhsMax =   1.06552934531212E-09  1.52652188579766E-02
 cg2d: Sum(rhs),rhsMax =   1.06559674972750E-09  1.52649738393376E-02
 cg2d: Sum(rhs),rhsMax =   1.06565846424989E-09  1.52647301115804E-02
 cg2d: Sum(rhs),rhsMax =   1.06572949076789E-09  1.52644876424894E-02
 cg2d: Sum(rhs),rhsMax =   1.06578154634995E-09  1.52642463944462E-02
 cg2d: Sum(rhs),rhsMax =   1.06584244208285E-09  1.52640063277177E-02
 cg2d: Sum(rhs),rhsMax =   1.06590916648663E-09  1.52637674026502E-02
 cg2d: Sum(rhs),rhsMax =   1.06597010385290E-09  1.52635295778489E-02
 cg2d: Sum(rhs),rhsMax =   1.06602651706034E-09  1.52632928165751E-02
 cg2d: Sum(rhs),rhsMax =   1.06609222838561E-09  1.52630570755443E-02
 cg2d: Sum(rhs),rhsMax =   1.06614234107738E-09  1.52628223237066E-02
 cg2d: Sum(rhs),rhsMax =   1.06618638917588E-09  1.52625885235462E-02
 cg2d: Sum(rhs),rhsMax =   1.06624779838693E-09  1.52623556370309E-02
 cg2d: Sum(rhs),rhsMax =   1.06631313501193E-09  1.52621236225528E-02
 cg2d: Sum(rhs),rhsMax =   1.06636803554050E-09  1.52618924446913E-02
 cg2d: Sum(rhs),rhsMax =   1.06643079089697E-09  1.52616620639567E-02
 cg2d: Sum(rhs),rhsMax =   1.06648929965036E-09  1.52614324421911E-02
 cg2d: Sum(rhs),rhsMax =   1.06654862719324E-09  1.52612035406432E-02
 cg2d: Sum(rhs),rhsMax =   1.06660687226867E-09  1.52609753237378E-02
 cg2d: Sum(rhs),rhsMax =   1.06666066257421E-09  1.52607477545157E-02
 cg2d: Sum(rhs),rhsMax =   1.06670802746400E-09  1.52605207974172E-02
 cg2d: Sum(rhs),rhsMax =   1.06676423250462E-09  1.52602944380765E-02
 cg2d: Sum(rhs),rhsMax =   1.06681947997789E-09  1.52600692291953E-02
 cg2d: Sum(rhs),rhsMax =   1.06687643441905E-09  1.52598445363040E-02
 cg2d: Sum(rhs),rhsMax =   1.06694085511005E-09  1.52596203184503E-02
 cg2d: Sum(rhs),rhsMax =   1.06701135427212E-09  1.52593965436376E-02
 cg2d: Sum(rhs),rhsMax =   1.06706610214502E-09  1.52591731798536E-02
 cg2d: Sum(rhs),rhsMax =   1.06711357805711E-09  1.52589502054290E-02
 cg2d: Sum(rhs),rhsMax =   1.06717228109954E-09  1.52587275912815E-02
 cg2d: Sum(rhs),rhsMax =   1.06722156112404E-09  1.52585053115290E-02
 cg2d: Sum(rhs),rhsMax =   1.06727934823247E-09  1.52582833455775E-02
 cg2d: Sum(rhs),rhsMax =   1.06733410998316E-09  1.52580616715878E-02
 cg2d: Sum(rhs),rhsMax =   1.06739933558586E-09  1.52578402742783E-02
 cg2d: Sum(rhs),rhsMax =   1.06745415284770E-09  1.52576191454854E-02
 cg2d: Sum(rhs),rhsMax =   1.06751463224697E-09  1.52573982709202E-02
 cg2d: Sum(rhs),rhsMax =   1.06758372975246E-09  1.52571776486337E-02
 cg2d: Sum(rhs),rhsMax =   1.06763867191439E-09  1.52569572762624E-02
 cg2d: Sum(rhs),rhsMax =   1.06769416918784E-09  1.52567371567879E-02
 cg2d: Sum(rhs),rhsMax =   1.06773867525334E-09  1.52565172976056E-02
 cg2d: Sum(rhs),rhsMax =   1.06778388908602E-09  1.52562977032582E-02
 cg2d: Sum(rhs),rhsMax =   1.06783230868768E-09  1.52560783879795E-02
 cg2d: Sum(rhs),rhsMax =   1.06787791109841E-09  1.52558593720396E-02
 cg2d: Sum(rhs),rhsMax =   1.06793854315335E-09  1.52556406750698E-02
 cg2d: Sum(rhs),rhsMax =   1.06799852295225E-09  1.52554222973779E-02
 cg2d: Sum(rhs),rhsMax =   1.06805897459594E-09  1.52552042908328E-02
 cg2d: Sum(rhs),rhsMax =   1.06811667843765E-09  1.52549866881580E-02
 cg2d: Sum(rhs),rhsMax =   1.06816794298581E-09  1.52547695147910E-02
 cg2d: Sum(rhs),rhsMax =   1.06822813095153E-09  1.52545528093628E-02
 cg2d: Sum(rhs),rhsMax =   1.06827131862719E-09  1.52543366143776E-02
 cg2d: Sum(rhs),rhsMax =   1.06833769608627E-09  1.52541209776384E-02
 cg2d: Sum(rhs),rhsMax =   1.06839610769516E-09  1.52539059435481E-02
 cg2d: Sum(rhs),rhsMax =   1.06845353398111E-09  1.52536915645222E-02
 cg2d: Sum(rhs),rhsMax =   1.06851215375681E-09  1.52534778939743E-02
 cg2d: Sum(rhs),rhsMax =   1.06857588055842E-09  1.52532649870401E-02
 cg2d: Sum(rhs),rhsMax =   1.06862849125200E-09  1.52530529004459E-02
 cg2d: Sum(rhs),rhsMax =   1.06867698024260E-09  1.52528416928133E-02
 cg2d: Sum(rhs),rhsMax =   1.06872330429830E-09  1.52526314258326E-02
 cg2d: Sum(rhs),rhsMax =   1.06878295103030E-09  1.52524221624501E-02
 cg2d: Sum(rhs),rhsMax =   1.06883833728144E-09  1.52522139628398E-02
 cg2d: Sum(rhs),rhsMax =   1.06888990714094E-09  1.52520068915213E-02
 cg2d: Sum(rhs),rhsMax =   1.06895742257862E-09  1.52518010137550E-02
 cg2d: Sum(rhs),rhsMax =   1.06901494600908E-09  1.52515963934808E-02
 cg2d: Sum(rhs),rhsMax =   1.06906442032262E-09  1.52513930952214E-02
 Computing Diagnostic #    26 "THETA   " (list#  1) Parms "SMR     MR      ", Count=     144
 Computing Diagnostic #    27 "SALT    " (list#  1) Parms "SMR     MR      ", Count=     144
 Computing Diagnostic #    30 "UVEL    " (list#  1) Parms "UUR     MR      ", Count=     144
             Vector  Mate for "UVEL    " :  Diagnostic #     31 "VVEL    " exists
 Computing Diagnostic #    32 "WVEL    " (list#  1) Parms "WM      LR      ", Count=     144
 Computing Diagnostic #    31 "VVEL    " (list#  1) Parms "VVR     MR      ", Count=     144
             Vector  Mate for "VVEL    " :  Diagnostic #     30 "UVEL    " exists
 Computing Diagnostic #   197 "BRGfwFlx" (list#  2) Parms "SM      MR      ", Count=     144
 Computing Diagnostic #   198 "BRGhtFlx" (list#  2) Parms "SM      MR      ", Count=     144
 Computing Diagnostic #   199 "BRGmltRt" (list#  2) Parms "SM      MR      ", Count=     144
 Computing Diagnostic #   201 "BRG_TauX" (list#  2) Parms "UU      MR      ", Count=    1728
 Computing Diagnostic #   202 "BRG_TauY" (list#  2) Parms "VV      MR      ", Count=    1728
 Computing Diagnostic #   203 "BRGhFacC" (list#  2) Parms "SM      MR      ", Count=    1728
 cg2d: Sum(rhs),rhsMax =   1.06911796082798E-09  1.52511911840182E-02
 cg2d: Sum(rhs),rhsMax =   1.06918145170720E-09  1.52509907209231E-02
 cg2d: Sum(rhs),rhsMax =   1.06923256359970E-09  1.52507917636114E-02
 cg2d: Sum(rhs),rhsMax =   1.06927974807824E-09  1.52505943725466E-02
 cg2d: Sum(rhs),rhsMax =   1.06935182930812E-09  1.52503986006129E-02
 cg2d: Sum(rhs),rhsMax =   1.06941476507583E-09  1.52502045014147E-02
 cg2d: Sum(rhs),rhsMax =   1.06948053191225E-09  1.52500121198386E-02
 cg2d: Sum(rhs),rhsMax =   1.06953022827039E-09  1.52498215034937E-02
 cg2d: Sum(rhs),rhsMax =   1.06958340795327E-09  1.52496326918295E-02
 cg2d: Sum(rhs),rhsMax =   1.06964216650685E-09  1.52494457200066E-02
 cg2d: Sum(rhs),rhsMax =   1.06970012014873E-09  1.52492606193567E-02
 cg2d: Sum(rhs),rhsMax =   1.06975116265229E-09  1.52490774145152E-02
 cg2d: Sum(rhs),rhsMax =   1.06981740133349E-09  1.52488961273894E-02
 cg2d: Sum(rhs),rhsMax =   1.06986663972464E-09  1.52487168914507E-02
 cg2d: Sum(rhs),rhsMax =   1.06992656401239E-09  1.52485396206851E-02
 cg2d: Sum(rhs),rhsMax =   1.06997614934823E-09  1.52483644982144E-02
 cg2d: Sum(rhs),rhsMax =   1.07001997540213E-09  1.52481915242405E-02
 cg2d: Sum(rhs),rhsMax =   1.07006711824731E-09  1.52480207147524E-02
 cg2d: Sum(rhs),rhsMax =   1.07010381111827E-09  1.52478520913217E-02
 cg2d: Sum(rhs),rhsMax =   1.07015789285736E-09  1.52476856653013E-02
 cg2d: Sum(rhs),rhsMax =   1.07021494444304E-09  1.52475214389849E-02
 cg2d: Sum(rhs),rhsMax =   1.07025992235332E-09  1.52473594045214E-02
 cg2d: Sum(rhs),rhsMax =   1.07030589946433E-09  1.52471995457757E-02
 cg2d: Sum(rhs),rhsMax =   1.07035666441213E-09  1.52470418332852E-02
 cg2d: Sum(rhs),rhsMax =   1.07039496710648E-09  1.52468862321967E-02
 cg2d: Sum(rhs),rhsMax =   1.07044521857613E-09  1.52467326957327E-02
 cg2d: Sum(rhs),rhsMax =   1.07049287489946E-09  1.52465811700696E-02
 cg2d: Sum(rhs),rhsMax =   1.07054218267955E-09  1.52464315898805E-02
 cg2d: Sum(rhs),rhsMax =   1.07060822707172E-09  1.52462838832998E-02
 cg2d: Sum(rhs),rhsMax =   1.07065424581609E-09  1.52461379658035E-02
 cg2d: Sum(rhs),rhsMax =   1.07070367849627E-09  1.52459937526377E-02
 cg2d: Sum(rhs),rhsMax =   1.07074624167147E-09  1.52458511418053E-02
 cg2d: Sum(rhs),rhsMax =   1.07079370370577E-09  1.52457100313967E-02
 cg2d: Sum(rhs),rhsMax =   1.07085461331646E-09  1.52455703081182E-02
 cg2d: Sum(rhs),rhsMax =   1.07090622480932E-09  1.52454318549466E-02
 cg2d: Sum(rhs),rhsMax =   1.07096392865103E-09  1.52452945471319E-02
 cg2d: Sum(rhs),rhsMax =   1.07102308966045E-09  1.52451582560701E-02
 cg2d: Sum(rhs),rhsMax =   1.07106958024961E-09  1.52450228472120E-02
 cg2d: Sum(rhs),rhsMax =   1.07111668146143E-09  1.52448881879829E-02
 cg2d: Sum(rhs),rhsMax =   1.07116772396498E-09  1.52447542158603E-02
 cg2d: Sum(rhs),rhsMax =   1.07122466452836E-09  1.52446209053961E-02
 cg2d: Sum(rhs),rhsMax =   1.07128661497313E-09  1.52444881408525E-02
 cg2d: Sum(rhs),rhsMax =   1.07135132709768E-09  1.52443560285339E-02
 cg2d: Sum(rhs),rhsMax =   1.07138915794724E-09  1.52442245047198E-02
 cg2d: Sum(rhs),rhsMax =   1.07143907634999E-09  1.52440935336943E-02
 cg2d: Sum(rhs),rhsMax =   1.07147715699973E-09  1.52439630773810E-02
 cg2d: Sum(rhs),rhsMax =   1.07152790806975E-09  1.52438330957800E-02
 cg2d: Sum(rhs),rhsMax =   1.07157913098455E-09  1.52437035345619E-02
 cg2d: Sum(rhs),rhsMax =   1.07162576035158E-09  1.52435743357823E-02
 cg2d: Sum(rhs),rhsMax =   1.07167981433509E-09  1.52434454294216E-02
 cg2d: Sum(rhs),rhsMax =   1.07172722085824E-09  1.52433167453728E-02
 cg2d: Sum(rhs),rhsMax =   1.07178363406568E-09  1.52431881976547E-02
 cg2d: Sum(rhs),rhsMax =   1.07182547559592E-09  1.52430597007740E-02
 cg2d: Sum(rhs),rhsMax =   1.07187431153122E-09  1.52429311564139E-02
 cg2d: Sum(rhs),rhsMax =   1.07192310583315E-09  1.52428024642866E-02
 cg2d: Sum(rhs),rhsMax =   1.07196493348560E-09  1.52426735152021E-02
 cg2d: Sum(rhs),rhsMax =   1.07202070831480E-09  1.52425441938909E-02
 cg2d: Sum(rhs),rhsMax =   1.07206654664793E-09  1.52424143822948E-02
 cg2d: Sum(rhs),rhsMax =   1.07211962918630E-09  1.52422839546287E-02
 cg2d: Sum(rhs),rhsMax =   1.07217437705920E-09  1.52421527835641E-02
 cg2d: Sum(rhs),rhsMax =   1.07222987433264E-09  1.52420207369682E-02
 cg2d: Sum(rhs),rhsMax =   1.07227486612071E-09  1.52418876783414E-02
 cg2d: Sum(rhs),rhsMax =   1.07232839274829E-09  1.52417534738323E-02
 cg2d: Sum(rhs),rhsMax =   1.07236960977808E-09  1.52416179799289E-02
 cg2d: Sum(rhs),rhsMax =   1.07242108249306E-09  1.52414810599929E-02
 cg2d: Sum(rhs),rhsMax =   1.07247664915544E-09  1.52413425722001E-02
 cg2d: Sum(rhs),rhsMax =   1.07253154968401E-09  1.52412023774273E-02
 cg2d: Sum(rhs),rhsMax =   1.07258536774513E-09  1.52410603388350E-02
 cg2d: Sum(rhs),rhsMax =   1.07263029014426E-09  1.52409163189043E-02
 cg2d: Sum(rhs),rhsMax =   1.07267492110985E-09  1.52407701854210E-02
 cg2d: Sum(rhs),rhsMax =   1.07273059879454E-09  1.52406218066915E-02
 cg2d: Sum(rhs),rhsMax =   1.07278130823119E-09  1.52404710606189E-02
 cg2d: Sum(rhs),rhsMax =   1.07283698591587E-09  1.52403178239062E-02
 cg2d: Sum(rhs),rhsMax =   1.07289901962737E-09  1.52401619851062E-02
 cg2d: Sum(rhs),rhsMax =   1.07294362283739E-09  1.52400034341736E-02
 cg2d: Sum(rhs),rhsMax =   1.07299437390740E-09  1.52398420704204E-02
 cg2d: Sum(rhs),rhsMax =   1.07304967689181E-09  1.52396778018200E-02
 cg2d: Sum(rhs),rhsMax =   1.07310889341239E-09  1.52395105420979E-02
 cg2d: Sum(rhs),rhsMax =   1.07315538400155E-09  1.52393402169319E-02
 cg2d: Sum(rhs),rhsMax =   1.07322190023851E-09  1.52391667571592E-02
 cg2d: Sum(rhs),rhsMax =   1.07326582343692E-09  1.52389901091134E-02
 cg2d: Sum(rhs),rhsMax =   1.07331744880756E-09  1.52388102241116E-02
 cg2d: Sum(rhs),rhsMax =   1.07338168908733E-09  1.52386270658560E-02
 cg2d: Sum(rhs),rhsMax =   1.07344312605395E-09  1.52384406098460E-02
 cg2d: Sum(rhs),rhsMax =   1.07350435485376E-09  1.52382508409587E-02
 cg2d: Sum(rhs),rhsMax =   1.07356454281948E-09  1.52380577575577E-02
 cg2d: Sum(rhs),rhsMax =   1.07362360668439E-09  1.52378613658536E-02
 cg2d: Sum(rhs),rhsMax =   1.07368132440389E-09  1.52376616878363E-02
 cg2d: Sum(rhs),rhsMax =   1.07373548940970E-09  1.52374587540880E-02
 cg2d: Sum(rhs),rhsMax =   1.07379857783307E-09  1.52372526052728E-02
 cg2d: Sum(rhs),rhsMax =   1.07385188241604E-09  1.52370432970766E-02
 cg2d: Sum(rhs),rhsMax =   1.07391828763070E-09  1.52368308939426E-02
 cg2d: Sum(rhs),rhsMax =   1.07397581106117E-09  1.52366154710679E-02
 cg2d: Sum(rhs),rhsMax =   1.07402581273064E-09  1.52363971142991E-02
 cg2d: Sum(rhs),rhsMax =   1.07409076077758E-09  1.52361759188518E-02
 cg2d: Sum(rhs),rhsMax =   1.07414668826245E-09  1.52359519926674E-02
 cg2d: Sum(rhs),rhsMax =   1.07419706463219E-09  1.52357254513845E-02
 cg2d: Sum(rhs),rhsMax =   1.07425440765141E-09  1.52354964164399E-02
 cg2d: Sum(rhs),rhsMax =   1.07430760121208E-09  1.52352650219738E-02
 cg2d: Sum(rhs),rhsMax =   1.07436566587626E-09  1.52350314066369E-02
 cg2d: Sum(rhs),rhsMax =   1.07442853225503E-09  1.52347957170607E-02
 cg2d: Sum(rhs),rhsMax =   1.07449316111285E-09  1.52345581186761E-02
 cg2d: Sum(rhs),rhsMax =   1.07456517295379E-09  1.52343187709624E-02
 cg2d: Sum(rhs),rhsMax =   1.07462078124954E-09  1.52340778387496E-02
 cg2d: Sum(rhs),rhsMax =   1.07467022780749E-09  1.52338354873787E-02
 cg2d: Sum(rhs),rhsMax =   1.07474903976446E-09  1.52335918853371E-02
 cg2d: Sum(rhs),rhsMax =   1.07481117062047E-09  1.52333472057394E-02
 cg2d: Sum(rhs),rhsMax =   1.07487355127667E-09  1.52331016220833E-02
 cg2d: Sum(rhs),rhsMax =   1.07493829115679E-09  1.52328553072022E-02
 cg2d: Sum(rhs),rhsMax =   1.07498737689227E-09  1.52326084331355E-02
 cg2d: Sum(rhs),rhsMax =   1.07505608581970E-09  1.52323611742938E-02
 cg2d: Sum(rhs),rhsMax =   1.07511227698254E-09  1.52321137000996E-02
 cg2d: Sum(rhs),rhsMax =   1.07517143799196E-09  1.52318661774657E-02
 cg2d: Sum(rhs),rhsMax =   1.07523584480518E-09  1.52316187722162E-02
 cg2d: Sum(rhs),rhsMax =   1.07529542214824E-09  1.52313716433319E-02
 cg2d: Sum(rhs),rhsMax =   1.07535585991414E-09  1.52311249466478E-02
 cg2d: Sum(rhs),rhsMax =   1.07541811567025E-09  1.52308788314412E-02
 cg2d: Sum(rhs),rhsMax =   1.07548496497412E-09  1.52306334404370E-02
 cg2d: Sum(rhs),rhsMax =   1.07555354900146E-09  1.52303889090368E-02
 cg2d: Sum(rhs),rhsMax =   1.07560783890737E-09  1.52301453667340E-02
 cg2d: Sum(rhs),rhsMax =   1.07567284246546E-09  1.52299029328040E-02
 cg2d: Sum(rhs),rhsMax =   1.07571979102161E-09  1.52296617170118E-02
 cg2d: Sum(rhs),rhsMax =   1.07579145591785E-09  1.52294218245416E-02
 cg2d: Sum(rhs),rhsMax =   1.07585437780777E-09  1.52291833433433E-02
 cg2d: Sum(rhs),rhsMax =   1.07591488496261E-09  1.52289463595823E-02
 cg2d: Sum(rhs),rhsMax =   1.07596218046346E-09  1.52287109414593E-02
 cg2d: Sum(rhs),rhsMax =   1.07602980692345E-09  1.52284771500798E-02
 cg2d: Sum(rhs),rhsMax =   1.07609052224511E-09  1.52282450352304E-02
 cg2d: Sum(rhs),rhsMax =   1.07615744093792E-09  1.52280146345531E-02
 cg2d: Sum(rhs),rhsMax =   1.07620386213814E-09  1.52277859756506E-02
 cg2d: Sum(rhs),rhsMax =   1.07626675627248E-09  1.52275590728531E-02
 cg2d: Sum(rhs),rhsMax =   1.07632036616678E-09  1.52273339287707E-02
 cg2d: Sum(rhs),rhsMax =   1.07639093471779E-09  1.52271105377414E-02
 cg2d: Sum(rhs),rhsMax =   1.07646300206987E-09  1.52268888785307E-02
 cg2d: Sum(rhs),rhsMax =   1.07650992287045E-09  1.52266689208473E-02
 cg2d: Sum(rhs),rhsMax =   1.07657353864976E-09  1.52264506223351E-02
 cg2d: Sum(rhs),rhsMax =   1.07663604420605E-09  1.52262339307570E-02
 cg2d: Sum(rhs),rhsMax =   1.07669344273642E-09  1.52260187827110E-02
 cg2d: Sum(rhs),rhsMax =   1.07675374172445E-09  1.52258051037234E-02
 cg2d: Sum(rhs),rhsMax =   1.07680675487387E-09  1.52255928092770E-02
 cg2d: Sum(rhs),rhsMax =   1.07687937733747E-09  1.52253818085073E-02
 cg2d: Sum(rhs),rhsMax =   1.07693194639769E-09  1.52251719956143E-02
 cg2d: Sum(rhs),rhsMax =   1.07697317730526E-09  1.52249632630150E-02
 cg2d: Sum(rhs),rhsMax =   1.07703108931378E-09  1.52247554907951E-02
 Computing Diagnostic #    26 "THETA   " (list#  1) Parms "SMR     MR      ", Count=     144
 Computing Diagnostic #    27 "SALT    " (list#  1) Parms "SMR     MR      ", Count=     144
 Computing Diagnostic #    30 "UVEL    " (list#  1) Parms "UUR     MR      ", Count=     144
             Vector  Mate for "UVEL    " :  Diagnostic #     31 "VVEL    " exists
 Computing Diagnostic #    32 "WVEL    " (list#  1) Parms "WM      LR      ", Count=     144
 Computing Diagnostic #    31 "VVEL    " (list#  1) Parms "VVR     MR      ", Count=     144
             Vector  Mate for "VVEL    " :  Diagnostic #     30 "UVEL    " exists
 Computing Diagnostic #   197 "BRGfwFlx" (list#  2) Parms "SM      MR      ", Count=     144
 Computing Diagnostic #   198 "BRGhtFlx" (list#  2) Parms "SM      MR      ", Count=     144
 Computing Diagnostic #   199 "BRGmltRt" (list#  2) Parms "SM      MR      ", Count=     144
 Computing Diagnostic #   201 "BRG_TauX" (list#  2) Parms "UU      MR      ", Count=    1728
 Computing Diagnostic #   202 "BRG_TauY" (list#  2) Parms "VV      MR      ", Count=    1728
 Computing Diagnostic #   203 "BRGhFacC" (list#  2) Parms "SM      MR      ", Count=    1728
 cg2d: Sum(rhs),rhsMax =   1.07707029406434E-09  1.52245485522708E-02
 cg2d: Sum(rhs),rhsMax =   1.07713475638871E-09  1.52243423152549E-02
 cg2d: Sum(rhs),rhsMax =   1.07718430009118E-09  1.52241366405308E-02
 cg2d: Sum(rhs),rhsMax =   1.07725094122824E-09  1.52239313834626E-02
 cg2d: Sum(rhs),rhsMax =   1.07730331599942E-09  1.52237263934303E-02
 cg2d: Sum(rhs),rhsMax =   1.07736507215517E-09  1.52235215194238E-02
 cg2d: Sum(rhs),rhsMax =   1.07742952060175E-09  1.52233166035723E-02
 cg2d: Sum(rhs),rhsMax =   1.07748895916693E-09  1.52231114848223E-02
 cg2d: Sum(rhs),rhsMax =   1.07755579459301E-09  1.52229060055271E-02
 cg2d: Sum(rhs),rhsMax =   1.07761828627151E-09  1.52227000034435E-02
 cg2d: Sum(rhs),rhsMax =   1.07768259594021E-09  1.52224933073786E-02
 cg2d: Sum(rhs),rhsMax =   1.07773727442417E-09  1.52222857814773E-02
 cg2d: Sum(rhs),rhsMax =   1.07779216107495E-09  1.52220772311154E-02
 cg2d: Sum(rhs),rhsMax =   1.07784846326009E-09  1.52218674992665E-02
 cg2d: Sum(rhs),rhsMax =   1.07790462666735E-09  1.52216564424533E-02
 cg2d: Sum(rhs),rhsMax =   1.07796251092029E-09  1.52214439323735E-02
 cg2d: Sum(rhs),rhsMax =   1.07801573223654E-09  1.52212298088916E-02
 cg2d: Sum(rhs),rhsMax =   1.07806712168479E-09  1.52210138885666E-02
 cg2d: Sum(rhs),rhsMax =   1.07811597149787E-09  1.52207960204165E-02
 cg2d: Sum(rhs),rhsMax =   1.07817235694974E-09  1.52205760663329E-02
 cg2d: Sum(rhs),rhsMax =   1.07823497352832E-09  1.52203539090819E-02
 cg2d: Sum(rhs),rhsMax =   1.07830269713283E-09  1.52201294354884E-02
 cg2d: Sum(rhs),rhsMax =   1.07836437002184E-09  1.52199025399434E-02
 cg2d: Sum(rhs),rhsMax =   1.07843128871465E-09  1.52196731092753E-02
 cg2d: Sum(rhs),rhsMax =   1.07848985297920E-09  1.52194410511329E-02
 cg2d: Sum(rhs),rhsMax =   1.07855338549179E-09  1.52192062806471E-02
 cg2d: Sum(rhs),rhsMax =   1.07861539144771E-09  1.52189687177711E-02
 cg2d: Sum(rhs),rhsMax =   1.07869031762409E-09  1.52187282937548E-02
 cg2d: Sum(rhs),rhsMax =   1.07875580690475E-09  1.52184849475490E-02
 cg2d: Sum(rhs),rhsMax =   1.07881852062786E-09  1.52182386319588E-02
 cg2d: Sum(rhs),rhsMax =   1.07887407341245E-09  1.52179893089795E-02
 cg2d: Sum(rhs),rhsMax =   1.07893755041388E-09  1.52177370587208E-02
 cg2d: Sum(rhs),rhsMax =   1.07899690571234E-09  1.52174820604661E-02
 cg2d: Sum(rhs),rhsMax =   1.07905251400808E-09  1.52172240063119E-02
 cg2d: Sum(rhs),rhsMax =   1.07909864377476E-09  1.52169628994723E-02
 cg2d: Sum(rhs),rhsMax =   1.07916900415894E-09  1.52166987500458E-02
 cg2d: Sum(rhs),rhsMax =   1.07923453507297E-09  1.52164315757407E-02
 cg2d: Sum(rhs),rhsMax =   1.07929622183978E-09  1.52161614066626E-02
 cg2d: Sum(rhs),rhsMax =   1.07935915760748E-09  1.52158882832748E-02
 cg2d: Sum(rhs),rhsMax =   1.07942858817989E-09  1.52156122545083E-02
 cg2d: Sum(rhs),rhsMax =   1.07949101046945E-09  1.52153333800772E-02
 cg2d: Sum(rhs),rhsMax =   1.07955237804713E-09  1.52150517286416E-02
 cg2d: Sum(rhs),rhsMax =   1.07961241335719E-09  1.52147673780080E-02
 cg2d: Sum(rhs),rhsMax =   1.07966842410878E-09  1.52144804113871E-02
 cg2d: Sum(rhs),rhsMax =   1.07974232332886E-09  1.52141909255991E-02
 cg2d: Sum(rhs),rhsMax =   1.07979672425706E-09  1.52138990236134E-02
 cg2d: Sum(rhs),rhsMax =   1.07986380948333E-09  1.52136048146181E-02
 cg2d: Sum(rhs),rhsMax =   1.07993845810395E-09  1.52133084182613E-02
 cg2d: Sum(rhs),rhsMax =   1.07999788279134E-09  1.52130099583844E-02
 cg2d: Sum(rhs),rhsMax =   1.08006360799440E-09  1.52127095655351E-02
 cg2d: Sum(rhs),rhsMax =   1.08012569721705E-09  1.52124073762899E-02
 cg2d: Sum(rhs),rhsMax =   1.08018347044769E-09  1.52121035323848E-02
 cg2d: Sum(rhs),rhsMax =   1.08025370593179E-09  1.52117981798775E-02
 cg2d: Sum(rhs),rhsMax =   1.08030993872799E-09  1.52114914706183E-02
 cg2d: Sum(rhs),rhsMax =   1.08035994039746E-09  1.52111835601355E-02
 cg2d: Sum(rhs),rhsMax =   1.08042166879763E-09  1.52108746065520E-02
 cg2d: Sum(rhs),rhsMax =   1.08048106572944E-09  1.52105903459477E-02
 cg2d: Sum(rhs),rhsMax =   1.08054404313052E-09  1.52103061124030E-02
 cg2d: Sum(rhs),rhsMax =   1.08060689563150E-09  1.52100206125270E-02
 cg2d: Sum(rhs),rhsMax =   1.08066239290494E-09  1.52097342453061E-02
 cg2d: Sum(rhs),rhsMax =   1.08074053872809E-09  1.52094470786276E-02
 cg2d: Sum(rhs),rhsMax =   1.08078787586230E-09  1.52091591346534E-02
 cg2d: Sum(rhs),rhsMax =   1.08084902139538E-09  1.52088704452592E-02
 cg2d: Sum(rhs),rhsMax =   1.08090797423799E-09  1.52085810449006E-02
 cg2d: Sum(rhs),rhsMax =   1.08096691320281E-09  1.52082909696694E-02
 cg2d: Sum(rhs),rhsMax =   1.08103424822925E-09  1.52080002621186E-02
 cg2d: Sum(rhs),rhsMax =   1.08111171404079E-09  1.52077089670534E-02
 cg2d: Sum(rhs),rhsMax =   1.08118226871401E-09  1.52074171330633E-02
 cg2d: Sum(rhs),rhsMax =   1.08124970088497E-09  1.52071248113650E-02
 cg2d: Sum(rhs),rhsMax =   1.08132301723796E-09  1.52068320759031E-02
 cg2d: Sum(rhs),rhsMax =   1.08138253906986E-09  1.52065389426232E-02
 cg2d: Sum(rhs),rhsMax =   1.08145781219093E-09  1.52062454886387E-02
 cg2d: Sum(rhs),rhsMax =   1.08151085309593E-09  1.52059517988906E-02
 cg2d: Sum(rhs),rhsMax =   1.08158104694667E-09  1.52056579321603E-02
 cg2d: Sum(rhs),rhsMax =   1.08164831258417E-09  1.52053639556112E-02
 cg2d: Sum(rhs),rhsMax =   1.08171445412086E-09  1.52050699418535E-02
 cg2d: Sum(rhs),rhsMax =   1.08176870239340E-09  1.52047759710204E-02
 cg2d: Sum(rhs),rhsMax =   1.08183327574007E-09  1.52044821237281E-02
 cg2d: Sum(rhs),rhsMax =   1.08189780745338E-09  1.52041884828709E-02
 cg2d: Sum(rhs),rhsMax =   1.08197679982158E-09  1.52038951333295E-02
 cg2d: Sum(rhs),rhsMax =   1.08203410120744E-09  1.52036021612336E-02
 cg2d: Sum(rhs),rhsMax =   1.08209854965402E-09  1.52033096550466E-02
 cg2d: Sum(rhs),rhsMax =   1.08216277605599E-09  1.52030177053282E-02
 cg2d: Sum(rhs),rhsMax =   1.08220905847833E-09  1.52027264044279E-02
 cg2d: Sum(rhs),rhsMax =   1.08227460327015E-09  1.52024358444198E-02
 cg2d: Sum(rhs),rhsMax =   1.08234016193975E-09  1.52021461157414E-02
 cg2d: Sum(rhs),rhsMax =   1.08239871232652E-09  1.52018573364410E-02
 cg2d: Sum(rhs),rhsMax =   1.08246850372140E-09  1.52015695813601E-02
 cg2d: Sum(rhs),rhsMax =   1.08252654063001E-09  1.52012829429976E-02
 cg2d: Sum(rhs),rhsMax =   1.08259418096779E-09  1.52009975198799E-02
 cg2d: Sum(rhs),rhsMax =   1.08266270948398E-09  1.52007134071937E-02
 cg2d: Sum(rhs),rhsMax =   1.08274286758636E-09  1.52004306963525E-02
 cg2d: Sum(rhs),rhsMax =   1.08282061095366E-09  1.52001494754403E-02
 cg2d: Sum(rhs),rhsMax =   1.08289507916304E-09  1.51998698331865E-02
 cg2d: Sum(rhs),rhsMax =   1.08295721001905E-09  1.51995918555232E-02
 cg2d: Sum(rhs),rhsMax =   1.08301799472965E-09  1.51993156247049E-02
 cg2d: Sum(rhs),rhsMax =   1.08307865454016E-09  1.51990412194456E-02
 cg2d: Sum(rhs),rhsMax =   1.08314443525437E-09  1.51987687139627E-02
 cg2d: Sum(rhs),rhsMax =   1.08321268621481E-09  1.51984981790305E-02
 cg2d: Sum(rhs),rhsMax =   1.08326819736604E-09  1.51982296784847E-02
 cg2d: Sum(rhs),rhsMax =   1.08332601223005E-09  1.51979632754012E-02
 cg2d: Sum(rhs),rhsMax =   1.08339011373193E-09  1.51976990253607E-02
 cg2d: Sum(rhs),rhsMax =   1.08345864224813E-09  1.51974369779759E-02
 cg2d: Sum(rhs),rhsMax =   1.08351046190780E-09  1.51971771757293E-02
 cg2d: Sum(rhs),rhsMax =   1.08356702777090E-09  1.51969196576293E-02
 cg2d: Sum(rhs),rhsMax =   1.08362818718177E-09  1.51966644551195E-02
 cg2d: Sum(rhs),rhsMax =   1.08369548057485E-09  1.51964115891185E-02
 cg2d: Sum(rhs),rhsMax =   1.08374613450035E-09  1.51961610786449E-02
 cg2d: Sum(rhs),rhsMax =   1.08381820185244E-09  1.51959129319055E-02
 cg2d: Sum(rhs),rhsMax =   1.08389254516172E-09  1.51956671490572E-02
 cg2d: Sum(rhs),rhsMax =   1.08395015185891E-09  1.51954237239857E-02
 cg2d: Sum(rhs),rhsMax =   1.08399603182541E-09  1.51951826417753E-02
 cg2d: Sum(rhs),rhsMax =   1.08406641996517E-09  1.51949438672365E-02
 cg2d: Sum(rhs),rhsMax =   1.08414076327445E-09  1.51947075921034E-02
 cg2d: Sum(rhs),rhsMax =   1.08418872490912E-09  1.51944735476378E-02
 cg2d: Sum(rhs),rhsMax =   1.08424755285164E-09  1.51942416851676E-02
 cg2d: Sum(rhs),rhsMax =   1.08430549261573E-09  1.51940119453510E-02
 cg2d: Sum(rhs),rhsMax =   1.08436978840665E-09  1.51937842598518E-02
 cg2d: Sum(rhs),rhsMax =   1.08442460566849E-09  1.51935585508431E-02
 cg2d: Sum(rhs),rhsMax =   1.08447849311855E-09  1.51933347369523E-02
 cg2d: Sum(rhs),rhsMax =   1.08453744596115E-09  1.51931127274220E-02
 cg2d: Sum(rhs),rhsMax =   1.08459514980286E-09  1.51928924195037E-02
 cg2d: Sum(rhs),rhsMax =   1.08466532977580E-09  1.51926737074409E-02
 cg2d: Sum(rhs),rhsMax =   1.08471949478162E-09  1.51924564825741E-02
 cg2d: Sum(rhs),rhsMax =   1.08479428218011E-09  1.51922406195158E-02
 cg2d: Sum(rhs),rhsMax =   1.08484801697450E-09  1.51920259922484E-02
 cg2d: Sum(rhs),rhsMax =   1.08489503491960E-09  1.51918124724020E-02
 cg2d: Sum(rhs),rhsMax =   1.08494847828045E-09  1.51915999200049E-02
 cg2d: Sum(rhs),rhsMax =   1.08500608497764E-09  1.51913881879032E-02
 cg2d: Sum(rhs),rhsMax =   1.08507094975785E-09  1.51911771253822E-02
 cg2d: Sum(rhs),rhsMax =   1.08512440699648E-09  1.51909665819014E-02
 cg2d: Sum(rhs),rhsMax =   1.08519065955548E-09  1.51907563951333E-02
 cg2d: Sum(rhs),rhsMax =   1.08525481656851E-09  1.51905464051191E-02
 cg2d: Sum(rhs),rhsMax =   1.08531744702489E-09  1.51903364485692E-02
 cg2d: Sum(rhs),rhsMax =   1.08538193710483E-09  1.51901263566687E-02
 cg2d: Sum(rhs),rhsMax =   1.08543857235688E-09  1.51899159617661E-02
 cg2d: Sum(rhs),rhsMax =   1.08549254307366E-09  1.51897050946820E-02
 cg2d: Sum(rhs),rhsMax =   1.08554866484756E-09  1.51894935865455E-02
 cg2d: Sum(rhs),rhsMax =   1.08561987177680E-09  1.51892812655470E-02
 cg2d: Sum(rhs),rhsMax =   1.08567509149449E-09  1.51890679627095E-02
 cg2d: Sum(rhs),rhsMax =   1.08572695278752E-09  1.51888535109231E-02
 cg2d: Sum(rhs),rhsMax =   1.08579396862485E-09  1.51886377442949E-02
 cg2d: Sum(rhs),rhsMax =   1.08585375413472E-09  1.51884204956086E-02
 cg2d: Sum(rhs),rhsMax =   1.08591394210045E-09  1.51882016073673E-02
 Computing Diagnostic #    26 "THETA   " (list#  1) Parms "SMR     MR      ", Count=     144
 Computing Diagnostic #    27 "SALT    " (list#  1) Parms "SMR     MR      ", Count=     144
 Computing Diagnostic #    30 "UVEL    " (list#  1) Parms "UUR     MR      ", Count=     144
             Vector  Mate for "UVEL    " :  Diagnostic #     31 "VVEL    " exists
 Computing Diagnostic #    32 "WVEL    " (list#  1) Parms "WM      LR      ", Count=     144
 Computing Diagnostic #    31 "VVEL    " (list#  1) Parms "VVR     MR      ", Count=     144
             Vector  Mate for "VVEL    " :  Diagnostic #     30 "UVEL    " exists
 Computing Diagnostic #   197 "BRGfwFlx" (list#  2) Parms "SM      MR      ", Count=     144
 Computing Diagnostic #   198 "BRGhtFlx" (list#  2) Parms "SM      MR      ", Count=     144
 Computing Diagnostic #   199 "BRGmltRt" (list#  2) Parms "SM      MR      ", Count=     144
 Computing Diagnostic #   201 "BRG_TauX" (list#  2) Parms "UU      MR      ", Count=    1728
 Computing Diagnostic #   202 "BRG_TauY" (list#  2) Parms "VV      MR      ", Count=    1728
 Computing Diagnostic #   203 "BRGhFacC" (list#  2) Parms "SM      MR      ", Count=    1728
 cg2d: Sum(rhs),rhsMax =   1.08597542070044E-09  1.51879809195041E-02
 cg2d: Sum(rhs),rhsMax =   1.08602921100598E-09  1.51877582809555E-02
 cg2d: Sum(rhs),rhsMax =   1.08607962900908E-09  1.51875335410432E-02
 cg2d: Sum(rhs),rhsMax =   1.08612609184267E-09  1.51873065585857E-02
 cg2d: Sum(rhs),rhsMax =   1.08617975724812E-09  1.51870771952345E-02
 cg2d: Sum(rhs),rhsMax =   1.08623719741185E-09  1.51868453194253E-02
 cg2d: Sum(rhs),rhsMax =   1.08630508754981E-09  1.51866108076835E-02
 cg2d: Sum(rhs),rhsMax =   1.08636169504628E-09  1.51863735416561E-02
 cg2d: Sum(rhs),rhsMax =   1.08642561613692E-09  1.51861334120481E-02
 cg2d: Sum(rhs),rhsMax =   1.08648154362179E-09  1.51858903191185E-02
 cg2d: Sum(rhs),rhsMax =   1.08654052421997E-09  1.51856441675728E-02
 cg2d: Sum(rhs),rhsMax =   1.08660207220890E-09  1.51853948757216E-02
 cg2d: Sum(rhs),rhsMax =   1.08666817211223E-09  1.51851423640239E-02
 cg2d: Sum(rhs),rhsMax =   1.08673907373014E-09  1.51848865699782E-02
 cg2d: Sum(rhs),rhsMax =   1.08680704713482E-09  1.51846274348200E-02
 cg2d: Sum(rhs),rhsMax =   1.08685917210583E-09  1.51843649130248E-02
 cg2d: Sum(rhs),rhsMax =   1.08693189171394E-09  1.51840989677608E-02
 cg2d: Sum(rhs),rhsMax =   1.08699507728183E-09  1.51838295701490E-02
 cg2d: Sum(rhs),rhsMax =   1.08705767998263E-09  1.51835567045719E-02
 cg2d: Sum(rhs),rhsMax =   1.08711158131047E-09  1.51832803637767E-02
 cg2d: Sum(rhs),rhsMax =   1.08717043700857E-09  1.51830005502501E-02
 cg2d: Sum(rhs),rhsMax =   1.08724555747397E-09  1.51827172779176E-02
 cg2d: Sum(rhs),rhsMax =   1.08731687542551E-09  1.51824305692550E-02
 cg2d: Sum(rhs),rhsMax =   1.08738069937164E-09  1.51821404579436E-02
 cg2d: Sum(rhs),rhsMax =   1.08743700155678E-09  1.51818469852154E-02
 cg2d: Sum(rhs),rhsMax =   1.08750203287045E-09  1.51815502046482E-02
 cg2d: Sum(rhs),rhsMax =   1.08755134065053E-09  1.51812501766454E-02
 cg2d: Sum(rhs),rhsMax =   1.08761352701769E-09  1.51809469714087E-02
 cg2d: Sum(rhs),rhsMax =   1.08767886364269E-09  1.51806406686035E-02
 cg2d: Sum(rhs),rhsMax =   1.08775632945424E-09  1.51803313561959E-02
 cg2d: Sum(rhs),rhsMax =   1.08781669783120E-09  1.51800191303103E-02
 cg2d: Sum(rhs),rhsMax =   1.08788421326889E-09  1.51797040924349E-02
 cg2d: Sum(rhs),rhsMax =   1.08795240871817E-09  1.51793863548203E-02
 cg2d: Sum(rhs),rhsMax =   1.08800567166778E-09  1.51790660353365E-02
 cg2d: Sum(rhs),rhsMax =   1.08806930132488E-09  1.51787432573890E-02
 cg2d: Sum(rhs),rhsMax =   1.08814897370468E-09  1.51784181532672E-02
 cg2d: Sum(rhs),rhsMax =   1.08819593613863E-09  1.51780908571682E-02
 cg2d: Sum(rhs),rhsMax =   1.08825311262439E-09  1.51777615116061E-02
 cg2d: Sum(rhs),rhsMax =   1.08832201584086E-09  1.51774302627397E-02
 cg2d: Sum(rhs),rhsMax =   1.08839677548378E-09  1.51770972601344E-02
 cg2d: Sum(rhs),rhsMax =   1.08847275637203E-09  1.51767626593062E-02
 cg2d: Sum(rhs),rhsMax =   1.08853689950728E-09  1.51764266165144E-02
 cg2d: Sum(rhs),rhsMax =   1.08859592173882E-09  1.51760892919086E-02
 cg2d: Sum(rhs),rhsMax =   1.08867892478770E-09  1.51757508489952E-02
 cg2d: Sum(rhs),rhsMax =   1.08873411674981E-09  1.51754114509982E-02
 cg2d: Sum(rhs),rhsMax =   1.08880615634632E-09  1.51750712632307E-02
 cg2d: Sum(rhs),rhsMax =   1.08887550365200E-09  1.51747304525996E-02
 cg2d: Sum(rhs),rhsMax =   1.08894508688007E-09  1.51743891879557E-02
 cg2d: Sum(rhs),rhsMax =   1.08902095674601E-09  1.51740476329820E-02
 cg2d: Sum(rhs),rhsMax =   1.08908629337101E-09  1.51737059552868E-02
 cg2d: Sum(rhs),rhsMax =   1.08915833296752E-09  1.51733643207584E-02
 cg2d: Sum(rhs),rhsMax =   1.08923649266846E-09  1.51730228915891E-02
 cg2d: Sum(rhs),rhsMax =   1.08929663900081E-09  1.51726818311778E-02
 cg2d: Sum(rhs),rhsMax =   1.08937726894798E-09  1.51723412997857E-02
 cg2d: Sum(rhs),rhsMax =   1.08943237764336E-09  1.51720014545264E-02
 cg2d: Sum(rhs),rhsMax =   1.08948086663396E-09  1.51716624483637E-02
 cg2d: Sum(rhs),rhsMax =   1.08954345545698E-09  1.51713244353803E-02
 cg2d: Sum(rhs),rhsMax =   1.08960962474924E-09  1.51709875614214E-02
 cg2d: Sum(rhs),rhsMax =   1.08968237211293E-09  1.51706519715790E-02
 cg2d: Sum(rhs),rhsMax =   1.08974085311075E-09  1.51703178061895E-02
 cg2d: Sum(rhs),rhsMax =   1.08981414170817E-09  1.51699852001516E-02
 cg2d: Sum(rhs),rhsMax =   1.08988636171592E-09  1.51696542855750E-02
 cg2d: Sum(rhs),rhsMax =   1.08996865699762E-09  1.51693251878662E-02
 cg2d: Sum(rhs),rhsMax =   1.09002726289553E-09  1.51689980286592E-02
 cg2d: Sum(rhs),rhsMax =   1.09008935211818E-09  1.51686729252057E-02
 cg2d: Sum(rhs),rhsMax =   1.09016401461659E-09  1.51683499888739E-02
 cg2d: Sum(rhs),rhsMax =   1.09022445238249E-09  1.51680293248636E-02
 cg2d: Sum(rhs),rhsMax =   1.09029212047584E-09  1.51677110342048E-02
 cg2d: Sum(rhs),rhsMax =   1.09035774853439E-09  1.51673952130122E-02
 cg2d: Sum(rhs),rhsMax =   1.09041237150720E-09  1.51670819481108E-02
 cg2d: Sum(rhs),rhsMax =   1.09047744445423E-09  1.51667713257084E-02
 cg2d: Sum(rhs),rhsMax =   1.09053779895341E-09  1.51664634233513E-02
 cg2d: Sum(rhs),rhsMax =   1.09059072883610E-09  1.51661583136929E-02
 cg2d: Sum(rhs),rhsMax =   1.09065891040760E-09  1.51658560608585E-02
 cg2d: Sum(rhs),rhsMax =   1.09071057741161E-09  1.51655567289160E-02
 cg2d: Sum(rhs),rhsMax =   1.09076485343973E-09  1.51652603739600E-02
 cg2d: Sum(rhs),rhsMax =   1.09082771981850E-09  1.51649670421050E-02
 cg2d: Sum(rhs),rhsMax =   1.09089491606706E-09  1.51646767800078E-02
 cg2d: Sum(rhs),rhsMax =   1.09096731648606E-09  1.51643896246732E-02
 cg2d: Sum(rhs),rhsMax =   1.09103578949110E-09  1.51641056114419E-02
 cg2d: Sum(rhs),rhsMax =   1.09108139190184E-09  1.51638247655828E-02
 cg2d: Sum(rhs),rhsMax =   1.09114765833862E-09  1.51635471096501E-02
 cg2d: Sum(rhs),rhsMax =   1.09121804647838E-09  1.51632726607711E-02
 cg2d: Sum(rhs),rhsMax =   1.09128855951823E-09  1.51630014295752E-02
 cg2d: Sum(rhs),rhsMax =   1.09135613046707E-09  1.51627334232945E-02
 cg2d: Sum(rhs),rhsMax =   1.09140983750589E-09  1.51624686443985E-02
 cg2d: Sum(rhs),rhsMax =   1.09147815785526E-09  1.51622070885308E-02
 cg2d: Sum(rhs),rhsMax =   1.09154542349277E-09  1.51619487468432E-02
 cg2d: Sum(rhs),rhsMax =   1.09160769312666E-09  1.51616936062607E-02
 cg2d: Sum(rhs),rhsMax =   1.09166034545360E-09  1.51614416497412E-02
 cg2d: Sum(rhs),rhsMax =   1.09173138584939E-09  1.51611928549915E-02
 cg2d: Sum(rhs),rhsMax =   1.09179326690523E-09  1.51609471974234E-02
 cg2d: Sum(rhs),rhsMax =   1.09184432328657E-09  1.51607046478513E-02
 cg2d: Sum(rhs),rhsMax =   1.09191476693749E-09  1.51604651696113E-02
 cg2d: Sum(rhs),rhsMax =   1.09198049214054E-09  1.51602287265714E-02
 cg2d: Sum(rhs),rhsMax =   1.09203833476013E-09  1.51599953419830E-02
 cg2d: Sum(rhs),rhsMax =   1.09210188115050E-09  1.51597651606737E-02
 cg2d: Sum(rhs),rhsMax =   1.09216033439274E-09  1.51595381357495E-02
 cg2d: Sum(rhs),rhsMax =   1.09222439426127E-09  1.51593142092313E-02
 cg2d: Sum(rhs),rhsMax =   1.09227998867922E-09  1.51590933196151E-02
 cg2d: Sum(rhs),rhsMax =   1.09234354894738E-09  1.51588754033451E-02
 cg2d: Sum(rhs),rhsMax =   1.09239696455266E-09  1.51586603905939E-02
 cg2d: Sum(rhs),rhsMax =   1.09245497370569E-09  1.51584482066329E-02
 cg2d: Sum(rhs),rhsMax =   1.09251364899254E-09  1.51582387775413E-02
 cg2d: Sum(rhs),rhsMax =   1.09257419778075E-09  1.51580320199597E-02
 cg2d: Sum(rhs),rhsMax =   1.09263346981248E-09  1.51578278484254E-02
 cg2d: Sum(rhs),rhsMax =   1.09268405434904E-09  1.51576261764430E-02
 cg2d: Sum(rhs),rhsMax =   1.09274801707304E-09  1.51574269090287E-02
 cg2d: Sum(rhs),rhsMax =   1.09280405558021E-09  1.51572299535391E-02
 cg2d: Sum(rhs),rhsMax =   1.09287044691708E-09  1.51570352071834E-02
 cg2d: Sum(rhs),rhsMax =   1.09293067651617E-09  1.51568425708143E-02
 cg2d: Sum(rhs),rhsMax =   1.09298772810185E-09  1.51566519347221E-02
 cg2d: Sum(rhs),rhsMax =   1.09304404416477E-09  1.51564631902838E-02
 cg2d: Sum(rhs),rhsMax =   1.09310162310639E-09  1.51562762249800E-02
 cg2d: Sum(rhs),rhsMax =   1.09315445584457E-09  1.51560909207221E-02
 cg2d: Sum(rhs),rhsMax =   1.09319930885476E-09  1.51559071626788E-02
 cg2d: Sum(rhs),rhsMax =   1.09325105912550E-09  1.51557209784008E-02
 cg2d: Sum(rhs),rhsMax =   1.09331793618495E-09  1.51555293726288E-02
 cg2d: Sum(rhs),rhsMax =   1.09338965659234E-09  1.51553391010357E-02
 cg2d: Sum(rhs),rhsMax =   1.09344197585237E-09  1.51551501786140E-02
 cg2d: Sum(rhs),rhsMax =   1.09347791932279E-09  1.51549625752481E-02
 cg2d: Sum(rhs),rhsMax =   1.09354175714671E-09  1.51547762817248E-02
 cg2d: Sum(rhs),rhsMax =   1.09360048794471E-09  1.51545912764769E-02
 cg2d: Sum(rhs),rhsMax =   1.09364217681929E-09  1.51544075336456E-02
 cg2d: Sum(rhs),rhsMax =   1.09369925616054E-09  1.51542250190997E-02
 cg2d: Sum(rhs),rhsMax =   1.09375898615927E-09  1.51540436959395E-02
 cg2d: Sum(rhs),rhsMax =   1.09379758028716E-09  1.51538635221850E-02
 cg2d: Sum(rhs),rhsMax =   1.09385343838309E-09  1.51536844471362E-02
 cg2d: Sum(rhs),rhsMax =   1.09390238534068E-09  1.51535064161566E-02
 cg2d: Sum(rhs),rhsMax =   1.09396501579706E-09  1.51533293669244E-02
 cg2d: Sum(rhs),rhsMax =   1.09403865133917E-09  1.51531532341764E-02
 cg2d: Sum(rhs),rhsMax =   1.09409008242078E-09  1.51529779409267E-02
 cg2d: Sum(rhs),rhsMax =   1.09414326210366E-09  1.51528034094664E-02
 cg2d: Sum(rhs),rhsMax =   1.09419681648681E-09  1.51526295517704E-02
 cg2d: Sum(rhs),rhsMax =   1.09425890570947E-09  1.51524562735961E-02
 cg2d: Sum(rhs),rhsMax =   1.09432227168860E-09  1.51522834795498E-02
 cg2d: Sum(rhs),rhsMax =   1.09437817141789E-09  1.51521110655601E-02
 cg2d: Sum(rhs),rhsMax =   1.09442827023187E-09  1.51519389192338E-02
 cg2d: Sum(rhs),rhsMax =   1.09448748675245E-09  1.51517669252649E-02
 cg2d: Sum(rhs),rhsMax =   1.09453593410969E-09  1.51515949646071E-02
 cg2d: Sum(rhs),rhsMax =   1.09461609221206E-09  1.51514229143310E-02
 cg2d: Sum(rhs),rhsMax =   1.09467762632320E-09  1.51512506457293E-02
 cg2d: Sum(rhs),rhsMax =   1.09472261811128E-09  1.51510780257452E-02
 cg2d: Sum(rhs),rhsMax =   1.09478487386738E-09  1.51509049211270E-02
 Computing Diagnostic #    26 "THETA   " (list#  1) Parms "SMR     MR      ", Count=     144
 Computing Diagnostic #    27 "SALT    " (list#  1) Parms "SMR     MR      ", Count=     144
 Computing Diagnostic #    30 "UVEL    " (list#  1) Parms "UUR     MR      ", Count=     144
             Vector  Mate for "UVEL    " :  Diagnostic #     31 "VVEL    " exists
 Computing Diagnostic #    32 "WVEL    " (list#  1) Parms "WM      LR      ", Count=     144
 Computing Diagnostic #    31 "VVEL    " (list#  1) Parms "VVR     MR      ", Count=     144
             Vector  Mate for "VVEL    " :  Diagnostic #     30 "UVEL    " exists
 Computing Diagnostic #   197 "BRGfwFlx" (list#  2) Parms "SM      MR      ", Count=     144
 Computing Diagnostic #   198 "BRGhtFlx" (list#  2) Parms "SM      MR      ", Count=     144
 Computing Diagnostic #   199 "BRGmltRt" (list#  2) Parms "SM      MR      ", Count=     144
 Computing Diagnostic #   201 "BRG_TauX" (list#  2) Parms "UU      MR      ", Count=    1728
 Computing Diagnostic #   202 "BRG_TauY" (list#  2) Parms "VV      MR      ", Count=    1728
 Computing Diagnostic #   203 "BRGhFacC" (list#  2) Parms "SM      MR      ", Count=    1728
 cg2d: Sum(rhs),rhsMax =   1.09482765908719E-09  1.51507311934238E-02
 cg2d: Sum(rhs),rhsMax =   1.09489030342136E-09  1.51505567034010E-02
 cg2d: Sum(rhs),rhsMax =   1.09494449618275E-09  1.51503813109142E-02
 cg2d: Sum(rhs),rhsMax =   1.09499652400924E-09  1.51502048735814E-02
 cg2d: Sum(rhs),rhsMax =   1.09505951528810E-09  1.51500272500910E-02
 cg2d: Sum(rhs),rhsMax =   1.09512515722443E-09  1.51498482987025E-02
 cg2d: Sum(rhs),rhsMax =   1.09519819602166E-09  1.51496678782740E-02
 cg2d: Sum(rhs),rhsMax =   1.09524890545831E-09  1.51494858489832E-02
 cg2d: Sum(rhs),rhsMax =   1.09530864933483E-09  1.51493020750563E-02
 cg2d: Sum(rhs),rhsMax =   1.09536904546736E-09  1.51491164220296E-02
 cg2d: Sum(rhs),rhsMax =   1.09541768711363E-09  1.51489287584825E-02
 cg2d: Sum(rhs),rhsMax =   1.09547523829967E-09  1.51487389590523E-02
 cg2d: Sum(rhs),rhsMax =   1.09553482952052E-09  1.51485469012820E-02
 cg2d: Sum(rhs),rhsMax =   1.09561150429816E-09  1.51483524683181E-02
 cg2d: Sum(rhs),rhsMax =   1.09567643846731E-09  1.51481555495803E-02
 cg2d: Sum(rhs),rhsMax =   1.09573705664445E-09  1.51479560426379E-02
 cg2d: Sum(rhs),rhsMax =   1.09579474660837E-09  1.51477538475213E-02
 cg2d: Sum(rhs),rhsMax =   1.09585085450448E-09  1.51475488758446E-02
 cg2d: Sum(rhs),rhsMax =   1.09591205554871E-09  1.51473410463946E-02
 cg2d: Sum(rhs),rhsMax =   1.09597288189267E-09  1.51471302853994E-02
 cg2d: Sum(rhs),rhsMax =   1.09602973918932E-09  1.51469165290392E-02
 cg2d: Sum(rhs),rhsMax =   1.09607740939044E-09  1.51466997235613E-02
 cg2d: Sum(rhs),rhsMax =   1.09613562671029E-09  1.51464798259765E-02
 cg2d: Sum(rhs),rhsMax =   1.09618195076600E-09  1.51462567973169E-02
 cg2d: Sum(rhs),rhsMax =   1.09624620492355E-09  1.51460306096416E-02
 cg2d: Sum(rhs),rhsMax =   1.09630518552173E-09  1.51458012467357E-02
 cg2d: Sum(rhs),rhsMax =   1.09636766332244E-09  1.51455687019805E-02
 cg2d: Sum(rhs),rhsMax =   1.09643134849069E-09  1.51453329796338E-02
 cg2d: Sum(rhs),rhsMax =   1.09648440327348E-09  1.51450940954202E-02
 cg2d: Sum(rhs),rhsMax =   1.09655091951044E-09  1.51448520719364E-02
 cg2d: Sum(rhs),rhsMax =   1.09660329428163E-09  1.51446069476833E-02
 cg2d: Sum(rhs),rhsMax =   1.09666395409214E-09  1.51443587667048E-02
 cg2d: Sum(rhs),rhsMax =   1.09672533554761E-09  1.51441075866626E-02
 cg2d: Sum(rhs),rhsMax =   1.09678548187997E-09  1.51438534710484E-02
 cg2d: Sum(rhs),rhsMax =   1.09685308058438E-09  1.51435964990562E-02
 cg2d: Sum(rhs),rhsMax =   1.09691233873832E-09  1.51433367541158E-02
 cg2d: Sum(rhs),rhsMax =   1.09696683681104E-09  1.51430743297063E-02
 cg2d: Sum(rhs),rhsMax =   1.09703592043875E-09  1.51428093323555E-02
 cg2d: Sum(rhs),rhsMax =   1.09710639184524E-09  1.51425418711252E-02
 cg2d: Sum(rhs),rhsMax =   1.09716759288947E-09  1.51422720675493E-02
 cg2d: Sum(rhs),rhsMax =   1.09723073682400E-09  1.51420000469619E-02
 cg2d: Sum(rhs),rhsMax =   1.09730084740800E-09  1.51417259457355E-02
 cg2d: Sum(rhs),rhsMax =   1.09736564279928E-09  1.51414499028422E-02
 cg2d: Sum(rhs),rhsMax =   1.09741853104861E-09  1.51411720673402E-02
 cg2d: Sum(rhs),rhsMax =   1.09748539423027E-09  1.51408925910675E-02
 cg2d: Sum(rhs),rhsMax =   1.09754162702647E-09  1.51406116297816E-02
 cg2d: Sum(rhs),rhsMax =   1.09761075228754E-09  1.51403293435245E-02
 cg2d: Sum(rhs),rhsMax =   1.09767259171001E-09  1.51400458997456E-02
 cg2d: Sum(rhs),rhsMax =   1.09774407619501E-09  1.51397614635908E-02
 cg2d: Sum(rhs),rhsMax =   1.09780604051757E-09  1.51394762054132E-02
 cg2d: Sum(rhs),rhsMax =   1.09787301472153E-09  1.51391902945177E-02
 cg2d: Sum(rhs),rhsMax =   1.09794402736174E-09  1.51389039025177E-02
 cg2d: Sum(rhs),rhsMax =   1.09801405467902E-09  1.51386171998661E-02
 cg2d: Sum(rhs),rhsMax =   1.09808105663856E-09  1.51383303588855E-02
 cg2d: Sum(rhs),rhsMax =   1.09814742021985E-09  1.51380435478499E-02
 cg2d: Sum(rhs),rhsMax =   1.09822136107329E-09  1.51377569342513E-02
 cg2d: Sum(rhs),rhsMax =   1.09829473293743E-09  1.51374706816164E-02
 cg2d: Sum(rhs),rhsMax =   1.09836746642333E-09  1.51371849527828E-02
 cg2d: Sum(rhs),rhsMax =   1.09842979156838E-09  1.51368999046421E-02
 cg2d: Sum(rhs),rhsMax =   1.09848430351889E-09  1.51366156901155E-02
 cg2d: Sum(rhs),rhsMax =   1.09854997321079E-09  1.51363324571697E-02
 cg2d: Sum(rhs),rhsMax =   1.09861228447805E-09  1.51360503466620E-02
 cg2d: Sum(rhs),rhsMax =   1.09868747433239E-09  1.51357693606439E-02
 cg2d: Sum(rhs),rhsMax =   1.09876117926344E-09  1.51354897644103E-02
 cg2d: Sum(rhs),rhsMax =   1.09881498344677E-09  1.51352116838764E-02
 cg2d: Sum(rhs),rhsMax =   1.09887449140089E-09  1.51349352343289E-02
 cg2d: Sum(rhs),rhsMax =   1.09893390221050E-09  1.51346605239272E-02
 cg2d: Sum(rhs),rhsMax =   1.09899311873107E-09  1.51343876543463E-02
 cg2d: Sum(rhs),rhsMax =   1.09905275158528E-09  1.51341167181469E-02
 cg2d: Sum(rhs),rhsMax =   1.09910955337078E-09  1.51338477968053E-02
 cg2d: Sum(rhs),rhsMax =   1.09917218382716E-09  1.51335809654066E-02
 cg2d: Sum(rhs),rhsMax =   1.09923392610511E-09  1.51333162911233E-02
 cg2d: Sum(rhs),rhsMax =   1.09929373937057E-09  1.51330538247148E-02
 cg2d: Sum(rhs),rhsMax =   1.09935226200175E-09  1.51327936185485E-02
 cg2d: Sum(rhs),rhsMax =   1.09940807846431E-09  1.51325357063938E-02
 cg2d: Sum(rhs),rhsMax =   1.09946562965035E-09  1.51322801156715E-02
 cg2d: Sum(rhs),rhsMax =   1.09952869031815E-09  1.51320268658647E-02
 cg2d: Sum(rhs),rhsMax =   1.09960364425010E-09  1.51317759651056E-02
 cg2d: Sum(rhs),rhsMax =   1.09965596351014E-09  1.51315274133656E-02
 cg2d: Sum(rhs),rhsMax =   1.09972754513965E-09  1.51312812011975E-02
 cg2d: Sum(rhs),rhsMax =   1.09980002882537E-09  1.51310373102968E-02
 cg2d: Sum(rhs),rhsMax =   1.09985495710951E-09  1.51307957160334E-02
 cg2d: Sum(rhs),rhsMax =   1.09990991314923E-09  1.51305563779417E-02
 cg2d: Sum(rhs),rhsMax =   1.09997010111496E-09  1.51303192544367E-02
 cg2d: Sum(rhs),rhsMax =   1.10002484898786E-09  1.51300843012644E-02
 cg2d: Sum(rhs),rhsMax =   1.10009704124003E-09  1.51298514592695E-02
 cg2d: Sum(rhs),rhsMax =   1.10014804211023E-09  1.51296206596434E-02
 cg2d: Sum(rhs),rhsMax =   1.10022010946231E-09  1.51293918334217E-02
 cg2d: Sum(rhs),rhsMax =   1.10028873512302E-09  1.51291649021119E-02
 cg2d: Sum(rhs),rhsMax =   1.10035421052590E-09  1.51289397818017E-02
 cg2d: Sum(rhs),rhsMax =   1.10041771528291E-09  1.51287163856750E-02
 cg2d: Sum(rhs),rhsMax =   1.10047905510502E-09  1.51284946194060E-02
 cg2d: Sum(rhs),rhsMax =   1.10054118596103E-09  1.51282743859790E-02
 cg2d: Sum(rhs),rhsMax =   1.10059526770012E-09  1.51280555836171E-02
 cg2d: Sum(rhs),rhsMax =   1.10065102865153E-09  1.51278381084536E-02
 cg2d: Sum(rhs),rhsMax =   1.10071314562976E-09  1.51276218553955E-02
 cg2d: Sum(rhs),rhsMax =   1.10077295889521E-09  1.51274067137642E-02
 cg2d: Sum(rhs),rhsMax =   1.10083255011606E-09  1.51271925751697E-02
 cg2d: Sum(rhs),rhsMax =   1.10087422511285E-09  1.51269793291282E-02
 cg2d: Sum(rhs),rhsMax =   1.10094881822231E-09  1.51267668637690E-02
 cg2d: Sum(rhs),rhsMax =   1.10102001127377E-09  1.51265550694676E-02
 cg2d: Sum(rhs),rhsMax =   1.10107624406997E-09  1.51263438349296E-02
 cg2d: Sum(rhs),rhsMax =   1.10115334905903E-09  1.51261330508413E-02
 cg2d: Sum(rhs),rhsMax =   1.10121473051450E-09  1.51259226113437E-02
 cg2d: Sum(rhs),rhsMax =   1.10127078289946E-09  1.51257124106306E-02
 cg2d: Sum(rhs),rhsMax =   1.10133001329782E-09  1.51255023483397E-02
 cg2d: Sum(rhs),rhsMax =   1.10139414255528E-09  1.51252923224802E-02
 cg2d: Sum(rhs),rhsMax =   1.10145677301166E-09  1.51250822389782E-02
 cg2d: Sum(rhs),rhsMax =   1.10151275600767E-09  1.51248720057428E-02
 cg2d: Sum(rhs),rhsMax =   1.10156651855764E-09  1.51246615351360E-02
 cg2d: Sum(rhs),rhsMax =   1.10161534061515E-09  1.51244507449294E-02
 cg2d: Sum(rhs),rhsMax =   1.10167888700552E-09  1.51242395561284E-02
 cg2d: Sum(rhs),rhsMax =   1.10173632716926E-09  1.51240278935354E-02
 cg2d: Sum(rhs),rhsMax =   1.10181215540184E-09  1.51238156920809E-02
 cg2d: Sum(rhs),rhsMax =   1.10186605672968E-09  1.51236028873133E-02
 cg2d: Sum(rhs),rhsMax =   1.10193694446981E-09  1.51233894242308E-02
 cg2d: Sum(rhs),rhsMax =   1.10199403768885E-09  1.51231752521923E-02
 cg2d: Sum(rhs),rhsMax =   1.10205565506671E-09  1.51229603245649E-02
 cg2d: Sum(rhs),rhsMax =   1.10211086090661E-09  1.51227446035597E-02
 cg2d: Sum(rhs),rhsMax =   1.10216935578222E-09  1.51225280565542E-02
 cg2d: Sum(rhs),rhsMax =   1.10222081461941E-09  1.51223106546825E-02
 cg2d: Sum(rhs),rhsMax =   1.10227554861453E-09  1.51220923822170E-02
 cg2d: Sum(rhs),rhsMax =   1.10233848438224E-09  1.51218732194249E-02
 cg2d: Sum(rhs),rhsMax =   1.10239600781270E-09  1.51216531594983E-02
 cg2d: Sum(rhs),rhsMax =   1.10246410611747E-09  1.51214321993853E-02
 cg2d: Sum(rhs),rhsMax =   1.10251410778694E-09  1.51212103424812E-02
 cg2d: Sum(rhs),rhsMax =   1.10259648633537E-09  1.51209875957079E-02
 cg2d: Sum(rhs),rhsMax =   1.10264909702895E-09  1.51207639721671E-02
 cg2d: Sum(rhs),rhsMax =   1.10271564102149E-09  1.51205394916670E-02
 cg2d: Sum(rhs),rhsMax =   1.10276254794428E-09  1.51203141762865E-02
 cg2d: Sum(rhs),rhsMax =   1.10282170895371E-09  1.51200880546650E-02
 cg2d: Sum(rhs),rhsMax =   1.10287912136187E-09  1.51198611587646E-02
 cg2d: Sum(rhs),rhsMax =   1.10294150201806E-09  1.51196335225202E-02
 cg2d: Sum(rhs),rhsMax =   1.10299711031381E-09  1.51194198267825E-02
 cg2d: Sum(rhs),rhsMax =   1.10305661826793E-09  1.51192062864147E-02
 cg2d: Sum(rhs),rhsMax =   1.10309809897569E-09  1.51189928205605E-02
 cg2d: Sum(rhs),rhsMax =   1.10314660184407E-09  1.51187794945695E-02
 cg2d: Sum(rhs),rhsMax =   1.10320555468668E-09  1.51185662749186E-02
 cg2d: Sum(rhs),rhsMax =   1.10327492974793E-09  1.51183531547140E-02
 cg2d: Sum(rhs),rhsMax =   1.10333366054594E-09  1.51181401312937E-02
 cg2d: Sum(rhs),rhsMax =   1.10338799208520E-09  1.51179272009904E-02
 cg2d: Sum(rhs),rhsMax =   1.10344984538546E-09  1.51177143646952E-02
 cg2d: Sum(rhs),rhsMax =   1.10351545956622E-09  1.51175016162916E-02
 cg2d: Sum(rhs),rhsMax =   1.10358065741334E-09  1.51172889590495E-02
(PID.TID 0000.0001)      cg2d_init_res =   7.24966663978877E-05
(PID.TID 0000.0001)      cg2d_iters(min,last) =      -1      38
(PID.TID 0000.0001)      cg2d_last_res =   9.25769619964909E-14
(PID.TID 0000.0001) // =======================================================
(PID.TID 0000.0001) // Begin MONITOR dynamic field statistics
(PID.TID 0000.0001) // =======================================================
(PID.TID 0000.0001) %MON time_tsnumber                =                 24192
(PID.TID 0000.0001) %MON time_secondsf                =   6.0480000000000E+05
(PID.TID 0000.0001) %MON dynstat_eta_max              =   4.8649855733863E-03
(PID.TID 0000.0001) %MON dynstat_eta_min              =  -2.4218695189429E-03
(PID.TID 0000.0001) %MON dynstat_eta_mean             =  -1.1172116044757E-13
(PID.TID 0000.0001) %MON dynstat_eta_sd               =   2.4584828118875E-03
(PID.TID 0000.0001) %MON dynstat_eta_del2             =   2.0048406375672E-05
(PID.TID 0000.0001) %MON dynstat_uvel_max             =   4.4422896811700E-02
(PID.TID 0000.0001) %MON dynstat_uvel_min             =  -4.4337529569773E-02
(PID.TID 0000.0001) %MON dynstat_uvel_mean            =   5.7094513597339E-09
(PID.TID 0000.0001) %MON dynstat_uvel_sd              =   6.6008549278845E-03
(PID.TID 0000.0001) %MON dynstat_uvel_del2            =   1.0149390168636E-04
(PID.TID 0000.0001) %MON dynstat_vvel_max             =   2.3368443008264E-02
(PID.TID 0000.0001) %MON dynstat_vvel_min             =  -3.4059178015582E-02
(PID.TID 0000.0001) %MON dynstat_vvel_mean            =  -8.0919745725835E-03
(PID.TID 0000.0001) %MON dynstat_vvel_sd              =   1.1566273065190E-02
(PID.TID 0000.0001) %MON dynstat_vvel_del2            =   9.1071143624734E-05
(PID.TID 0000.0001) %MON dynstat_wvel_max             =   1.3663043265043E-03
(PID.TID 0000.0001) %MON dynstat_wvel_min             =  -1.1172070128823E-03
(PID.TID 0000.0001) %MON dynstat_wvel_mean            =   2.2488021686154E-21
(PID.TID 0000.0001) %MON dynstat_wvel_sd              =   1.2537339475330E-04
(PID.TID 0000.0001) %MON dynstat_wvel_del2            =   6.4018065241560E-06
(PID.TID 0000.0001) %MON dynstat_theta_max            =   2.6931451612903E+00
(PID.TID 0000.0001) %MON dynstat_theta_min            =  -6.9148744842316E-01
(PID.TID 0000.0001) %MON dynstat_theta_mean           =   2.2208155008628E+00
(PID.TID 0000.0001) %MON dynstat_theta_sd             =   5.2804241224491E-01
(PID.TID 0000.0001) %MON dynstat_theta_del2           =   1.6339801739332E-03
(PID.TID 0000.0001) %MON dynstat_salt_max             =   3.4699999999999E+01
(PID.TID 0000.0001) %MON dynstat_salt_min             =   3.3043373544231E+01
(PID.TID 0000.0001) %MON dynstat_salt_mean            =   3.4364022595878E+01
(PID.TID 0000.0001) %MON dynstat_salt_sd              =   3.2235273326116E-01
(PID.TID 0000.0001) %MON dynstat_salt_del2            =   1.9205458172501E-04
(PID.TID 0000.0001) %MON advcfl_uvel_max              =   2.2211448405850E-03
(PID.TID 0000.0001) %MON advcfl_vvel_max              =   1.7029589007791E-03
(PID.TID 0000.0001) %MON advcfl_wvel_max              =   6.6096431723436E-04
(PID.TID 0000.0001) %MON advcfl_W_hf_max              =   1.4072161582080E-03
(PID.TID 0000.0001) %MON pe_b_mean                    =   5.0428845426196E-08
(PID.TID 0000.0001) %MON ke_max                       =   9.5382687470518E-04
(PID.TID 0000.0001) %MON ke_mean                      =   1.1145187677622E-04
(PID.TID 0000.0001) %MON ke_vol                       =   3.2921708585402E+10
(PID.TID 0000.0001) // =======================================================
(PID.TID 0000.0001) // End MONITOR dynamic field statistics
(PID.TID 0000.0001) // =======================================================
(PID.TID 0000.0001) // =======================================================
(PID.TID 0000.0001) // Begin OBCS MONITOR field statistics
(PID.TID 0000.0001) // =======================================================
(PID.TID 0000.0001) %MON obc_E_uVel_max               =   0.0000000000000E+00
(PID.TID 0000.0001) %MON obc_E_uVel_min               =   0.0000000000000E+00
(PID.TID 0000.0001) %MON obc_E_uVel_mean              =   0.0000000000000E+00
(PID.TID 0000.0001) %MON obc_E_uVel_sd                =   0.0000000000000E+00
(PID.TID 0000.0001) %MON obc_E_uVel_Int               =   0.0000000000000E+00
(PID.TID 0000.0001) %MON obc_N_vVel_max               =  -3.6115799844846E-05
(PID.TID 0000.0001) %MON obc_N_vVel_min               =  -3.0000000000000E-02
(PID.TID 0000.0001) %MON obc_N_vVel_mean              =  -1.3225455303334E-02
(PID.TID 0000.0001) %MON obc_N_vVel_sd                =   1.1350864292742E-02
(PID.TID 0000.0001) %MON obc_N_vVel_Int               =  -5.9514548865004E+04
(PID.TID 0000.0001) %MON obc_S_vVel_max               =  -3.6115799844846E-05
(PID.TID 0000.0001) %MON obc_S_vVel_min               =  -3.0000000000000E-02
(PID.TID 0000.0001) %MON obc_S_vVel_mean              =  -1.3225455303334E-02
(PID.TID 0000.0001) %MON obc_S_vVel_sd                =   1.1350864292742E-02
(PID.TID 0000.0001) %MON obc_S_vVel_Int               =  -5.9514548865004E+04
(PID.TID 0000.0001) // =======================================================
(PID.TID 0000.0001) // End OBCS MONITOR field statistics
(PID.TID 0000.0001) // =======================================================
 Computing Diagnostic #    26 "THETA   " (list#  1) Parms "SMR     MR      ", Count=     144
 Computing Diagnostic #    27 "SALT    " (list#  1) Parms "SMR     MR      ", Count=     144
 Computing Diagnostic #    30 "UVEL    " (list#  1) Parms "UUR     MR      ", Count=     144
             Vector  Mate for "UVEL    " :  Diagnostic #     31 "VVEL    " exists
 Computing Diagnostic #    32 "WVEL    " (list#  1) Parms "WM      LR      ", Count=     144
 Computing Diagnostic #    31 "VVEL    " (list#  1) Parms "VVR     MR      ", Count=     144
             Vector  Mate for "VVEL    " :  Diagnostic #     30 "UVEL    " exists
 Computing Diagnostic #   197 "BRGfwFlx" (list#  2) Parms "SM      MR      ", Count=     144
 Computing Diagnostic #   198 "BRGhtFlx" (list#  2) Parms "SM      MR      ", Count=     144
 Computing Diagnostic #   199 "BRGmltRt" (list#  2) Parms "SM      MR      ", Count=     144
 Computing Diagnostic #   201 "BRG_TauX" (list#  2) Parms "UU      MR      ", Count=    1728
 Computing Diagnostic #   202 "BRG_TauY" (list#  2) Parms "VV      MR      ", Count=    1728
 Computing Diagnostic #   203 "BRGhFacC" (list#  2) Parms "SM      MR      ", Count=    1728
(PID.TID 0000.0001) %CHECKPOINT     24192 0000024192
 cg2d: Sum(rhs),rhsMax =   1.10363077010511E-09  1.51170763897209E-02
 cg2d: Sum(rhs),rhsMax =   1.10368467143296E-09  1.51168639105670E-02
 cg2d: Sum(rhs),rhsMax =   1.10374080708464E-09  1.51166515201600E-02
 cg2d: Sum(rhs),rhsMax =   1.10380529716458E-09  1.51164392192759E-02
 cg2d: Sum(rhs),rhsMax =   1.10384680562792E-09  1.51162270108370E-02
 cg2d: Sum(rhs),rhsMax =   1.10390219187906E-09  1.51160148922584E-02
 cg2d: Sum(rhs),rhsMax =   1.10395832753074E-09  1.51158028664725E-02
 cg2d: Sum(rhs),rhsMax =   1.10400069641692E-09  1.51155909331784E-02
 cg2d: Sum(rhs),rhsMax =   1.10406768449867E-09  1.51153790894810E-02
 cg2d: Sum(rhs),rhsMax =   1.10411835230195E-09  1.51151673372251E-02
 cg2d: Sum(rhs),rhsMax =   1.10418216237029E-09  1.51149556731371E-02
 cg2d: Sum(rhs),rhsMax =   1.10422493371232E-09  1.51147440940005E-02
 cg2d: Sum(rhs),rhsMax =   1.10429326793948E-09  1.51145325974819E-02
 cg2d: Sum(rhs),rhsMax =   1.10434472677667E-09  1.51143211777322E-02
 cg2d: Sum(rhs),rhsMax =   1.10439789258177E-09  1.51141098306528E-02
 cg2d: Sum(rhs),rhsMax =   1.10446293777322E-09  1.51138985473454E-02
 cg2d: Sum(rhs),rhsMax =   1.10452845480946E-09  1.51136873206203E-02
 cg2d: Sum(rhs),rhsMax =   1.10458558966187E-09  1.51134761406843E-02
 cg2d: Sum(rhs),rhsMax =   1.10464164204682E-09  1.51132649976717E-02
 cg2d: Sum(rhs),rhsMax =   1.10470868563972E-09  1.51130538769800E-02
 cg2d: Sum(rhs),rhsMax =   1.10476840176066E-09  1.51128427667857E-02
 cg2d: Sum(rhs),rhsMax =   1.10482578641324E-09  1.51126316517606E-02
 cg2d: Sum(rhs),rhsMax =   1.10489761784294E-09  1.51124205137281E-02
 cg2d: Sum(rhs),rhsMax =   1.10495312899417E-09  1.51122093339127E-02
 cg2d: Sum(rhs),rhsMax =   1.10499778771533E-09  1.51119980933663E-02
 cg2d: Sum(rhs),rhsMax =   1.10505567196828E-09  1.51117867697335E-02
 cg2d: Sum(rhs),rhsMax =   1.10513037610005E-09  1.51115753402939E-02
 cg2d: Sum(rhs),rhsMax =   1.10518552642880E-09  1.51113637789879E-02
 cg2d: Sum(rhs),rhsMax =   1.10524646379506E-09  1.51111520587474E-02
 cg2d: Sum(rhs),rhsMax =   1.10532197283852E-09  1.51109401531688E-02
 cg2d: Sum(rhs),rhsMax =   1.10538395103887E-09  1.51107280314075E-02
 cg2d: Sum(rhs),rhsMax =   1.10544812192970E-09  1.51105156631913E-02
 cg2d: Sum(rhs),rhsMax =   1.10550581189361E-09  1.51103030157044E-02
 cg2d: Sum(rhs),rhsMax =   1.10556888643920E-09  1.51100900559443E-02
 cg2d: Sum(rhs),rhsMax =   1.10561883259752E-09  1.51098767479254E-02
 cg2d: Sum(rhs),rhsMax =   1.10567903444103E-09  1.51096630573875E-02
 cg2d: Sum(rhs),rhsMax =   1.10573783462797E-09  1.51094489444021E-02
 cg2d: Sum(rhs),rhsMax =   1.10579803647148E-09  1.51092343728437E-02
 cg2d: Sum(rhs),rhsMax =   1.10585597623558E-09  1.51090193038400E-02
 cg2d: Sum(rhs),rhsMax =   1.10591566460094E-09  1.51088036968688E-02
 cg2d: Sum(rhs),rhsMax =   1.10598229186021E-09  1.51085875158678E-02
 cg2d: Sum(rhs),rhsMax =   1.10603701197753E-09  1.51083707228217E-02
 cg2d: Sum(rhs),rhsMax =   1.10610032244551E-09  1.51081532755057E-02
 cg2d: Sum(rhs),rhsMax =   1.10615511195178E-09  1.51079351330265E-02
 cg2d: Sum(rhs),rhsMax =   1.10621035942504E-09  1.51077162524416E-02
 cg2d: Sum(rhs),rhsMax =   1.10628559091275E-09  1.51074965928224E-02
 cg2d: Sum(rhs),rhsMax =   1.10635424432903E-09  1.51072761131734E-02
 cg2d: Sum(rhs),rhsMax =   1.10640950568008E-09  1.51070547696922E-02
 cg2d: Sum(rhs),rhsMax =   1.10646553030946E-09  1.51068325263469E-02
 cg2d: Sum(rhs),rhsMax =   1.10651632301284E-09  1.51066093403070E-02
 cg2d: Sum(rhs),rhsMax =   1.10657734364583E-09  1.51063851721259E-02
 cg2d: Sum(rhs),rhsMax =   1.10664018226903E-09  1.51061599854086E-02
 cg2d: Sum(rhs),rhsMax =   1.10668772757005E-09  1.51059337418751E-02
 cg2d: Sum(rhs),rhsMax =   1.10674859554738E-09  1.51057064070577E-02
 cg2d: Sum(rhs),rhsMax =   1.10681180887084E-09  1.51054779458054E-02
 cg2d: Sum(rhs),rhsMax =   1.10686572407648E-09  1.51052483275871E-02
 cg2d: Sum(rhs),rhsMax =   1.10691460164514E-09  1.51050175184346E-02
 cg2d: Sum(rhs),rhsMax =   1.10698337996151E-09  1.51047854927372E-02
 cg2d: Sum(rhs),rhsMax =   1.10704967415387E-09  1.51045522216046E-02
 cg2d: Sum(rhs),rhsMax =   1.10710413059323E-09  1.51043176818530E-02
 cg2d: Sum(rhs),rhsMax =   1.10717406076599E-09  1.51040818481287E-02
 cg2d: Sum(rhs),rhsMax =   1.10721991297691E-09  1.51038447037747E-02
 cg2d: Sum(rhs),rhsMax =   1.10728876068222E-09  1.51036062306629E-02
 cg2d: Sum(rhs),rhsMax =   1.10734160729820E-09  1.51033664125044E-02
 cg2d: Sum(rhs),rhsMax =   1.10740570880008E-09  1.51031252388740E-02
 cg2d: Sum(rhs),rhsMax =   1.10745955461677E-09  1.51028826990461E-02
 cg2d: Sum(rhs),rhsMax =   1.10752772231049E-09  1.51026387889435E-02
 cg2d: Sum(rhs),rhsMax =   1.10757160387553E-09  1.51023935033512E-02
 cg2d: Sum(rhs),rhsMax =   1.10763913319101E-09  1.51021468362735E-02
 cg2d: Sum(rhs),rhsMax =   1.10770607963939E-09  1.51018987853494E-02
 cg2d: Sum(rhs),rhsMax =   1.10776117445699E-09  1.51016493589744E-02
 cg2d: Sum(rhs),rhsMax =   1.10782015505517E-09  1.51013985654112E-02
 cg2d: Sum(rhs),rhsMax =   1.10788428431263E-09  1.51011464185094E-02
 cg2d: Sum(rhs),rhsMax =   1.10795474184133E-09  1.51008929348438E-02
 cg2d: Sum(rhs),rhsMax =   1.10801465225130E-09  1.51006381350499E-02
 cg2d: Sum(rhs),rhsMax =   1.10807678310731E-09  1.51003820408863E-02
 cg2d: Sum(rhs),rhsMax =   1.10814060705344E-09  1.51001246808680E-02
 cg2d: Sum(rhs),rhsMax =   1.10819720067212E-09  1.50998660831066E-02
 cg2d: Sum(rhs),rhsMax =   1.10826811616782E-09  1.50996062819308E-02
 cg2d: Sum(rhs),rhsMax =   1.10833441036018E-09  1.50993453115185E-02
 cg2d: Sum(rhs),rhsMax =   1.10840304989868E-09  1.50990832130727E-02
 cg2d: Sum(rhs),rhsMax =   1.10846858081270E-09  1.50988200280153E-02
 cg2d: Sum(rhs),rhsMax =   1.10853426438240E-09  1.50985558013397E-02
 cg2d: Sum(rhs),rhsMax =   1.10859882385128E-09  1.50982905818915E-02
 cg2d: Sum(rhs),rhsMax =   1.10865099045565E-09  1.50980244176031E-02
 cg2d: Sum(rhs),rhsMax =   1.10870237990390E-09  1.50977573628445E-02
 cg2d: Sum(rhs),rhsMax =   1.10875734982141E-09  1.50974894765764E-02
 cg2d: Sum(rhs),rhsMax =   1.10882743264984E-09  1.50972208162629E-02
 cg2d: Sum(rhs),rhsMax =   1.10889725180030E-09  1.50969514431485E-02
 cg2d: Sum(rhs),rhsMax =   1.10895465033067E-09  1.50966814175451E-02
 cg2d: Sum(rhs),rhsMax =   1.10902137473445E-09  1.50964108029618E-02
 cg2d: Sum(rhs),rhsMax =   1.10908872363868E-09  1.50961396635237E-02
 cg2d: Sum(rhs),rhsMax =   1.10912985740175E-09  1.50958680652999E-02
 cg2d: Sum(rhs),rhsMax =   1.10918488283041E-09  1.50955960745751E-02
 cg2d: Sum(rhs),rhsMax =   1.10924644469712E-09  1.50953237608542E-02
 cg2d: Sum(rhs),rhsMax =   1.10931266950054E-09  1.50950511917012E-02
 cg2d: Sum(rhs),rhsMax =   1.10935634289877E-09  1.50947784342134E-02
 cg2d: Sum(rhs),rhsMax =   1.10943398912156E-09  1.50945055602096E-02
 cg2d: Sum(rhs),rhsMax =   1.10950075515870E-09  1.50942326376711E-02
 cg2d: Sum(rhs),rhsMax =   1.10955995780149E-09  1.50939597344402E-02
 cg2d: Sum(rhs),rhsMax =   1.10963196964242E-09  1.50936869210491E-02
 cg2d: Sum(rhs),rhsMax =   1.10968861877225E-09  1.50934142619546E-02
 cg2d: Sum(rhs),rhsMax =   1.10975865996732E-09  1.50931418268412E-02
 cg2d: Sum(rhs),rhsMax =   1.10982567580464E-09  1.50928696803126E-02
 cg2d: Sum(rhs),rhsMax =   1.10990090729235E-09  1.50925978853269E-02
 cg2d: Sum(rhs),rhsMax =   1.10995647395473E-09  1.50923265087523E-02
 cg2d: Sum(rhs),rhsMax =   1.11002103342361E-09  1.50920556066719E-02
 cg2d: Sum(rhs),rhsMax =   1.11008646719313E-09  1.50917852368618E-02
 cg2d: Sum(rhs),rhsMax =   1.11014937520526E-09  1.50915154570713E-02
 cg2d: Sum(rhs),rhsMax =   1.11020799498096E-09  1.50912463231922E-02
 cg2d: Sum(rhs),rhsMax =   1.11028158888971E-09  1.50909778838980E-02
 cg2d: Sum(rhs),rhsMax =   1.11033585104003E-09  1.50907101920451E-02
 cg2d: Sum(rhs),rhsMax =   1.11039966110837E-09  1.50904432930717E-02
 cg2d: Sum(rhs),rhsMax =   1.11047317175039E-09  1.50901772312820E-02
 cg2d: Sum(rhs),rhsMax =   1.11054525298027E-09  1.50899120464494E-02
 cg2d: Sum(rhs),rhsMax =   1.11061129737244E-09  1.50896477775356E-02
 cg2d: Sum(rhs),rhsMax =   1.11066304764318E-09  1.50893844579726E-02
 cg2d: Sum(rhs),rhsMax =   1.11072330499784E-09  1.50891221174878E-02
 cg2d: Sum(rhs),rhsMax =   1.11078161946221E-09  1.50888607839552E-02
 cg2d: Sum(rhs),rhsMax =   1.11084616505330E-09  1.50886004807140E-02
 cg2d: Sum(rhs),rhsMax =   1.11090538157388E-09  1.50883412275871E-02
 cg2d: Sum(rhs),rhsMax =   1.11096197519256E-09  1.50880830391288E-02
 cg2d: Sum(rhs),rhsMax =   1.11103086453124E-09  1.50878259286663E-02
 cg2d: Sum(rhs),rhsMax =   1.11110082245958E-09  1.50875699038427E-02
 cg2d: Sum(rhs),rhsMax =   1.11114939471690E-09  1.50873149668837E-02
 cg2d: Sum(rhs),rhsMax =   1.11120838919287E-09  1.50870611199914E-02
 cg2d: Sum(rhs),rhsMax =   1.11126971513720E-09  1.50868083583305E-02
 cg2d: Sum(rhs),rhsMax =   1.11131903679507E-09  1.50865566751962E-02
 cg2d: Sum(rhs),rhsMax =   1.11137357650115E-09  1.50863060573545E-02
 cg2d: Sum(rhs),rhsMax =   1.11143727554719E-09  1.50860564894724E-02
 cg2d: Sum(rhs),rhsMax =   1.11150097459323E-09  1.50858079532937E-02
 cg2d: Sum(rhs),rhsMax =   1.11155112891836E-09  1.50855604239778E-02
 cg2d: Sum(rhs),rhsMax =   1.11163134253189E-09  1.50853138761786E-02
 cg2d: Sum(rhs),rhsMax =   1.11168919902926E-09  1.50850682777529E-02
 cg2d: Sum(rhs),rhsMax =   1.11175603445535E-09  1.50848235970630E-02
 cg2d: Sum(rhs),rhsMax =   1.11181067130595E-09  1.50845797951561E-02
 cg2d: Sum(rhs),rhsMax =   1.11187539730828E-09  1.50843368254682E-02
 cg2d: Sum(rhs),rhsMax =   1.11193769469775E-09  1.50840946459841E-02
 cg2d: Sum(rhs),rhsMax =   1.11199331687128E-09  1.50838532093838E-02
 cg2d: Sum(rhs),rhsMax =   1.11206457931168E-09  1.50836124636485E-02
 cg2d: Sum(rhs),rhsMax =   1.11212805631311E-09  1.50833723572251E-02
 cg2d: Sum(rhs),rhsMax =   1.11219500276150E-09  1.50831328368144E-02
 cg2d: Sum(rhs),rhsMax =   1.11224920940067E-09  1.50828938420544E-02
 cg2d: Sum(rhs),rhsMax =   1.11229593591222E-09  1.50826553148385E-02
 Computing Diagnostic #    26 "THETA   " (list#  1) Parms "SMR     MR      ", Count=     144
 Computing Diagnostic #    27 "SALT    " (list#  1) Parms "SMR     MR      ", Count=     144
 Computing Diagnostic #    30 "UVEL    " (list#  1) Parms "UUR     MR      ", Count=     144
             Vector  Mate for "UVEL    " :  Diagnostic #     31 "VVEL    " exists
 Computing Diagnostic #    32 "WVEL    " (list#  1) Parms "WM      LR      ", Count=     144
 Computing Diagnostic #    31 "VVEL    " (list#  1) Parms "VVR     MR      ", Count=     144
             Vector  Mate for "VVEL    " :  Diagnostic #     30 "UVEL    " exists
 Computing Diagnostic #   197 "BRGfwFlx" (list#  2) Parms "SM      MR      ", Count=     144
 Computing Diagnostic #   198 "BRGhtFlx" (list#  2) Parms "SM      MR      ", Count=     144
 Computing Diagnostic #   199 "BRGmltRt" (list#  2) Parms "SM      MR      ", Count=     144
 Computing Diagnostic #   201 "BRG_TauX" (list#  2) Parms "UU      MR      ", Count=    1728
 Computing Diagnostic #   202 "BRG_TauY" (list#  2) Parms "VV      MR      ", Count=    1728
 Computing Diagnostic #   203 "BRGhFacC" (list#  2) Parms "SM      MR      ", Count=    1728
 cg2d: Sum(rhs),rhsMax =   1.11234250976811E-09  1.50824171916245E-02
 cg2d: Sum(rhs),rhsMax =   1.11241357791947E-09  1.50821794101489E-02
 cg2d: Sum(rhs),rhsMax =   1.11246997724912E-09  1.50819419031705E-02
 cg2d: Sum(rhs),rhsMax =   1.11253405099543E-09  1.50817046022002E-02
 cg2d: Sum(rhs),rhsMax =   1.11259512713957E-09  1.50814674393018E-02
 cg2d: Sum(rhs),rhsMax =   1.11265521796078E-09  1.50812303451770E-02
 cg2d: Sum(rhs),rhsMax =   1.11271147851255E-09  1.50809932454285E-02
 cg2d: Sum(rhs),rhsMax =   1.11277442815805E-09  1.50807560708450E-02
 cg2d: Sum(rhs),rhsMax =   1.11283142423257E-09  1.50805187458654E-02
 cg2d: Sum(rhs),rhsMax =   1.11289502613410E-09  1.50802811962863E-02
 cg2d: Sum(rhs),rhsMax =   1.11294509719251E-09  1.50800433486697E-02
 cg2d: Sum(rhs),rhsMax =   1.11299466865056E-09  1.50798051289444E-02
 cg2d: Sum(rhs),rhsMax =   1.11304676586599E-09  1.50795664661467E-02
 cg2d: Sum(rhs),rhsMax =   1.11310792527686E-09  1.50793272765970E-02
 cg2d: Sum(rhs),rhsMax =   1.11316955653251E-09  1.50790874873074E-02
 cg2d: Sum(rhs),rhsMax =   1.11323113227701E-09  1.50788470234486E-02
 cg2d: Sum(rhs),rhsMax =   1.11328644913922E-09  1.50786058117842E-02
 cg2d: Sum(rhs),rhsMax =   1.11334347296932E-09  1.50783637785327E-02
 cg2d: Sum(rhs),rhsMax =   1.11341066921788E-09  1.50781208515993E-02
 cg2d: Sum(rhs),rhsMax =   1.11347034370546E-09  1.50778769576638E-02
 cg2d: Sum(rhs),rhsMax =   1.11353348763998E-09  1.50776320250114E-02
 cg2d: Sum(rhs),rhsMax =   1.11360555499207E-09  1.50773859831776E-02
 cg2d: Sum(rhs),rhsMax =   1.11366021959824E-09  1.50771387625213E-02
 cg2d: Sum(rhs),rhsMax =   1.11371233069146E-09  1.50768902934877E-02
 cg2d: Sum(rhs),rhsMax =   1.11376644018613E-09  1.50766405102402E-02
 cg2d: Sum(rhs),rhsMax =   1.11382433831686E-09  1.50763893444272E-02
 cg2d: Sum(rhs),rhsMax =   1.11387914170091E-09  1.50761367336194E-02
 cg2d: Sum(rhs),rhsMax =   1.11393920476655E-09  1.50758826122395E-02
 cg2d: Sum(rhs),rhsMax =   1.11400895452807E-09  1.50756269205265E-02
 cg2d: Sum(rhs),rhsMax =   1.11405976110923E-09  1.50753695966694E-02
 cg2d: Sum(rhs),rhsMax =   1.11411693759500E-09  1.50751105848427E-02
 cg2d: Sum(rhs),rhsMax =   1.11417390591395E-09  1.50748498245128E-02
 cg2d: Sum(rhs),rhsMax =   1.11423775761565E-09  1.50745872630317E-02
 cg2d: Sum(rhs),rhsMax =   1.11428716254025E-09  1.50743228467680E-02
 cg2d: Sum(rhs),rhsMax =   1.11434772520624E-09  1.50740565231516E-02
 cg2d: Sum(rhs),rhsMax =   1.11440012773301E-09  1.50737882424386E-02
 cg2d: Sum(rhs),rhsMax =   1.11447176487367E-09  1.50735179566208E-02
 cg2d: Sum(rhs),rhsMax =   1.11453635209813E-09  1.50732456197641E-02
 cg2d: Sum(rhs),rhsMax =   1.11459047547058E-09  1.50729711871267E-02
 cg2d: Sum(rhs),rhsMax =   1.11466676167016E-09  1.50726946161910E-02
 cg2d: Sum(rhs),rhsMax =   1.11473194563949E-09  1.50724158678401E-02
 cg2d: Sum(rhs),rhsMax =   1.11479331321718E-09  1.50721348999869E-02
 cg2d: Sum(rhs),rhsMax =   1.11486189724452E-09  1.50718516797284E-02
 cg2d: Sum(rhs),rhsMax =   1.11492050314244E-09  1.50715661713896E-02
 cg2d: Sum(rhs),rhsMax =   1.11498549282274E-09  1.50712783411062E-02
 cg2d: Sum(rhs),rhsMax =   1.11503827004977E-09  1.50709881592455E-02
 cg2d: Sum(rhs),rhsMax =   1.11511327949287E-09  1.50706955979632E-02
 cg2d: Sum(rhs),rhsMax =   1.11517887979584E-09  1.50704006309074E-02
 cg2d: Sum(rhs),rhsMax =   1.11524237067506E-09  1.50701032337516E-02
 cg2d: Sum(rhs),rhsMax =   1.11530723545528E-09  1.50698033844604E-02
 cg2d: Sum(rhs),rhsMax =   1.11537017122298E-09  1.50695010641408E-02
 cg2d: Sum(rhs),rhsMax =   1.11543382863566E-09  1.50691962550296E-02
 cg2d: Sum(rhs),rhsMax =   1.11548843773068E-09  1.50688889414096E-02
 cg2d: Sum(rhs),rhsMax =   1.11555174819866E-09  1.50685791113788E-02
 cg2d: Sum(rhs),rhsMax =   1.11562978299951E-09  1.50682667550951E-02
 cg2d: Sum(rhs),rhsMax =   1.11570204464062E-09  1.50679518640766E-02
 cg2d: Sum(rhs),rhsMax =   1.11577967698562E-09  1.50676344327802E-02
 cg2d: Sum(rhs),rhsMax =   1.11584311235369E-09  1.50673144595407E-02
 cg2d: Sum(rhs),rhsMax =   1.11590228724090E-09  1.50669919443708E-02
 cg2d: Sum(rhs),rhsMax =   1.11597021901222E-09  1.50666668900814E-02
 cg2d: Sum(rhs),rhsMax =   1.11603422336959E-09  1.50663393019243E-02
 cg2d: Sum(rhs),rhsMax =   1.11610563846565E-09  1.50660091881884E-02
 cg2d: Sum(rhs),rhsMax =   1.11616904607814E-09  1.50656765617930E-02
 cg2d: Sum(rhs),rhsMax =   1.11623493781465E-09  1.50653414347955E-02
 cg2d: Sum(rhs),rhsMax =   1.11629855359396E-09  1.50650038275724E-02
 cg2d: Sum(rhs),rhsMax =   1.11636984378993E-09  1.50646637594522E-02
 cg2d: Sum(rhs),rhsMax =   1.11643133626771E-09  1.50643212547515E-02
 cg2d: Sum(rhs),rhsMax =   1.11650971801325E-09  1.50639763405516E-02
 cg2d: Sum(rhs),rhsMax =   1.11657202928050E-09  1.50636290486801E-02
 cg2d: Sum(rhs),rhsMax =   1.11663706059417E-09  1.50632794131627E-02
 cg2d: Sum(rhs),rhsMax =   1.11669302971240E-09  1.50629274713565E-02
 cg2d: Sum(rhs),rhsMax =   1.11678172265428E-09  1.50625732653843E-02
 cg2d: Sum(rhs),rhsMax =   1.11685215242741E-09  1.50622168409864E-02
 cg2d: Sum(rhs),rhsMax =   1.11690262594166E-09  1.50618582431951E-02
 cg2d: Sum(rhs),rhsMax =   1.11696904503411E-09  1.50614975291245E-02
 cg2d: Sum(rhs),rhsMax =   1.11704166749771E-09  1.50611347757224E-02
 cg2d: Sum(rhs),rhsMax =   1.11710983519142E-09  1.50607699805116E-02
 cg2d: Sum(rhs),rhsMax =   1.11716967621245E-09  1.50604032560983E-02
 cg2d: Sum(rhs),rhsMax =   1.11725620421943E-09  1.50600346719088E-02
 cg2d: Sum(rhs),rhsMax =   1.11733065855102E-09  1.50596642900421E-02
 cg2d: Sum(rhs),rhsMax =   1.11740885988532E-09  1.50592921820677E-02
 cg2d: Sum(rhs),rhsMax =   1.11748620079677E-09  1.50589184300275E-02
 cg2d: Sum(rhs),rhsMax =   1.11756148779563E-09  1.50585431119653E-02
 cg2d: Sum(rhs),rhsMax =   1.11764293653227E-09  1.50581661244795E-02
 cg2d: Sum(rhs),rhsMax =   1.11771207567113E-09  1.50577877518491E-02
 cg2d: Sum(rhs),rhsMax =   1.11778672429175E-09  1.50574080942421E-02
 cg2d: Sum(rhs),rhsMax =   1.11785983247792E-09  1.50570272535531E-02
 cg2d: Sum(rhs),rhsMax =   1.11793733992283E-09  1.50566453357070E-02
 cg2d: Sum(rhs),rhsMax =   1.11800199653622E-09  1.50562624524598E-02
 cg2d: Sum(rhs),rhsMax =   1.11808276526126E-09  1.50558787181552E-02
 cg2d: Sum(rhs),rhsMax =   1.11815766368206E-09  1.50554942494673E-02
 cg2d: Sum(rhs),rhsMax =   1.11822411053009E-09  1.50551091691458E-02
 cg2d: Sum(rhs),rhsMax =   1.11830364413201E-09  1.50547236019638E-02
 cg2d: Sum(rhs),rhsMax =   1.11838090177674E-09  1.50543376728025E-02
 cg2d: Sum(rhs),rhsMax =   1.11846837347329E-09  1.50539515154896E-02
 cg2d: Sum(rhs),rhsMax =   1.11854230044894E-09  1.50535652595514E-02
 cg2d: Sum(rhs),rhsMax =   1.11861774010347E-09  1.50531790424584E-02
 cg2d: Sum(rhs),rhsMax =   1.11868743435384E-09  1.50527930056679E-02
 cg2d: Sum(rhs),rhsMax =   1.11874952357649E-09  1.50524072853076E-02
 cg2d: Sum(rhs),rhsMax =   1.11882027253873E-09  1.50520220201875E-02
 cg2d: Sum(rhs),rhsMax =   1.11890319232089E-09  1.50516373543488E-02
 cg2d: Sum(rhs),rhsMax =   1.11896972243564E-09  1.50512534316803E-02
 cg2d: Sum(rhs),rhsMax =   1.11904029098664E-09  1.50508703952647E-02
 cg2d: Sum(rhs),rhsMax =   1.11910662681236E-09  1.50504883890551E-02
 cg2d: Sum(rhs),rhsMax =   1.11916999279149E-09  1.50501075558771E-02
 cg2d: Sum(rhs),rhsMax =   1.11924604306868E-09  1.50497280422842E-02
 cg2d: Sum(rhs),rhsMax =   1.11932624280442E-09  1.50493499869433E-02
 cg2d: Sum(rhs),rhsMax =   1.11939781055614E-09  1.50489735325467E-02
 cg2d: Sum(rhs),rhsMax =   1.11947073833107E-09  1.50485988192338E-02
 cg2d: Sum(rhs),rhsMax =   1.11954047421481E-09  1.50482259882611E-02
 cg2d: Sum(rhs),rhsMax =   1.11961613591394E-09  1.50478551748315E-02
 cg2d: Sum(rhs),rhsMax =   1.11969641891640E-09  1.50474865102529E-02
 cg2d: Sum(rhs),rhsMax =   1.11975549665910E-09  1.50471201264716E-02
 cg2d: Sum(rhs),rhsMax =   1.11982892403439E-09  1.50467561514994E-02
 cg2d: Sum(rhs),rhsMax =   1.11990318407695E-09  1.50463947072797E-02
 cg2d: Sum(rhs),rhsMax =   1.11998371687960E-09  1.50460359073600E-02
 cg2d: Sum(rhs),rhsMax =   1.12005638097656E-09  1.50456798516902E-02
 cg2d: Sum(rhs),rhsMax =   1.12010514752292E-09  1.50453266629738E-02
 cg2d: Sum(rhs),rhsMax =   1.12020127895907E-09  1.50449764250753E-02
 cg2d: Sum(rhs),rhsMax =   1.12025792808890E-09  1.50446292329456E-02
 cg2d: Sum(rhs),rhsMax =   1.12032884358459E-09  1.50442851779106E-02
 cg2d: Sum(rhs),rhsMax =   1.12039769128991E-09  1.50439443440630E-02
 cg2d: Sum(rhs),rhsMax =   1.12045664413252E-09  1.50436068058805E-02
 cg2d: Sum(rhs),rhsMax =   1.12053166745341E-09  1.50432726368985E-02
 cg2d: Sum(rhs),rhsMax =   1.12059810042364E-09  1.50429419013944E-02
 cg2d: Sum(rhs),rhsMax =   1.12066388113785E-09  1.50426146552548E-02
 cg2d: Sum(rhs),rhsMax =   1.12073672564605E-09  1.50422909540544E-02
 cg2d: Sum(rhs),rhsMax =   1.12080998648789E-09  1.50419708432630E-02
 cg2d: Sum(rhs),rhsMax =   1.12087684966955E-09  1.50416543636926E-02
 cg2d: Sum(rhs),rhsMax =   1.12093319348805E-09  1.50413415429865E-02
 cg2d: Sum(rhs),rhsMax =   1.12100413673932E-09  1.50410324070051E-02
 cg2d: Sum(rhs),rhsMax =   1.12107324812261E-09  1.50407269681752E-02
 cg2d: Sum(rhs),rhsMax =   1.12114761918747E-09  1.50404252413890E-02
 cg2d: Sum(rhs),rhsMax =   1.12122523765468E-09  1.50401272275109E-02
 cg2d: Sum(rhs),rhsMax =   1.12129373841530E-09  1.50398329242033E-02
 cg2d: Sum(rhs),rhsMax =   1.12136569474508E-09  1.50395423216337E-02
 cg2d: Sum(rhs),rhsMax =   1.12142993502484E-09  1.50392554038313E-02
 cg2d: Sum(rhs),rhsMax =   1.12150283504420E-09  1.50389721482884E-02
 cg2d: Sum(rhs),rhsMax =   1.12155876252906E-09  1.50386925245802E-02
 cg2d: Sum(rhs),rhsMax =   1.12162421017636E-09  1.50384164984225E-02
 cg2d: Sum(rhs),rhsMax =   1.12168040133920E-09  1.50381440233054E-02
 cg2d: Sum(rhs),rhsMax =   1.12175470301512E-09  1.50378750538948E-02
 cg2d: Sum(rhs),rhsMax =   1.12181954003976E-09  1.50376095379399E-02
 cg2d: Sum(rhs),rhsMax =   1.12189114942485E-09  1.50373474129964E-02
 Computing Diagnostic #    26 "THETA   " (list#  1) Parms "SMR     MR      ", Count=     144
 Computing Diagnostic #    27 "SALT    " (list#  1) Parms "SMR     MR      ", Count=     144
 Computing Diagnostic #    30 "UVEL    " (list#  1) Parms "UUR     MR      ", Count=     144
             Vector  Mate for "UVEL    " :  Diagnostic #     31 "VVEL    " exists
 Computing Diagnostic #    32 "WVEL    " (list#  1) Parms "WM      LR      ", Count=     144
 Computing Diagnostic #    31 "VVEL    " (list#  1) Parms "VVR     MR      ", Count=     144
             Vector  Mate for "VVEL    " :  Diagnostic #     30 "UVEL    " exists
 Computing Diagnostic #   197 "BRGfwFlx" (list#  2) Parms "SM      MR      ", Count=     144
 Computing Diagnostic #   198 "BRGhtFlx" (list#  2) Parms "SM      MR      ", Count=     144
 Computing Diagnostic #   199 "BRGmltRt" (list#  2) Parms "SM      MR      ", Count=     144
 Computing Diagnostic #   201 "BRG_TauX" (list#  2) Parms "UU      MR      ", Count=    1728
 Computing Diagnostic #   202 "BRG_TauY" (list#  2) Parms "VV      MR      ", Count=    1728
 Computing Diagnostic #   203 "BRGhFacC" (list#  2) Parms "SM      MR      ", Count=    1728
 cg2d: Sum(rhs),rhsMax =   1.12195087942357E-09  1.50370886166077E-02
 cg2d: Sum(rhs),rhsMax =   1.12200441992893E-09  1.50368330768496E-02
 cg2d: Sum(rhs),rhsMax =   1.12205246483033E-09  1.50365807199360E-02
 cg2d: Sum(rhs),rhsMax =   1.12210658820278E-09  1.50363314693086E-02
 cg2d: Sum(rhs),rhsMax =   1.12217306280638E-09  1.50360852436128E-02
 cg2d: Sum(rhs),rhsMax =   1.12224027293273E-09  1.50358419552882E-02
 cg2d: Sum(rhs),rhsMax =   1.12230436055683E-09  1.50356015189161E-02
 cg2d: Sum(rhs),rhsMax =   1.12234821436630E-09  1.50353638430847E-02
 cg2d: Sum(rhs),rhsMax =   1.12240995664425E-09  1.50351291677955E-02
 cg2d: Sum(rhs),rhsMax =   1.12248110806235E-09  1.50348970641305E-02
 cg2d: Sum(rhs),rhsMax =   1.12252798722956E-09  1.50346674308146E-02
 cg2d: Sum(rhs),rhsMax =   1.12259136708648E-09  1.50344401715237E-02
 cg2d: Sum(rhs),rhsMax =   1.12266143603712E-09  1.50342151854006E-02
 cg2d: Sum(rhs),rhsMax =   1.12274087249453E-09  1.50339923710872E-02
 cg2d: Sum(rhs),rhsMax =   1.12279757713551E-09  1.50337716314304E-02
 cg2d: Sum(rhs),rhsMax =   1.12287386333509E-09  1.50335528672979E-02
 cg2d: Sum(rhs),rhsMax =   1.12292346254872E-09  1.50333359810175E-02
 cg2d: Sum(rhs),rhsMax =   1.12299565480090E-09  1.50331208789415E-02
 cg2d: Sum(rhs),rhsMax =   1.12304643362648E-09  1.50329074671636E-02
 cg2d: Sum(rhs),rhsMax =   1.12309768429686E-09  1.50326956557713E-02
 cg2d: Sum(rhs),rhsMax =   1.12317470601919E-09  1.50324853562089E-02
 cg2d: Sum(rhs),rhsMax =   1.12324559375931E-09  1.50322764863831E-02
 cg2d: Sum(rhs),rhsMax =   1.12330220125578E-09  1.50320689638854E-02
 cg2d: Sum(rhs),rhsMax =   1.12336184798778E-09  1.50318627123274E-02
 cg2d: Sum(rhs),rhsMax =   1.12343193081621E-09  1.50316576591665E-02
 cg2d: Sum(rhs),rhsMax =   1.12348279290853E-09  1.50314537358103E-02
 cg2d: Sum(rhs),rhsMax =   1.12353319703384E-09  1.50312508779014E-02
 cg2d: Sum(rhs),rhsMax =   1.12358429504855E-09  1.50310490290308E-02
 cg2d: Sum(rhs),rhsMax =   1.12364088866723E-09  1.50308481325786E-02
 cg2d: Sum(rhs),rhsMax =   1.12369551164004E-09  1.50306481390778E-02
 cg2d: Sum(rhs),rhsMax =   1.12375164729173E-09  1.50304490067671E-02
 cg2d: Sum(rhs),rhsMax =   1.12380889316643E-09  1.50302506927673E-02
 cg2d: Sum(rhs),rhsMax =   1.12387195383423E-09  1.50300531679739E-02
 cg2d: Sum(rhs),rhsMax =   1.12392810336370E-09  1.50298564030148E-02
 cg2d: Sum(rhs),rhsMax =   1.12399442531164E-09  1.50296603753187E-02
 cg2d: Sum(rhs),rhsMax =   1.12405382224345E-09  1.50294650664248E-02
 cg2d: Sum(rhs),rhsMax =   1.12409689889681E-09  1.50292704634350E-02
 cg2d: Sum(rhs),rhsMax =   1.12414418051987E-09  1.50290765598541E-02
 cg2d: Sum(rhs),rhsMax =   1.12419609732406E-09  1.50288833526737E-02
 cg2d: Sum(rhs),rhsMax =   1.12426132292676E-09  1.50286908413530E-02
 cg2d: Sum(rhs),rhsMax =   1.12431480792097E-09  1.50284990370135E-02
 cg2d: Sum(rhs),rhsMax =   1.12436414345662E-09  1.50283079469777E-02
 cg2d: Sum(rhs),rhsMax =   1.12443483690772E-09  1.50281175878728E-02
 cg2d: Sum(rhs),rhsMax =   1.12449610734089E-09  1.50279279759329E-02
 cg2d: Sum(rhs),rhsMax =   1.12456872980449E-09  1.50277391371542E-02
 cg2d: Sum(rhs),rhsMax =   1.12462275603242E-09  1.50275510942972E-02
 cg2d: Sum(rhs),rhsMax =   1.12467639368230E-09  1.50273638783898E-02
 cg2d: Sum(rhs),rhsMax =   1.12471913726875E-09  1.50271775258260E-02
 cg2d: Sum(rhs),rhsMax =   1.12478050484643E-09  1.50269920467281E-02
 cg2d: Sum(rhs),rhsMax =   1.12482571867911E-09  1.50268074998390E-02
 cg2d: Sum(rhs),rhsMax =   1.12487869019517E-09  1.50266239211102E-02
 cg2d: Sum(rhs),rhsMax =   1.12493662995927E-09  1.50264413443496E-02
 cg2d: Sum(rhs),rhsMax =   1.12498341198197E-09  1.50262598092239E-02
 cg2d: Sum(rhs),rhsMax =   1.12503799332142E-09  1.50260793546138E-02
 cg2d: Sum(rhs),rhsMax =   1.12511369665391E-09  1.50259000240719E-02
 cg2d: Sum(rhs),rhsMax =   1.12516697348131E-09  1.50257218578539E-02
 cg2d: Sum(rhs),rhsMax =   1.12522863249254E-09  1.50255448952110E-02
 cg2d: Sum(rhs),rhsMax =   1.12528629470088E-09  1.50253691752319E-02
 cg2d: Sum(rhs),rhsMax =   1.12535229745969E-09  1.50251947369119E-02
 cg2d: Sum(rhs),rhsMax =   1.12540970986785E-09  1.50250216161273E-02
 cg2d: Sum(rhs),rhsMax =   1.12546365282906E-09  1.50248498493657E-02
 cg2d: Sum(rhs),rhsMax =   1.12551878928002E-09  1.50246794727970E-02
 cg2d: Sum(rhs),rhsMax =   1.12558341813784E-09  1.50245105420369E-02
 cg2d: Sum(rhs),rhsMax =   1.12562455190091E-09  1.50243430836872E-02
 cg2d: Sum(rhs),rhsMax =   1.12568379617706E-09  1.50241771231161E-02
 cg2d: Sum(rhs),rhsMax =   1.12574428945411E-09  1.50240126836540E-02
 cg2d: Sum(rhs),rhsMax =   1.12580857136724E-09  1.50238497807122E-02
 cg2d: Sum(rhs),rhsMax =   1.12587650313856E-09  1.50236884303509E-02
 cg2d: Sum(rhs),rhsMax =   1.12594678025602E-09  1.50235286425351E-02
 cg2d: Sum(rhs),rhsMax =   1.12600628821014E-09  1.50233704235545E-02
 cg2d: Sum(rhs),rhsMax =   1.12605490210083E-09  1.50232137758932E-02
 cg2d: Sum(rhs),rhsMax =   1.12610312741346E-09  1.50230586979116E-02
 cg2d: Sum(rhs),rhsMax =   1.12615393399462E-09  1.50229051829813E-02
 cg2d: Sum(rhs),rhsMax =   1.12622057513168E-09  1.50227532212121E-02
 cg2d: Sum(rhs),rhsMax =   1.12625131443167E-09  1.50226027960088E-02
 cg2d: Sum(rhs),rhsMax =   1.12628838200290E-09  1.50224538894699E-02
 cg2d: Sum(rhs),rhsMax =   1.12634700177860E-09  1.50223064768850E-02
 cg2d: Sum(rhs),rhsMax =   1.12639615690302E-09  1.50221605296699E-02
 cg2d: Sum(rhs),rhsMax =   1.12647134675736E-09  1.50220160147660E-02
 cg2d: Sum(rhs),rhsMax =   1.12653218697911E-09  1.50218728964414E-02
 cg2d: Sum(rhs),rhsMax =   1.12660644702167E-09  1.50217311317019E-02
 cg2d: Sum(rhs),rhsMax =   1.12665110574284E-09  1.50215906760380E-02
 cg2d: Sum(rhs),rhsMax =   1.12671437457745E-09  1.50214514808115E-02
 cg2d: Sum(rhs),rhsMax =   1.12676262764566E-09  1.50213134909518E-02
 cg2d: Sum(rhs),rhsMax =   1.12682464747937E-09  1.50211766518526E-02
 cg2d: Sum(rhs),rhsMax =   1.12687528752708E-09  1.50210409018443E-02
 cg2d: Sum(rhs),rhsMax =   1.12692696840888E-09  1.50209061781980E-02
 cg2d: Sum(rhs),rhsMax =   1.12697300103104E-09  1.50207724138912E-02
 cg2d: Sum(rhs),rhsMax =   1.12702863708236E-09  1.50206395399318E-02
 cg2d: Sum(rhs),rhsMax =   1.12709858113291E-09  1.50205074837942E-02
 cg2d: Sum(rhs),rhsMax =   1.12713997857394E-09  1.50203761712972E-02
 cg2d: Sum(rhs),rhsMax =   1.12719771017122E-09  1.50202455264007E-02
 cg2d: Sum(rhs),rhsMax =   1.12726293577392E-09  1.50201154707575E-02
 cg2d: Sum(rhs),rhsMax =   1.12732528867454E-09  1.50199859244122E-02
 cg2d: Sum(rhs),rhsMax =   1.12736563140370E-09  1.50198568052044E-02
 cg2d: Sum(rhs),rhsMax =   1.12742760960405E-09  1.50197280312973E-02
 cg2d: Sum(rhs),rhsMax =   1.12747847169636E-09  1.50195994926685E-02
 cg2d: Sum(rhs),rhsMax =   1.12755746406457E-09  1.50194711235958E-02
 cg2d: Sum(rhs),rhsMax =   1.12761097681435E-09  1.50193428576478E-02
 cg2d: Sum(rhs),rhsMax =   1.12766095072825E-09  1.50192146125105E-02
 cg2d: Sum(rhs),rhsMax =   1.12770622007208E-09  1.50190863004134E-02
 cg2d: Sum(rhs),rhsMax =   1.12777059912972E-09  1.50189578316475E-02
 cg2d: Sum(rhs),rhsMax =   1.12782742867079E-09  1.50188291212544E-02
 cg2d: Sum(rhs),rhsMax =   1.12786380235264E-09  1.50187000869257E-02
 cg2d: Sum(rhs),rhsMax =   1.12792908346648E-09  1.50185706445958E-02
 cg2d: Sum(rhs),rhsMax =   1.12799360130200E-09  1.50184407154689E-02
 cg2d: Sum(rhs),rhsMax =   1.12805260965576E-09  1.50183102202995E-02
 cg2d: Sum(rhs),rhsMax =   1.12811535113444E-09  1.50181790825289E-02
 cg2d: Sum(rhs),rhsMax =   1.12816171682351E-09  1.50180472275389E-02
 cg2d: Sum(rhs),rhsMax =   1.12820651432255E-09  1.50179145837462E-02
 cg2d: Sum(rhs),rhsMax =   1.12824904974218E-09  1.50177810810775E-02
 cg2d: Sum(rhs),rhsMax =   1.12830433884881E-09  1.50176466493034E-02
 cg2d: Sum(rhs),rhsMax =   1.12834734611322E-09  1.50175112245588E-02
 cg2d: Sum(rhs),rhsMax =   1.12839605714843E-09  1.50173747414993E-02
 cg2d: Sum(rhs),rhsMax =   1.12846165745140E-09  1.50172371382442E-02
 cg2d: Sum(rhs),rhsMax =   1.12851566980154E-09  1.50170983565357E-02
 cg2d: Sum(rhs),rhsMax =   1.12856546330420E-09  1.50169583373046E-02
 cg2d: Sum(rhs),rhsMax =   1.12862653944834E-09  1.50168170236824E-02
 cg2d: Sum(rhs),rhsMax =   1.12867377943804E-09  1.50166743771671E-02
 cg2d: Sum(rhs),rhsMax =   1.12872489133053E-09  1.50165303389213E-02
 cg2d: Sum(rhs),rhsMax =   1.12877010516321E-09  1.50163848580077E-02
 cg2d: Sum(rhs),rhsMax =   1.12882853064988E-09  1.50162378945149E-02
 cg2d: Sum(rhs),rhsMax =   1.12887761638536E-09  1.50160894074081E-02
 cg2d: Sum(rhs),rhsMax =   1.12892786785501E-09  1.50159393593632E-02
 cg2d: Sum(rhs),rhsMax =   1.12898680681983E-09  1.50157877167812E-02
 cg2d: Sum(rhs),rhsMax =   1.12904034732519E-09  1.50156344480047E-02
 cg2d: Sum(rhs),rhsMax =   1.12908631055841E-09  1.50154795188609E-02
 cg2d: Sum(rhs),rhsMax =   1.12914365357764E-09  1.50153229036245E-02
 cg2d: Sum(rhs),rhsMax =   1.12919586181537E-09  1.50151645751652E-02
 cg2d: Sum(rhs),rhsMax =   1.12924594675157E-09  1.50150045100381E-02
 cg2d: Sum(rhs),rhsMax =   1.12928925932732E-09  1.50148426883463E-02
 cg2d: Sum(rhs),rhsMax =   1.12933905282997E-09  1.50146790885651E-02
 cg2d: Sum(rhs),rhsMax =   1.12940023999641E-09  1.50145136952697E-02
 cg2d: Sum(rhs),rhsMax =   1.12945484909144E-09  1.50143464915286E-02
 cg2d: Sum(rhs),rhsMax =   1.12951041575382E-09  1.50141774642868E-02
 cg2d: Sum(rhs),rhsMax =   1.12957017350812E-09  1.50140066041630E-02
 cg2d: Sum(rhs),rhsMax =   1.12962092457813E-09  1.50138338983013E-02
 cg2d: Sum(rhs),rhsMax =   1.12967779575257E-09  1.50136593422338E-02
 cg2d: Sum(rhs),rhsMax =   1.12971904053794E-09  1.50134829284751E-02
 cg2d: Sum(rhs),rhsMax =   1.12979357813625E-09  1.50133046544333E-02
 cg2d: Sum(rhs),rhsMax =   1.12985985845082E-09  1.50131245168339E-02
 cg2d: Sum(rhs),rhsMax =   1.12990942990887E-09  1.50129425203139E-02
 cg2d: Sum(rhs),rhsMax =   1.12997364243306E-09  1.50127586507769E-02
 cg2d: Sum(rhs),rhsMax =   1.13002379675819E-09  1.50125729221668E-02
 Computing Diagnostic #    26 "THETA   " (list#  1) Parms "SMR     MR      ", Count=     144
 Computing Diagnostic #    27 "SALT    " (list#  1) Parms "SMR     MR      ", Count=     144
 Computing Diagnostic #    30 "UVEL    " (list#  1) Parms "UUR     MR      ", Count=     144
             Vector  Mate for "UVEL    " :  Diagnostic #     31 "VVEL    " exists
 Computing Diagnostic #    32 "WVEL    " (list#  1) Parms "WM      LR      ", Count=     144
 Computing Diagnostic #    31 "VVEL    " (list#  1) Parms "VVR     MR      ", Count=     144
             Vector  Mate for "VVEL    " :  Diagnostic #     30 "UVEL    " exists
 Computing Diagnostic #   197 "BRGfwFlx" (list#  2) Parms "SM      MR      ", Count=     144
 Computing Diagnostic #   198 "BRGhtFlx" (list#  2) Parms "SM      MR      ", Count=     144
 Computing Diagnostic #   199 "BRGmltRt" (list#  2) Parms "SM      MR      ", Count=     144
 Computing Diagnostic #   201 "BRG_TauX" (list#  2) Parms "UU      MR      ", Count=    1728
 Computing Diagnostic #   202 "BRG_TauY" (list#  2) Parms "VV      MR      ", Count=    1728
 Computing Diagnostic #   203 "BRGhFacC" (list#  2) Parms "SM      MR      ", Count=    1728
 cg2d: Sum(rhs),rhsMax =   1.13009260283015E-09  1.50123853384248E-02
 cg2d: Sum(rhs),rhsMax =   1.13014192448802E-09  1.50121959014331E-02
 cg2d: Sum(rhs),rhsMax =   1.13019525682656E-09  1.50120046193615E-02
 cg2d: Sum(rhs),rhsMax =   1.13024020698127E-09  1.50118114999871E-02
 cg2d: Sum(rhs),rhsMax =   1.13029882675697E-09  1.50116165522015E-02
 cg2d: Sum(rhs),rhsMax =   1.13034763493669E-09  1.50114197889099E-02
 cg2d: Sum(rhs),rhsMax =   1.13041725979812E-09  1.50112212232791E-02
 cg2d: Sum(rhs),rhsMax =   1.13047912697617E-09  1.50110208702761E-02
 cg2d: Sum(rhs),rhsMax =   1.13055109718374E-09  1.50108187434955E-02
 cg2d: Sum(rhs),rhsMax =   1.13060681650179E-09  1.50106148636114E-02
 cg2d: Sum(rhs),rhsMax =   1.13065949658431E-09  1.50104092494782E-02
 cg2d: Sum(rhs),rhsMax =   1.13072044782836E-09  1.50102019223235E-02
 cg2d: Sum(rhs),rhsMax =   1.13078824082180E-09  1.50099929058724E-02
 cg2d: Sum(rhs),rhsMax =   1.13084738795344E-09  1.50097822237991E-02
 cg2d: Sum(rhs),rhsMax =   1.13089865250160E-09  1.50095699042546E-02
 cg2d: Sum(rhs),rhsMax =   1.13095892373405E-09  1.50093559732610E-02
 cg2d: Sum(rhs),rhsMax =   1.13102734122794E-09  1.50091404630848E-02
 cg2d: Sum(rhs),rhsMax =   1.13107849475380E-09  1.50091393037105E-02
 cg2d: Sum(rhs),rhsMax =   1.13111070509930E-09  1.50092187452078E-02
 cg2d: Sum(rhs),rhsMax =   1.13114949351623E-09  1.50093055266729E-02
 cg2d: Sum(rhs),rhsMax =   1.13119394407057E-09  1.50093892473560E-02
 cg2d: Sum(rhs),rhsMax =   1.13123441169982E-09  1.50094687663702E-02
 cg2d: Sum(rhs),rhsMax =   1.13127264500523E-09  1.50095434011521E-02
 cg2d: Sum(rhs),rhsMax =   1.13130772805281E-09  1.50096125125938E-02
 cg2d: Sum(rhs),rhsMax =   1.13134773771506E-09  1.50096755224106E-02
 cg2d: Sum(rhs),rhsMax =   1.13139439483767E-09  1.50097318606643E-02
 cg2d: Sum(rhs),rhsMax =   1.13143031055252E-09  1.50097809918070E-02
 cg2d: Sum(rhs),rhsMax =   1.13146174374190E-09  1.50098224099673E-02
 cg2d: Sum(rhs),rhsMax =   1.13150512570659E-09  1.50098556364654E-02
 cg2d: Sum(rhs),rhsMax =   1.13155980419055E-09  1.50098802213382E-02
 cg2d: Sum(rhs),rhsMax =   1.13159910608562E-09  1.50098957448177E-02
 cg2d: Sum(rhs),rhsMax =   1.13165056492281E-09  1.50099018156309E-02
 cg2d: Sum(rhs),rhsMax =   1.13168686921572E-09  1.50098980748457E-02
 cg2d: Sum(rhs),rhsMax =   1.13173721782989E-09  1.50098841993947E-02
 cg2d: Sum(rhs),rhsMax =   1.13177915650464E-09  1.50098598928575E-02
 cg2d: Sum(rhs),rhsMax =   1.13184321637316E-09  1.50098248941258E-02
 cg2d: Sum(rhs),rhsMax =   1.13189287109794E-09  1.50097789766778E-02
 cg2d: Sum(rhs),rhsMax =   1.13194656425897E-09  1.50097219445278E-02
 cg2d: Sum(rhs),rhsMax =   1.13198951601223E-09  1.50096536377693E-02
 cg2d: Sum(rhs),rhsMax =   1.13203045548627E-09  1.50095739240565E-02
 cg2d: Sum(rhs),rhsMax =   1.13207831997642E-09  1.50094827105319E-02
 cg2d: Sum(rhs),rhsMax =   1.13213012575830E-09  1.50093799311426E-02
 cg2d: Sum(rhs),rhsMax =   1.13218777408886E-09  1.50092655531406E-02
 cg2d: Sum(rhs),rhsMax =   1.13224377096266E-09  1.50091395760105E-02
 cg2d: Sum(rhs),rhsMax =   1.13229996212549E-09  1.50090020272078E-02
 cg2d: Sum(rhs),rhsMax =   1.13235661125533E-09  1.50088529669698E-02
 cg2d: Sum(rhs),rhsMax =   1.13240372634493E-09  1.50086924829630E-02
 cg2d: Sum(rhs),rhsMax =   1.13244812138813E-09  1.50085206883990E-02
 cg2d: Sum(rhs),rhsMax =   1.13248252442411E-09  1.50083377285206E-02
 cg2d: Sum(rhs),rhsMax =   1.13253043054762E-09  1.50081437702203E-02
 cg2d: Sum(rhs),rhsMax =   1.13259385203790E-09  1.50079390052467E-02
 cg2d: Sum(rhs),rhsMax =   1.13265125056827E-09  1.50077236503179E-02
 cg2d: Sum(rhs),rhsMax =   1.13271360346889E-09  1.50074979451336E-02
 cg2d: Sum(rhs),rhsMax =   1.13277945357204E-09  1.50072621461593E-02
 cg2d: Sum(rhs),rhsMax =   1.13285138214625E-09  1.50070165338863E-02
 cg2d: Sum(rhs),rhsMax =   1.13291241665703E-09  1.50067614025023E-02
 cg2d: Sum(rhs),rhsMax =   1.13297864146045E-09  1.50064970654048E-02
 cg2d: Sum(rhs),rhsMax =   1.13304618465371E-09  1.50062238514845E-02
 cg2d: Sum(rhs),rhsMax =   1.13310694160873E-09  1.50059420977686E-02
 cg2d: Sum(rhs),rhsMax =   1.13317262517842E-09  1.50056521601599E-02
 cg2d: Sum(rhs),rhsMax =   1.13323408990063E-09  1.50053543982752E-02
 cg2d: Sum(rhs),rhsMax =   1.13331588558196E-09  1.50050491841983E-02
 cg2d: Sum(rhs),rhsMax =   1.13338184670742E-09  1.50047368958222E-02
 cg2d: Sum(rhs),rhsMax =   1.13344270080695E-09  1.50044179170905E-02
 cg2d: Sum(rhs),rhsMax =   1.13351601715994E-09  1.50040926349149E-02
 cg2d: Sum(rhs),rhsMax =   1.13357685738169E-09  1.50037614412007E-02
 cg2d: Sum(rhs),rhsMax =   1.13364422016371E-09  1.50034247240517E-02
 cg2d: Sum(rhs),rhsMax =   1.13372221333119E-09  1.50030828769352E-02
 cg2d: Sum(rhs),rhsMax =   1.13379244881529E-09  1.50027362876615E-02
 cg2d: Sum(rhs),rhsMax =   1.13385946465261E-09  1.50023853430069E-02
 cg2d: Sum(rhs),rhsMax =   1.13392283063174E-09  1.50020304225198E-02
 cg2d: Sum(rhs),rhsMax =   1.13399203915954E-09  1.50016719011876E-02
 cg2d: Sum(rhs),rhsMax =   1.13405269897005E-09  1.50013101507148E-02
 cg2d: Sum(rhs),rhsMax =   1.13413291258357E-09  1.50009455284853E-02
 cg2d: Sum(rhs),rhsMax =   1.13420191294455E-09  1.50005783881596E-02
 cg2d: Sum(rhs),rhsMax =   1.13427722769899E-09  1.50002090702071E-02
 cg2d: Sum(rhs),rhsMax =   1.13434370230259E-09  1.49998379034076E-02
 cg2d: Sum(rhs),rhsMax =   1.13441232796330E-09  1.49994652073547E-02
 cg2d: Sum(rhs),rhsMax =   1.13447683192103E-09  1.49990912885390E-02
 cg2d: Sum(rhs),rhsMax =   1.13455136951934E-09  1.49987164377081E-02
 cg2d: Sum(rhs),rhsMax =   1.13462798878583E-09  1.49983409328618E-02
 cg2d: Sum(rhs),rhsMax =   1.13470520479719E-09  1.49979650388097E-02
 cg2d: Sum(rhs),rhsMax =   1.13478142160783E-09  1.49975890039158E-02
 cg2d: Sum(rhs),rhsMax =   1.13486114949879E-09  1.49972130609259E-02
 cg2d: Sum(rhs),rhsMax =   1.13494121045665E-09  1.49968374289081E-02
 cg2d: Sum(rhs),rhsMax =   1.13500193965610E-09  1.49964623092036E-02
 cg2d: Sum(rhs),rhsMax =   1.13508037691279E-09  1.49960878867000E-02
 cg2d: Sum(rhs),rhsMax =   1.13515524757801E-09  1.49957143353015E-02
 cg2d: Sum(rhs),rhsMax =   1.13523970779461E-09  1.49953418063232E-02
 cg2d: Sum(rhs),rhsMax =   1.13530308765153E-09  1.49949704371510E-02
 cg2d: Sum(rhs),rhsMax =   1.13537892976190E-09  1.49946003493860E-02
 cg2d: Sum(rhs),rhsMax =   1.13543656421466E-09  1.49942316501955E-02
 cg2d: Sum(rhs),rhsMax =   1.13551919256327E-09  1.49938644297167E-02
 cg2d: Sum(rhs),rhsMax =   1.13558749903486E-09  1.49934987653796E-02
 cg2d: Sum(rhs),rhsMax =   1.13566145376609E-09  1.49931347197720E-02
 cg2d: Sum(rhs),rhsMax =   1.13573939142242E-09  1.49927723380015E-02
 cg2d: Sum(rhs),rhsMax =   1.13579975979938E-09  1.49924116563623E-02
 cg2d: Sum(rhs),rhsMax =   1.13587221572953E-09  1.49920526942319E-02
 cg2d: Sum(rhs),rhsMax =   1.13593939810031E-09  1.49916954632771E-02
 cg2d: Sum(rhs),rhsMax =   1.13600873152819E-09  1.49913399565750E-02
 cg2d: Sum(rhs),rhsMax =   1.13608426832723E-09  1.49909861618770E-02
 cg2d: Sum(rhs),rhsMax =   1.13615700181313E-09  1.49906340539975E-02
 cg2d: Sum(rhs),rhsMax =   1.13621938246933E-09  1.49902835982907E-02
 cg2d: Sum(rhs),rhsMax =   1.13630171938439E-09  1.49899347535088E-02
 cg2d: Sum(rhs),rhsMax =   1.13635863219219E-09  1.49895874639874E-02
 cg2d: Sum(rhs),rhsMax =   1.13642781296441E-09  1.49892416731869E-02
 cg2d: Sum(rhs),rhsMax =   1.13649439859032E-09  1.49888973158988E-02
 cg2d: Sum(rhs),rhsMax =   1.13657297462488E-09  1.49885542947418E-02
 cg2d: Sum(rhs),rhsMax =   1.13663518874763E-09  1.49882125478471E-02
 cg2d: Sum(rhs),rhsMax =   1.13671909385271E-09  1.49878720012602E-02
 cg2d: Sum(rhs),rhsMax =   1.13679052282656E-09  1.49875325682553E-02
 cg2d: Sum(rhs),rhsMax =   1.13685832969779E-09  1.49871941647383E-02
 cg2d: Sum(rhs),rhsMax =   1.13693898740053E-09  1.49868567064137E-02
 cg2d: Sum(rhs),rhsMax =   1.13702335047261E-09  1.49865201016464E-02
 cg2d: Sum(rhs),rhsMax =   1.13708167881477E-09  1.49861842541368E-02
 cg2d: Sum(rhs),rhsMax =   1.13714263005882E-09  1.49858490782064E-02
 cg2d: Sum(rhs),rhsMax =   1.13721602967853E-09  1.49855144852006E-02
 cg2d: Sum(rhs),rhsMax =   1.13727706418931E-09  1.49851803904532E-02
 cg2d: Sum(rhs),rhsMax =   1.13736044193846E-09  1.49848467096948E-02
 cg2d: Sum(rhs),rhsMax =   1.13743529872590E-09  1.49845133653227E-02
 cg2d: Sum(rhs),rhsMax =   1.13751186248123E-09  1.49841802788573E-02
 cg2d: Sum(rhs),rhsMax =   1.13758513720086E-09  1.49838473791289E-02
 cg2d: Sum(rhs),rhsMax =   1.13763842790604E-09  1.49835145950713E-02
 cg2d: Sum(rhs),rhsMax =   1.13770758092269E-09  1.49831818649073E-02
 cg2d: Sum(rhs),rhsMax =   1.13777183508024E-09  1.49828491271390E-02
 cg2d: Sum(rhs),rhsMax =   1.13785066091499E-09  1.49825163287459E-02
 cg2d: Sum(rhs),rhsMax =   1.13792798794865E-09  1.49821834240537E-02
 cg2d: Sum(rhs),rhsMax =   1.13799741852105E-09  1.49818503708128E-02
 cg2d: Sum(rhs),rhsMax =   1.13806106205594E-09  1.49815171361084E-02
 cg2d: Sum(rhs),rhsMax =   1.13812066715457E-09  1.49811836913559E-02
 cg2d: Sum(rhs),rhsMax =   1.13820126934616E-09  1.49808500166999E-02
 cg2d: Sum(rhs),rhsMax =   1.13825766867581E-09  1.49805160982023E-02
 cg2d: Sum(rhs),rhsMax =   1.13832517023571E-09  1.49801819293053E-02
 cg2d: Sum(rhs),rhsMax =   1.13839501714175E-09  1.49798475097035E-02
 cg2d: Sum(rhs),rhsMax =   1.13846387872485E-09  1.49795128456846E-02
 cg2d: Sum(rhs),rhsMax =   1.13852693939265E-09  1.49791779532886E-02
 cg2d: Sum(rhs),rhsMax =   1.13861216288758E-09  1.49788428504552E-02
 cg2d: Sum(rhs),rhsMax =   1.13865997186657E-09  1.49785075657000E-02
 cg2d: Sum(rhs),rhsMax =   1.13873672991094E-09  1.49781721325844E-02
 cg2d: Sum(rhs),rhsMax =   1.13880745111761E-09  1.49778365905721E-02
 cg2d: Sum(rhs),rhsMax =   1.13888225239389E-09  1.49775009853872E-02
 cg2d: Sum(rhs),rhsMax =   1.13895604059167E-09  1.49771653215394E-02
 cg2d: Sum(rhs),rhsMax =   1.13901872655919E-09  1.49768296636194E-02
 cg2d: Sum(rhs),rhsMax =   1.13908772692017E-09  1.49764940893663E-02
 Computing Diagnostic #    26 "THETA   " (list#  1) Parms "SMR     MR      ", Count=     144
 Computing Diagnostic #    27 "SALT    " (list#  1) Parms "SMR     MR      ", Count=     144
 Computing Diagnostic #    30 "UVEL    " (list#  1) Parms "UUR     MR      ", Count=     144
             Vector  Mate for "UVEL    " :  Diagnostic #     31 "VVEL    " exists
 Computing Diagnostic #    32 "WVEL    " (list#  1) Parms "WM      LR      ", Count=     144
 Computing Diagnostic #    31 "VVEL    " (list#  1) Parms "VVR     MR      ", Count=     144
             Vector  Mate for "VVEL    " :  Diagnostic #     30 "UVEL    " exists
 Computing Diagnostic #   197 "BRGfwFlx" (list#  2) Parms "SM      MR      ", Count=     144
 Computing Diagnostic #   198 "BRGhtFlx" (list#  2) Parms "SM      MR      ", Count=     144
 Computing Diagnostic #   199 "BRGmltRt" (list#  2) Parms "SM      MR      ", Count=     144
 Computing Diagnostic #   201 "BRG_TauX" (list#  2) Parms "UU      MR      ", Count=    1728
 Computing Diagnostic #   202 "BRG_TauY" (list#  2) Parms "VV      MR      ", Count=    1728
 Computing Diagnostic #   203 "BRGhFacC" (list#  2) Parms "SM      MR      ", Count=    1728
 cg2d: Sum(rhs),rhsMax =   1.13915765709294E-09  1.49761585666548E-02
 cg2d: Sum(rhs),rhsMax =   1.13924043809721E-09  1.49758231523189E-02
 cg2d: Sum(rhs),rhsMax =   1.13930322120925E-09  1.49754879145068E-02
 cg2d: Sum(rhs),rhsMax =   1.13936329815267E-09  1.49751529148129E-02
 cg2d: Sum(rhs),rhsMax =   1.13942610902029E-09  1.49748182138586E-02
 cg2d: Sum(rhs),rhsMax =   1.13949757962750E-09  1.49744838799487E-02
 cg2d: Sum(rhs),rhsMax =   1.13956404035331E-09  1.49741499877273E-02
 cg2d: Sum(rhs),rhsMax =   1.13962264625123E-09  1.49738166170665E-02
 cg2d: Sum(rhs),rhsMax =   1.13969056414476E-09  1.49734838516145E-02
 cg2d: Sum(rhs),rhsMax =   1.13974416016127E-09  1.49731517807847E-02
 cg2d: Sum(rhs),rhsMax =   1.13981662996920E-09  1.49728204970657E-02
 cg2d: Sum(rhs),rhsMax =   1.13988285477262E-09  1.49724900980198E-02
 cg2d: Sum(rhs),rhsMax =   1.13995372863496E-09  1.49721606844972E-02
 cg2d: Sum(rhs),rhsMax =   1.14002193796203E-09  1.49718323564676E-02
 cg2d: Sum(rhs),rhsMax =   1.14009551799299E-09  1.49715052246540E-02
 cg2d: Sum(rhs),rhsMax =   1.14016228403013E-09  1.49711793940835E-02
 cg2d: Sum(rhs),rhsMax =   1.14022456754181E-09  1.49708549756127E-02
 cg2d: Sum(rhs),rhsMax =   1.14029950759598E-09  1.49705320821759E-02
 cg2d: Sum(rhs),rhsMax =   1.14037149168134E-09  1.49702108263947E-02
 cg2d: Sum(rhs),rhsMax =   1.14043353927062E-09  1.49698913218044E-02
 cg2d: Sum(rhs),rhsMax =   1.14050625887874E-09  1.49695736843565E-02
 cg2d: Sum(rhs),rhsMax =   1.14057964462067E-09  1.49692580276244E-02
 cg2d: Sum(rhs),rhsMax =   1.14065899781135E-09  1.49689444672805E-02
 cg2d: Sum(rhs),rhsMax =   1.14073858692443E-09  1.49686331164450E-02
 cg2d: Sum(rhs),rhsMax =   1.14079834467873E-09  1.49683240874429E-02
 cg2d: Sum(rhs),rhsMax =   1.14085860203339E-09  1.49680174927852E-02
 cg2d: Sum(rhs),rhsMax =   1.14092033043356E-09  1.49677134413996E-02
 cg2d: Sum(rhs),rhsMax =   1.14099060755102E-09  1.49674120405541E-02
 cg2d: Sum(rhs),rhsMax =   1.14104808934812E-09  1.49671133948441E-02
 cg2d: Sum(rhs),rhsMax =   1.14112021221136E-09  1.49668176078008E-02
 cg2d: Sum(rhs),rhsMax =   1.14118653415929E-09  1.49665247760366E-02
 cg2d: Sum(rhs),rhsMax =   1.14123957506429E-09  1.49662349969008E-02
 cg2d: Sum(rhs),rhsMax =   1.14129874995150E-09  1.49659483601662E-02
 cg2d: Sum(rhs),rhsMax =   1.14135739748278E-09  1.49656649524329E-02
 cg2d: Sum(rhs),rhsMax =   1.14143912377518E-09  1.49653848578224E-02
 cg2d: Sum(rhs),rhsMax =   1.14150210117625E-09  1.49651081561735E-02
 cg2d: Sum(rhs),rhsMax =   1.14157576447393E-09  1.49648349182435E-02
 cg2d: Sum(rhs),rhsMax =   1.14164849795984E-09  1.49645652124061E-02
 cg2d: Sum(rhs),rhsMax =   1.14171043452682E-09  1.49642991028592E-02
 cg2d: Sum(rhs),rhsMax =   1.14180020993615E-09  1.49640366465389E-02
 cg2d: Sum(rhs),rhsMax =   1.14186990418652E-09  1.49637778941054E-02
 cg2d: Sum(rhs),rhsMax =   1.14192889866249E-09  1.49635228927667E-02
 cg2d: Sum(rhs),rhsMax =   1.14200532363995E-09  1.49632716808930E-02
 cg2d: Sum(rhs),rhsMax =   1.14206183399190E-09  1.49630242935007E-02
 cg2d: Sum(rhs),rhsMax =   1.14212467261510E-09  1.49627807587724E-02
 cg2d: Sum(rhs),rhsMax =   1.14218501323649E-09  1.49625410954711E-02
 cg2d: Sum(rhs),rhsMax =   1.14224242564465E-09  1.49623053212601E-02
 cg2d: Sum(rhs),rhsMax =   1.14228990155674E-09  1.49620734409496E-02
 cg2d: Sum(rhs),rhsMax =   1.14236189951988E-09  1.49618454605511E-02
 cg2d: Sum(rhs),rhsMax =   1.14242537652132E-09  1.49616213737041E-02
 cg2d: Sum(rhs),rhsMax =   1.14248913107851E-09  1.49614011707713E-02
 cg2d: Sum(rhs),rhsMax =   1.14256257233158E-09  1.49611848349974E-02
 cg2d: Sum(rhs),rhsMax =   1.14262138639631E-09  1.49609723428089E-02
 cg2d: Sum(rhs),rhsMax =   1.14268100537274E-09  1.49607636653175E-02
 cg2d: Sum(rhs),rhsMax =   1.14273467077819E-09  1.49605587661629E-02
 cg2d: Sum(rhs),rhsMax =   1.14281105412228E-09  1.49603576045391E-02
 cg2d: Sum(rhs),rhsMax =   1.14287922181600E-09  1.49601601316105E-02
 cg2d: Sum(rhs),rhsMax =   1.14293907671481E-09  1.49599662977767E-02
 cg2d: Sum(rhs),rhsMax =   1.14301162978947E-09  1.49597760431374E-02
 cg2d: Sum(rhs),rhsMax =   1.14307405207903E-09  1.49595893017037E-02
 cg2d: Sum(rhs),rhsMax =   1.14312814769590E-09  1.49594060066895E-02
 cg2d: Sum(rhs),rhsMax =   1.14319566313359E-09  1.49592260848271E-02
 cg2d: Sum(rhs),rhsMax =   1.14324762157114E-09  1.49590494554529E-02
 cg2d: Sum(rhs),rhsMax =   1.14330171718802E-09  1.49588760361056E-02
 cg2d: Sum(rhs),rhsMax =   1.14335686751676E-09  1.49587057394414E-02
 cg2d: Sum(rhs),rhsMax =   1.14340664714163E-09  1.49585384742300E-02
 cg2d: Sum(rhs),rhsMax =   1.14346540569521E-09  1.49583741451344E-02
 cg2d: Sum(rhs),rhsMax =   1.14352330382594E-09  1.49582126495158E-02
 cg2d: Sum(rhs),rhsMax =   1.14356894787004E-09  1.49580538909553E-02
 cg2d: Sum(rhs),rhsMax =   1.14363429837283E-09  1.49578977614786E-02
 cg2d: Sum(rhs),rhsMax =   1.14368459147585E-09  1.49577441539090E-02
 cg2d: Sum(rhs),rhsMax =   1.14374303084031E-09  1.49575929568360E-02
 cg2d: Sum(rhs),rhsMax =   1.14380356575072E-09  1.49574440592013E-02
 cg2d: Sum(rhs),rhsMax =   1.14385828586805E-09  1.49572973472932E-02
 cg2d: Sum(rhs),rhsMax =   1.14391052186136E-09  1.49571527047067E-02
 cg2d: Sum(rhs),rhsMax =   1.14397287476198E-09  1.49570100147049E-02
 cg2d: Sum(rhs),rhsMax =   1.14401450812540E-09  1.49568691595844E-02
 cg2d: Sum(rhs),rhsMax =   1.14406804863076E-09  1.49567300220806E-02
 cg2d: Sum(rhs),rhsMax =   1.14412665452868E-09  1.49565924820487E-02
 cg2d: Sum(rhs),rhsMax =   1.14417915419995E-09  1.49564564220126E-02
 cg2d: Sum(rhs),rhsMax =   1.14424023034410E-09  1.49563217226338E-02
 cg2d: Sum(rhs),rhsMax =   1.14430333264526E-09  1.49561882670857E-02
 cg2d: Sum(rhs),rhsMax =   1.14437524734168E-09  1.49560559366463E-02
 cg2d: Sum(rhs),rhsMax =   1.14442499921097E-09  1.49559246176520E-02
 cg2d: Sum(rhs),rhsMax =   1.14448474308748E-09  1.49557941950325E-02
 cg2d: Sum(rhs),rhsMax =   1.14452561317258E-09  1.49556645524141E-02
 cg2d: Sum(rhs),rhsMax =   1.14458773015080E-09  1.49555355822143E-02
 cg2d: Sum(rhs),rhsMax =   1.14463563627432E-09  1.49554071750361E-02
 cg2d: Sum(rhs),rhsMax =   1.14468494405440E-09  1.49552792233916E-02
 cg2d: Sum(rhs),rhsMax =   1.14474237034035E-09  1.49551516227058E-02
 cg2d: Sum(rhs),rhsMax =   1.14481465973704E-09  1.49550242693490E-02
 cg2d: Sum(rhs),rhsMax =   1.14485060320746E-09  1.49548970679070E-02
 cg2d: Sum(rhs),rhsMax =   1.14490829317138E-09  1.49547699210658E-02
 cg2d: Sum(rhs),rhsMax =   1.14495785075164E-09  1.49546427361938E-02
 cg2d: Sum(rhs),rhsMax =   1.14500459114097E-09  1.49545154248812E-02
 cg2d: Sum(rhs),rhsMax =   1.14505731285686E-09  1.49543879016833E-02
 cg2d: Sum(rhs),rhsMax =   1.14511716775567E-09  1.49542600864944E-02
 cg2d: Sum(rhs),rhsMax =   1.14516693350275E-09  1.49541318996957E-02
 cg2d: Sum(rhs),rhsMax =   1.14522615002333E-09  1.49540032695485E-02
 cg2d: Sum(rhs),rhsMax =   1.14527265449027E-09  1.49538741251704E-02
 cg2d: Sum(rhs),rhsMax =   1.14533489636859E-09  1.49537444023489E-02
 cg2d: Sum(rhs),rhsMax =   1.14539117079815E-09  1.49536140392678E-02
 cg2d: Sum(rhs),rhsMax =   1.14543906304387E-09  1.49534829784197E-02
 cg2d: Sum(rhs),rhsMax =   1.14548508178824E-09  1.49533511665644E-02
 cg2d: Sum(rhs),rhsMax =   1.14554074559514E-09  1.49532185559751E-02
 cg2d: Sum(rhs),rhsMax =   1.14559151054294E-09  1.49530851010544E-02
 cg2d: Sum(rhs),rhsMax =   1.14563411535151E-09  1.49529507628350E-02
 cg2d: Sum(rhs),rhsMax =   1.14568417253214E-09  1.49528155042628E-02
 cg2d: Sum(rhs),rhsMax =   1.14571875597935E-09  1.49526792927855E-02
 cg2d: Sum(rhs),rhsMax =   1.14578387055975E-09  1.49525421007906E-02
 cg2d: Sum(rhs),rhsMax =   1.14584015886710E-09  1.49524039045464E-02
 cg2d: Sum(rhs),rhsMax =   1.14589122912623E-09  1.49522646835120E-02
 cg2d: Sum(rhs),rhsMax =   1.14593780298211E-09  1.49521244198421E-02
 cg2d: Sum(rhs),rhsMax =   1.14599453537867E-09  1.49519831038394E-02
 cg2d: Sum(rhs),rhsMax =   1.14605945567003E-09  1.49518407233631E-02
 cg2d: Sum(rhs),rhsMax =   1.14609981227698E-09  1.49516972751029E-02
 cg2d: Sum(rhs),rhsMax =   1.14614744084474E-09  1.49515527529900E-02
 cg2d: Sum(rhs),rhsMax =   1.14620520019759E-09  1.49514071610061E-02
 cg2d: Sum(rhs),rhsMax =   1.14626820535424E-09  1.49512605006772E-02
 cg2d: Sum(rhs),rhsMax =   1.14633140479992E-09  1.49511127787355E-02
 cg2d: Sum(rhs),rhsMax =   1.14638165626957E-09  1.49509640049656E-02
 cg2d: Sum(rhs),rhsMax =   1.14645218318721E-09  1.49508141882593E-02
 cg2d: Sum(rhs),rhsMax =   1.14649865989858E-09  1.49506633441274E-02
 cg2d: Sum(rhs),rhsMax =   1.14655648864037E-09  1.49505114875464E-02
 cg2d: Sum(rhs),rhsMax =   1.14661326267029E-09  1.49503586356432E-02
 cg2d: Sum(rhs),rhsMax =   1.14665579808992E-09  1.49502048086509E-02
 cg2d: Sum(rhs),rhsMax =   1.14670441198061E-09  1.49500500266525E-02
 cg2d: Sum(rhs),rhsMax =   1.14675598184011E-09  1.49498943118126E-02
 cg2d: Sum(rhs),rhsMax =   1.14682639773545E-09  1.49497376872047E-02
 cg2d: Sum(rhs),rhsMax =   1.14687521979295E-09  1.49495801771267E-02
 cg2d: Sum(rhs),rhsMax =   1.14692773334202E-09  1.49494218082463E-02
 cg2d: Sum(rhs),rhsMax =   1.14699007236485E-09  1.49492626041944E-02
 cg2d: Sum(rhs),rhsMax =   1.14704147569089E-09  1.49491025933691E-02
 cg2d: Sum(rhs),rhsMax =   1.14710456411427E-09  1.49489417987293E-02
 cg2d: Sum(rhs),rhsMax =   1.14715727195236E-09  1.49487802500068E-02
 cg2d: Sum(rhs),rhsMax =   1.14722718824734E-09  1.49486179731181E-02
 cg2d: Sum(rhs),rhsMax =   1.14726995958936E-09  1.49484549937591E-02
 cg2d: Sum(rhs),rhsMax =   1.14732516542926E-09  1.49482913411100E-02
 cg2d: Sum(rhs),rhsMax =   1.14739528989105E-09  1.49481270378702E-02
 cg2d: Sum(rhs),rhsMax =   1.14743847756671E-09  1.49479621106810E-02
 cg2d: Sum(rhs),rhsMax =   1.14750085822291E-09  1.49477965854404E-02
 cg2d: Sum(rhs),rhsMax =   1.14753917479504E-09  1.49476304847774E-02
 cg2d: Sum(rhs),rhsMax =   1.14760764780009E-09  1.49474638341412E-02
 cg2d: Sum(rhs),rhsMax =   1.14767489955980E-09  1.49472966547534E-02
 Computing Diagnostic #    26 "THETA   " (list#  1) Parms "SMR     MR      ", Count=     144
 Computing Diagnostic #    27 "SALT    " (list#  1) Parms "SMR     MR      ", Count=     144
 Computing Diagnostic #    30 "UVEL    " (list#  1) Parms "UUR     MR      ", Count=     144
             Vector  Mate for "UVEL    " :  Diagnostic #     31 "VVEL    " exists
 Computing Diagnostic #    32 "WVEL    " (list#  1) Parms "WM      LR      ", Count=     144
 Computing Diagnostic #    31 "VVEL    " (list#  1) Parms "VVR     MR      ", Count=     144
             Vector  Mate for "VVEL    " :  Diagnostic #     30 "UVEL    " exists
 Computing Diagnostic #   197 "BRGfwFlx" (list#  2) Parms "SM      MR      ", Count=     144
 Computing Diagnostic #   198 "BRGhtFlx" (list#  2) Parms "SM      MR      ", Count=     144
 Computing Diagnostic #   199 "BRGmltRt" (list#  2) Parms "SM      MR      ", Count=     144
 Computing Diagnostic #   201 "BRG_TauX" (list#  2) Parms "UU      MR      ", Count=    1728
 Computing Diagnostic #   202 "BRG_TauY" (list#  2) Parms "VV      MR      ", Count=    1728
 Computing Diagnostic #   203 "BRGhFacC" (list#  2) Parms "SM      MR      ", Count=    1728
 cg2d: Sum(rhs),rhsMax =   1.14773267279045E-09  1.49471289701622E-02
 cg2d: Sum(rhs),rhsMax =   1.14778427040552E-09  1.49469607998541E-02
 cg2d: Sum(rhs),rhsMax =   1.14782683358072E-09  1.49467921661146E-02
 cg2d: Sum(rhs),rhsMax =   1.14788467620031E-09  1.49466230874331E-02
 cg2d: Sum(rhs),rhsMax =   1.14794647398941E-09  1.49464535814447E-02
 cg2d: Sum(rhs),rhsMax =   1.14799814099342E-09  1.49462836657279E-02
 cg2d: Sum(rhs),rhsMax =   1.14805456807865E-09  1.49461133575239E-02
 cg2d: Sum(rhs),rhsMax =   1.14811436746631E-09  1.49459426729015E-02
 cg2d: Sum(rhs),rhsMax =   1.14817154395208E-09  1.49457716255182E-02
 cg2d: Sum(rhs),rhsMax =   1.14824039165740E-09  1.49456002302436E-02
 cg2d: Sum(rhs),rhsMax =   1.14830871200677E-09  1.49454285005740E-02
 cg2d: Sum(rhs),rhsMax =   1.14834987352541E-09  1.49452564484480E-02
 cg2d: Sum(rhs),rhsMax =   1.14840544018779E-09  1.49450840869579E-02
 cg2d: Sum(rhs),rhsMax =   1.14845642718020E-09  1.49449114269288E-02
 cg2d: Sum(rhs),rhsMax =   1.14851075871947E-09  1.49447384788058E-02
 cg2d: Sum(rhs),rhsMax =   1.14856982258438E-09  1.49445652558838E-02
 cg2d: Sum(rhs),rhsMax =   1.14861645195141E-09  1.49443917669095E-02
 cg2d: Sum(rhs),rhsMax =   1.14867544642738E-09  1.49442180219502E-02
 cg2d: Sum(rhs),rhsMax =   1.14871864798083E-09  1.49440440314778E-02
 cg2d: Sum(rhs),rhsMax =   1.14877218848619E-09  1.49438698085658E-02
 cg2d: Sum(rhs),rhsMax =   1.14884324275977E-09  1.49436953614935E-02
 cg2d: Sum(rhs),rhsMax =   1.14890129354617E-09  1.49435207021896E-02
 cg2d: Sum(rhs),rhsMax =   1.14895432057338E-09  1.49433458410661E-02
 cg2d: Sum(rhs),rhsMax =   1.14900600145518E-09  1.49431707908159E-02
 cg2d: Sum(rhs),rhsMax =   1.14906112402835E-09  1.49429955643621E-02
 cg2d: Sum(rhs),rhsMax =   1.14912369897358E-09  1.49428201743670E-02
 cg2d: Sum(rhs),rhsMax =   1.14917841909090E-09  1.49426446348004E-02
 cg2d: Sum(rhs),rhsMax =   1.14922951710561E-09  1.49424689621138E-02
 cg2d: Sum(rhs),rhsMax =   1.14928215555476E-09  1.49422931660914E-02
 cg2d: Sum(rhs),rhsMax =   1.14933351724744E-09  1.49421172733597E-02
 cg2d: Sum(rhs),rhsMax =   1.14939691098215E-09  1.49419410042895E-02
 cg2d: Sum(rhs),rhsMax =   1.14945546136891E-09  1.49417593503454E-02
 cg2d: Sum(rhs),rhsMax =   1.14950406138181E-09  1.49415777064359E-02
 cg2d: Sum(rhs),rhsMax =   1.14956835717273E-09  1.49413961890373E-02
 cg2d: Sum(rhs),rhsMax =   1.14962231401172E-09  1.49412148544519E-02
 cg2d: Sum(rhs),rhsMax =   1.14968917719338E-09  1.49410337870346E-02
 cg2d: Sum(rhs),rhsMax =   1.14974837983617E-09  1.49408530608529E-02
 cg2d: Sum(rhs),rhsMax =   1.14978744580885E-09  1.49406727521054E-02
 cg2d: Sum(rhs),rhsMax =   1.14985233834464E-09  1.49404929355176E-02
 cg2d: Sum(rhs),rhsMax =   1.14990823807393E-09  1.49403136841306E-02
 cg2d: Sum(rhs),rhsMax =   1.14996023814484E-09  1.49401350703284E-02
 cg2d: Sum(rhs),rhsMax =   1.15002261880104E-09  1.49399571642810E-02
 cg2d: Sum(rhs),rhsMax =   1.15007697809588E-09  1.49397800344355E-02
 cg2d: Sum(rhs),rhsMax =   1.15013591706070E-09  1.49396037467505E-02
 cg2d: Sum(rhs),rhsMax =   1.15019459234755E-09  1.49394283646570E-02
 cg2d: Sum(rhs),rhsMax =   1.15023614244425E-09  1.49392539501815E-02
 cg2d: Sum(rhs),rhsMax =   1.15028282732244E-09  1.49390805591713E-02
 cg2d: Sum(rhs),rhsMax =   1.15034741454689E-09  1.49389082481845E-02
 cg2d: Sum(rhs),rhsMax =   1.15039412718065E-09  1.49387370667021E-02
 cg2d: Sum(rhs),rhsMax =   1.15045777071554E-09  1.49385670628965E-02
 cg2d: Sum(rhs),rhsMax =   1.15051219939932E-09  1.49383982796144E-02
 cg2d: Sum(rhs),rhsMax =   1.15057628702342E-09  1.49382307548938E-02
 cg2d: Sum(rhs),rhsMax =   1.15063374106494E-09  1.49380645266215E-02
 cg2d: Sum(rhs),rhsMax =   1.15068132799934E-09  1.49378996227979E-02
 cg2d: Sum(rhs),rhsMax =   1.15074663686876E-09  1.49377360702334E-02
 cg2d: Sum(rhs),rhsMax =   1.15080703300130E-09  1.49375738906343E-02
 cg2d: Sum(rhs),rhsMax =   1.15086061514003E-09  1.49374130977551E-02
 cg2d: Sum(rhs),rhsMax =   1.15092761709956E-09  1.49372537057716E-02
 cg2d: Sum(rhs),rhsMax =   1.15098111597156E-09  1.49370957198022E-02
 cg2d: Sum(rhs),rhsMax =   1.15103919451354E-09  1.49369391387871E-02
 cg2d: Sum(rhs),rhsMax =   1.15110165843646E-09  1.49367839624763E-02
 cg2d: Sum(rhs),rhsMax =   1.15115916798914E-09  1.49366301794038E-02
 cg2d: Sum(rhs),rhsMax =   1.15122841815030E-09  1.49364778098578E-02
 cg2d: Sum(rhs),rhsMax =   1.15128054312130E-09  1.49363268790779E-02
 cg2d: Sum(rhs),rhsMax =   1.15133370892639E-09  1.49361772829520E-02
 cg2d: Sum(rhs),rhsMax =   1.15139378586981E-09  1.49360290991793E-02
 cg2d: Sum(rhs),rhsMax =   1.15143386492100E-09  1.49358822615042E-02
 cg2d: Sum(rhs),rhsMax =   1.15148525436926E-09  1.49357367266528E-02
 cg2d: Sum(rhs),rhsMax =   1.15154458191213E-09  1.49355924579461E-02
 cg2d: Sum(rhs),rhsMax =   1.15161177816070E-09  1.49354494099585E-02
 cg2d: Sum(rhs),rhsMax =   1.15166208514150E-09  1.49353075330817E-02
 cg2d: Sum(rhs),rhsMax =   1.15171834569328E-09  1.49351667693810E-02
 cg2d: Sum(rhs),rhsMax =   1.15174957071584E-09  1.49350270556176E-02
 cg2d: Sum(rhs),rhsMax =   1.15179922544062E-09  1.49348883246134E-02
 cg2d: Sum(rhs),rhsMax =   1.15186397919853E-09  1.49347505049224E-02
 cg2d: Sum(rhs),rhsMax =   1.15191374494561E-09  1.49346135191275E-02
 cg2d: Sum(rhs),rhsMax =   1.15196187311373E-09  1.49344772875260E-02
 cg2d: Sum(rhs),rhsMax =   1.15203074857462E-09  1.49343417235783E-02
 cg2d: Sum(rhs),rhsMax =   1.15208592665894E-09  1.49342067399443E-02
 cg2d: Sum(rhs),rhsMax =   1.15213634466205E-09  1.49340722434532E-02
 cg2d: Sum(rhs),rhsMax =   1.15219365992569E-09  1.49339381391957E-02
 cg2d: Sum(rhs),rhsMax =   1.15225280705733E-09  1.49338043261368E-02
 cg2d: Sum(rhs),rhsMax =   1.15230741615235E-09  1.49336707059097E-02
 cg2d: Sum(rhs),rhsMax =   1.15234760622585E-09  1.49335371731095E-02
 cg2d: Sum(rhs),rhsMax =   1.15240525455640E-09  1.49334036221347E-02
 cg2d: Sum(rhs),rhsMax =   1.15246417964343E-09  1.49332699459314E-02
 cg2d: Sum(rhs),rhsMax =   1.15251608256983E-09  1.49331360360647E-02
 cg2d: Sum(rhs),rhsMax =   1.15256788835172E-09  1.49330017813539E-02
 cg2d: Sum(rhs),rhsMax =   1.15263747157979E-09  1.49328670743221E-02
 cg2d: Sum(rhs),rhsMax =   1.15268104783350E-09  1.49327318040543E-02
 cg2d: Sum(rhs),rhsMax =   1.15274598200266E-09  1.49325958615166E-02
 cg2d: Sum(rhs),rhsMax =   1.15280364421100E-09  1.49324591372572E-02
 cg2d: Sum(rhs),rhsMax =   1.15284559676354E-09  1.49323215247380E-02
 cg2d: Sum(rhs),rhsMax =   1.15290303692728E-09  1.49321829168212E-02
 cg2d: Sum(rhs),rhsMax =   1.15294226943341E-09  1.49320432096665E-02
 cg2d: Sum(rhs),rhsMax =   1.15300197167656E-09  1.49319023031391E-02
 cg2d: Sum(rhs),rhsMax =   1.15306419967709E-09  1.49317600974036E-02
 cg2d: Sum(rhs),rhsMax =   1.15312845383464E-09  1.49316164993290E-02
 cg2d: Sum(rhs),rhsMax =   1.15317341786714E-09  1.49314714189851E-02
 cg2d: Sum(rhs),rhsMax =   1.15322920657412E-09  1.49313247647857E-02
 cg2d: Sum(rhs),rhsMax =   1.15328589733732E-09  1.49311764521943E-02
 cg2d: Sum(rhs),rhsMax =   1.15333786965266E-09  1.49310264025926E-02
 cg2d: Sum(rhs),rhsMax =   1.15337828177076E-09  1.49308745419684E-02
 cg2d: Sum(rhs),rhsMax =   1.15343226636533E-09  1.49307208018639E-02
 cg2d: Sum(rhs),rhsMax =   1.15350384799484E-09  1.49305651179712E-02
 cg2d: Sum(rhs),rhsMax =   1.15356282859302E-09  1.49304074351536E-02
 cg2d: Sum(rhs),rhsMax =   1.15363228692100E-09  1.49302477019040E-02
 cg2d: Sum(rhs),rhsMax =   1.15369698516776E-09  1.49300858728094E-02
 cg2d: Sum(rhs),rhsMax =   1.15375296816378E-09  1.49299219088923E-02
 cg2d: Sum(rhs),rhsMax =   1.15380952014910E-09  1.49297557802937E-02
 cg2d: Sum(rhs),rhsMax =   1.15385387355893E-09  1.49295874624418E-02
 cg2d: Sum(rhs),rhsMax =   1.15392261024194E-09  1.49294169367123E-02
 cg2d: Sum(rhs),rhsMax =   1.15397774669290E-09  1.49292441929063E-02
 cg2d: Sum(rhs),rhsMax =   1.15404104328309E-09  1.49290692277016E-02
 cg2d: Sum(rhs),rhsMax =   1.15410583867437E-09  1.49288920455653E-02
 cg2d: Sum(rhs),rhsMax =   1.15416400048307E-09  1.49287126562709E-02
 cg2d: Sum(rhs),rhsMax =   1.15422722768432E-09  1.49285310971943E-02
 cg2d: Sum(rhs),rhsMax =   1.15429146796409E-09  1.49283473749634E-02
 cg2d: Sum(rhs),rhsMax =   1.15435136449626E-09  1.49281615207291E-02
 cg2d: Sum(rhs),rhsMax =   1.15440536296862E-09  1.49279735735261E-02
 cg2d: Sum(rhs),rhsMax =   1.15446241455430E-09  1.49277835802546E-02
 cg2d: Sum(rhs),rhsMax =   1.15452182536391E-09  1.49275915906746E-02
 cg2d: Sum(rhs),rhsMax =   1.15457879368286E-09  1.49273976641457E-02
 cg2d: Sum(rhs),rhsMax =   1.15463209826583E-09  1.49272018658665E-02
 cg2d: Sum(rhs),rhsMax =   1.15469066253038E-09  1.49270042668053E-02
 cg2d: Sum(rhs),rhsMax =   1.15476773976386E-09  1.49268049396330E-02
 cg2d: Sum(rhs),rhsMax =   1.15481388340832E-09  1.49266039703529E-02
 cg2d: Sum(rhs),rhsMax =   1.15487724938745E-09  1.49264014408238E-02
 cg2d: Sum(rhs),rhsMax =   1.15493720143078E-09  1.49261974462473E-02
 cg2d: Sum(rhs),rhsMax =   1.15500295438942E-09  1.49259920786868E-02
 cg2d: Sum(rhs),rhsMax =   1.15506240683239E-09  1.49257854365936E-02
 cg2d: Sum(rhs),rhsMax =   1.15512725773481E-09  1.49255776248478E-02
 cg2d: Sum(rhs),rhsMax =   1.15517842513846E-09  1.49253687475660E-02
 cg2d: Sum(rhs),rhsMax =   1.15524836918901E-09  1.49251589139128E-02
 cg2d: Sum(rhs),rhsMax =   1.15529713573537E-09  1.49249482321049E-02
 cg2d: Sum(rhs),rhsMax =   1.15536945288763E-09  1.49247368161999E-02
 cg2d: Sum(rhs),rhsMax =   1.15543695444753E-09  1.49245247797140E-02
 cg2d: Sum(rhs),rhsMax =   1.15549751711352E-09  1.49243122350499E-02
 cg2d: Sum(rhs),rhsMax =   1.15555190416394E-09  1.49240992981871E-02
 cg2d: Sum(rhs),rhsMax =   1.15560724878172E-09  1.49238860822839E-02
 cg2d: Sum(rhs),rhsMax =   1.15566325953331E-09  1.49236727041329E-02
 cg2d: Sum(rhs),rhsMax =   1.15573785264278E-09  1.49234592740550E-02
 cg2d: Sum(rhs),rhsMax =   1.15578929760218E-09  1.49232459047363E-02
 cg2d: Sum(rhs),rhsMax =   1.15584694593274E-09  1.49230327069174E-02
(PID.TID 0000.0001)      cg2d_init_res =   5.71103589717345E-05
(PID.TID 0000.0001)      cg2d_iters(min,last) =      -1      38
(PID.TID 0000.0001)      cg2d_last_res =   6.05035434838532E-14
(PID.TID 0000.0001) // =======================================================
(PID.TID 0000.0001) // Begin MONITOR dynamic field statistics
(PID.TID 0000.0001) // =======================================================
(PID.TID 0000.0001) %MON time_tsnumber                =                 25056
(PID.TID 0000.0001) %MON time_secondsf                =   6.2640000000000E+05
(PID.TID 0000.0001) %MON dynstat_eta_max              =   4.8301749743041E-03
(PID.TID 0000.0001) %MON dynstat_eta_min              =  -2.4055460451002E-03
(PID.TID 0000.0001) %MON dynstat_eta_mean             =  -1.1550853130419E-13
(PID.TID 0000.0001) %MON dynstat_eta_sd               =   2.4389917633646E-03
(PID.TID 0000.0001) %MON dynstat_eta_del2             =   1.9840759589037E-05
(PID.TID 0000.0001) %MON dynstat_uvel_max             =   4.4276045912230E-02
(PID.TID 0000.0001) %MON dynstat_uvel_min             =  -4.4636543115423E-02
(PID.TID 0000.0001) %MON dynstat_uvel_mean            =   5.4845451175349E-09
(PID.TID 0000.0001) %MON dynstat_uvel_sd              =   6.6215754390562E-03
(PID.TID 0000.0001) %MON dynstat_uvel_del2            =   1.0141028831215E-04
(PID.TID 0000.0001) %MON dynstat_vvel_max             =   2.3453125803696E-02
(PID.TID 0000.0001) %MON dynstat_vvel_min             =  -3.4280503479001E-02
(PID.TID 0000.0001) %MON dynstat_vvel_mean            =  -8.0919745653761E-03
(PID.TID 0000.0001) %MON dynstat_vvel_sd              =   1.1574400886126E-02
(PID.TID 0000.0001) %MON dynstat_vvel_del2            =   9.1094831802006E-05
(PID.TID 0000.0001) %MON dynstat_wvel_max             =   1.3670376435924E-03
(PID.TID 0000.0001) %MON dynstat_wvel_min             =  -1.1257000453735E-03
(PID.TID 0000.0001) %MON dynstat_wvel_mean            =   9.4479608411793E-21
(PID.TID 0000.0001) %MON dynstat_wvel_sd              =   1.2562265333417E-04
(PID.TID 0000.0001) %MON dynstat_wvel_del2            =   6.4163892437497E-06
(PID.TID 0000.0001) %MON dynstat_theta_max            =   2.6931451612903E+00
(PID.TID 0000.0001) %MON dynstat_theta_min            =  -7.0474471332261E-01
(PID.TID 0000.0001) %MON dynstat_theta_mean           =   2.2203790536754E+00
(PID.TID 0000.0001) %MON dynstat_theta_sd             =   5.2943037430330E-01
(PID.TID 0000.0001) %MON dynstat_theta_del2           =   1.6438641193595E-03
(PID.TID 0000.0001) %MON dynstat_salt_max             =   3.4699999999999E+01
(PID.TID 0000.0001) %MON dynstat_salt_min             =   3.3046070927327E+01
(PID.TID 0000.0001) %MON dynstat_salt_mean            =   3.4364010233796E+01
(PID.TID 0000.0001) %MON dynstat_salt_sd              =   3.2233245197957E-01
(PID.TID 0000.0001) %MON dynstat_salt_del2            =   1.9177477581285E-04
(PID.TID 0000.0001) %MON advcfl_uvel_max              =   2.2318271557712E-03
(PID.TID 0000.0001) %MON advcfl_vvel_max              =   1.7140251739501E-03
(PID.TID 0000.0001) %MON advcfl_wvel_max              =   6.6088850854367E-04
(PID.TID 0000.0001) %MON advcfl_W_hf_max              =   1.4079714333217E-03
(PID.TID 0000.0001) %MON pe_b_mean                    =   4.9632407257431E-08
(PID.TID 0000.0001) %MON ke_max                       =   9.6780653741428E-04
(PID.TID 0000.0001) %MON ke_mean                      =   1.1168270110160E-04
(PID.TID 0000.0001) %MON ke_vol                       =   3.2921708585402E+10
(PID.TID 0000.0001) // =======================================================
(PID.TID 0000.0001) // End MONITOR dynamic field statistics
(PID.TID 0000.0001) // =======================================================
(PID.TID 0000.0001) // =======================================================
(PID.TID 0000.0001) // Begin OBCS MONITOR field statistics
(PID.TID 0000.0001) // =======================================================
(PID.TID 0000.0001) %MON obc_E_uVel_max               =   0.0000000000000E+00
(PID.TID 0000.0001) %MON obc_E_uVel_min               =   0.0000000000000E+00
(PID.TID 0000.0001) %MON obc_E_uVel_mean              =   0.0000000000000E+00
(PID.TID 0000.0001) %MON obc_E_uVel_sd                =   0.0000000000000E+00
(PID.TID 0000.0001) %MON obc_E_uVel_Int               =   0.0000000000000E+00
(PID.TID 0000.0001) %MON obc_N_vVel_max               =  -3.6115799844846E-05
(PID.TID 0000.0001) %MON obc_N_vVel_min               =  -3.0000000000000E-02
(PID.TID 0000.0001) %MON obc_N_vVel_mean              =  -1.3225455303334E-02
(PID.TID 0000.0001) %MON obc_N_vVel_sd                =   1.1350864292742E-02
(PID.TID 0000.0001) %MON obc_N_vVel_Int               =  -5.9514548865004E+04
(PID.TID 0000.0001) %MON obc_S_vVel_max               =  -3.6115799844846E-05
(PID.TID 0000.0001) %MON obc_S_vVel_min               =  -3.0000000000000E-02
(PID.TID 0000.0001) %MON obc_S_vVel_mean              =  -1.3225455303334E-02
(PID.TID 0000.0001) %MON obc_S_vVel_sd                =   1.1350864292742E-02
(PID.TID 0000.0001) %MON obc_S_vVel_Int               =  -5.9514548865004E+04
(PID.TID 0000.0001) // =======================================================
(PID.TID 0000.0001) // End OBCS MONITOR field statistics
(PID.TID 0000.0001) // =======================================================
 Computing Diagnostic #    26 "THETA   " (list#  1) Parms "SMR     MR      ", Count=     144
 Computing Diagnostic #    27 "SALT    " (list#  1) Parms "SMR     MR      ", Count=     144
 Computing Diagnostic #    30 "UVEL    " (list#  1) Parms "UUR     MR      ", Count=     144
             Vector  Mate for "UVEL    " :  Diagnostic #     31 "VVEL    " exists
 Computing Diagnostic #    32 "WVEL    " (list#  1) Parms "WM      LR      ", Count=     144
 Computing Diagnostic #    31 "VVEL    " (list#  1) Parms "VVR     MR      ", Count=     144
             Vector  Mate for "VVEL    " :  Diagnostic #     30 "UVEL    " exists
 Computing Diagnostic #   197 "BRGfwFlx" (list#  2) Parms "SM      MR      ", Count=     144
 Computing Diagnostic #   198 "BRGhtFlx" (list#  2) Parms "SM      MR      ", Count=     144
 Computing Diagnostic #   199 "BRGmltRt" (list#  2) Parms "SM      MR      ", Count=     144
 Computing Diagnostic #   201 "BRG_TauX" (list#  2) Parms "UU      MR      ", Count=    1728
 Computing Diagnostic #   202 "BRG_TauY" (list#  2) Parms "VV      MR      ", Count=    1728
 Computing Diagnostic #   203 "BRGhFacC" (list#  2) Parms "SM      MR      ", Count=    1728
 cg2d: Sum(rhs),rhsMax =   1.15589686433548E-09  1.49228197866877E-02
 cg2d: Sum(rhs),rhsMax =   1.15594882277303E-09  1.49226072505027E-02
 cg2d: Sum(rhs),rhsMax =   1.15600773398228E-09  1.49223951993850E-02
 cg2d: Sum(rhs),rhsMax =   1.15606335615581E-09  1.49221837321579E-02
 cg2d: Sum(rhs),rhsMax =   1.15612984463720E-09  1.49219729443459E-02
 cg2d: Sum(rhs),rhsMax =   1.15619817886436E-09  1.49217629266718E-02
 cg2d: Sum(rhs),rhsMax =   1.15625825580778E-09  1.49215537644421E-02
 cg2d: Sum(rhs),rhsMax =   1.15633262687265E-09  1.49213455398997E-02
 cg2d: Sum(rhs),rhsMax =   1.15639114950383E-09  1.49211383306387E-02
 cg2d: Sum(rhs),rhsMax =   1.15644811782278E-09  1.49209322068840E-02
 cg2d: Sum(rhs),rhsMax =   1.15651252463600E-09  1.49207272359986E-02
 cg2d: Sum(rhs),rhsMax =   1.15656781374263E-09  1.49205234785909E-02
 cg2d: Sum(rhs),rhsMax =   1.15661043242898E-09  1.49203209878974E-02
 cg2d: Sum(rhs),rhsMax =   1.15667439515299E-09  1.49201198148342E-02
 cg2d: Sum(rhs),rhsMax =   1.15673171041664E-09  1.49199200009638E-02
 cg2d: Sum(rhs),rhsMax =   1.15678565337785E-09  1.49197215837270E-02
 cg2d: Sum(rhs),rhsMax =   1.15684191392962E-09  1.49195245937290E-02
 cg2d: Sum(rhs),rhsMax =   1.15690700075444E-09  1.49193290564817E-02
 cg2d: Sum(rhs),rhsMax =   1.15696006941501E-09  1.49191349898662E-02
 cg2d: Sum(rhs),rhsMax =   1.15702586400701E-09  1.49189424072204E-02
 cg2d: Sum(rhs),rhsMax =   1.15708154169170E-09  1.49187513139602E-02
 cg2d: Sum(rhs),rhsMax =   1.15715116655313E-09  1.49185617121010E-02
 cg2d: Sum(rhs),rhsMax =   1.15720892590598E-09  1.49183735962232E-02
 cg2d: Sum(rhs),rhsMax =   1.15726260518922E-09  1.49181869551234E-02
 cg2d: Sum(rhs),rhsMax =   1.15731652039486E-09  1.49180017733418E-02
 cg2d: Sum(rhs),rhsMax =   1.15737841532848E-09  1.49178180297722E-02
 cg2d: Sum(rhs),rhsMax =   1.15743238604527E-09  1.49176356979597E-02
 cg2d: Sum(rhs),rhsMax =   1.15748356732670E-09  1.49174547467675E-02
 cg2d: Sum(rhs),rhsMax =   1.15754909824073E-09  1.49172751408691E-02
 cg2d: Sum(rhs),rhsMax =   1.15759896113232E-09  1.49170968404418E-02
 cg2d: Sum(rhs),rhsMax =   1.15765036445836E-09  1.49169198010000E-02
 cg2d: Sum(rhs),rhsMax =   1.15771103814666E-09  1.49167439772254E-02
 cg2d: Sum(rhs),rhsMax =   1.15777268328010E-09  1.49165693165968E-02
 cg2d: Sum(rhs),rhsMax =   1.15783559129223E-09  1.49163957672073E-02
 cg2d: Sum(rhs),rhsMax =   1.15789268451127E-09  1.49162232714101E-02
 cg2d: Sum(rhs),rhsMax =   1.15795054100865E-09  1.49160517720676E-02
 cg2d: Sum(rhs),rhsMax =   1.15798902411424E-09  1.49158812069063E-02
 cg2d: Sum(rhs),rhsMax =   1.15804812961251E-09  1.49157115174286E-02
 cg2d: Sum(rhs),rhsMax =   1.15809579981363E-09  1.49155426363071E-02
 cg2d: Sum(rhs),rhsMax =   1.15816407852964E-09  1.49153745039243E-02
 cg2d: Sum(rhs),rhsMax =   1.15821567614471E-09  1.49152070503006E-02
 cg2d: Sum(rhs),rhsMax =   1.15828818758601E-09  1.49150402151850E-02
 cg2d: Sum(rhs),rhsMax =   1.15834039582374E-09  1.49148724824841E-02
 cg2d: Sum(rhs),rhsMax =   1.15839929315520E-09  1.49147031067024E-02
 cg2d: Sum(rhs),rhsMax =   1.15845377735013E-09  1.49145320119037E-02
 cg2d: Sum(rhs),rhsMax =   1.15850416759766E-09  1.49143591403434E-02
 cg2d: Sum(rhs),rhsMax =   1.15856624294253E-09  1.49141844315526E-02
 cg2d: Sum(rhs),rhsMax =   1.15862211491624E-09  1.49140078318419E-02
 cg2d: Sum(rhs),rhsMax =   1.15867493377664E-09  1.49138292928304E-02
 cg2d: Sum(rhs),rhsMax =   1.15873147188417E-09  1.49136487772573E-02
 cg2d: Sum(rhs),rhsMax =   1.15879057738244E-09  1.49134662532845E-02
 cg2d: Sum(rhs),rhsMax =   1.15885319396103E-09  1.49132816967139E-02
 cg2d: Sum(rhs),rhsMax =   1.15892105634341E-09  1.49130950952891E-02
 cg2d: Sum(rhs),rhsMax =   1.15899127794972E-09  1.49129064409265E-02
 cg2d: Sum(rhs),rhsMax =   1.15905923747661E-09  1.49127157353660E-02
 cg2d: Sum(rhs),rhsMax =   1.15911488740572E-09  1.49125229893825E-02
 cg2d: Sum(rhs),rhsMax =   1.15917153653555E-09  1.49123282192965E-02
 cg2d: Sum(rhs),rhsMax =   1.15924020382963E-09  1.49121314532783E-02
 cg2d: Sum(rhs),rhsMax =   1.15929786603797E-09  1.49119327256474E-02
 cg2d: Sum(rhs),rhsMax =   1.15935840094838E-09  1.49117320764150E-02
 cg2d: Sum(rhs),rhsMax =   1.15942522249668E-09  1.49115295558720E-02
 cg2d: Sum(rhs),rhsMax =   1.15948356471662E-09  1.49113252204937E-02
 cg2d: Sum(rhs),rhsMax =   1.15953580070993E-09  1.49111191355348E-02
 cg2d: Sum(rhs),rhsMax =   1.15961197588721E-09  1.49109113681164E-02
 cg2d: Sum(rhs),rhsMax =   1.15966980462900E-09  1.49107019978876E-02
 cg2d: Sum(rhs),rhsMax =   1.15973991521301E-09  1.49104911051666E-02
 cg2d: Sum(rhs),rhsMax =   1.15978615600199E-09  1.49102787791612E-02
 cg2d: Sum(rhs),rhsMax =   1.15985668291962E-09  1.49100651127596E-02
 cg2d: Sum(rhs),rhsMax =   1.15991453941700E-09  1.49098502045268E-02
 cg2d: Sum(rhs),rhsMax =   1.15997672578416E-09  1.49096341546376E-02
 cg2d: Sum(rhs),rhsMax =   1.16004481021115E-09  1.49094170711213E-02
 cg2d: Sum(rhs),rhsMax =   1.16010860640170E-09  1.49091990630707E-02
 cg2d: Sum(rhs),rhsMax =   1.16016371509708E-09  1.49089802421980E-02
 cg2d: Sum(rhs),rhsMax =   1.16023701757229E-09  1.49087607220383E-02
 cg2d: Sum(rhs),rhsMax =   1.16030245134180E-09  1.49085406189483E-02
 cg2d: Sum(rhs),rhsMax =   1.16037862651908E-09  1.49083200520299E-02
 cg2d: Sum(rhs),rhsMax =   1.16044537867843E-09  1.49080991366325E-02
 cg2d: Sum(rhs),rhsMax =   1.16050195841932E-09  1.49078779925824E-02
 cg2d: Sum(rhs),rhsMax =   1.16056253496311E-09  1.49076567398819E-02
 cg2d: Sum(rhs),rhsMax =   1.16060010213470E-09  1.49074354932581E-02
 cg2d: Sum(rhs),rhsMax =   1.16066199706832E-09  1.49072143716789E-02
 cg2d: Sum(rhs),rhsMax =   1.16072909617237E-09  1.49069934872642E-02
 cg2d: Sum(rhs),rhsMax =   1.16079203194008E-09  1.49067729535846E-02
 cg2d: Sum(rhs),rhsMax =   1.16085870083271E-09  1.49065528822475E-02
 cg2d: Sum(rhs),rhsMax =   1.16091417035058E-09  1.49063333793740E-02
 cg2d: Sum(rhs),rhsMax =   1.16097977065355E-09  1.49061145477280E-02
 cg2d: Sum(rhs),rhsMax =   1.16102820413300E-09  1.49058964892520E-02
 cg2d: Sum(rhs),rhsMax =   1.16108521408531E-09  1.49056793001822E-02
 cg2d: Sum(rhs),rhsMax =   1.16115046744358E-09  1.49054630727280E-02
 cg2d: Sum(rhs),rhsMax =   1.16120420223798E-09  1.49052478929863E-02
 cg2d: Sum(rhs),rhsMax =   1.16126058768984E-09  1.49050338452144E-02
 cg2d: Sum(rhs),rhsMax =   1.16132338467967E-09  1.49048210059698E-02
 cg2d: Sum(rhs),rhsMax =   1.16139570183194E-09  1.49046094484527E-02
 cg2d: Sum(rhs),rhsMax =   1.16146771367287E-09  1.49043992390413E-02
 cg2d: Sum(rhs),rhsMax =   1.16152795714974E-09  1.49041904390235E-02
 cg2d: Sum(rhs),rhsMax =   1.16158932472743E-09  1.49039831056644E-02
 cg2d: Sum(rhs),rhsMax =   1.16164634855753E-09  1.49037772896923E-02
 cg2d: Sum(rhs),rhsMax =   1.16169666941612E-09  1.49035730335200E-02
 cg2d: Sum(rhs),rhsMax =   1.16176882003494E-09  1.49033703776084E-02
 cg2d: Sum(rhs),rhsMax =   1.16183365705957E-09  1.49031693552242E-02
 cg2d: Sum(rhs),rhsMax =   1.16189224907970E-09  1.49029699956960E-02
 cg2d: Sum(rhs),rhsMax =   1.16194454058416E-09  1.49027723192217E-02
 cg2d: Sum(rhs),rhsMax =   1.16200922495313E-09  1.49025763450326E-02
 cg2d: Sum(rhs),rhsMax =   1.16207805878066E-09  1.49023820845129E-02
 cg2d: Sum(rhs),rhsMax =   1.16213907941365E-09  1.49021895439431E-02
 cg2d: Sum(rhs),rhsMax =   1.16219257828565E-09  1.49019987268406E-02
 cg2d: Sum(rhs),rhsMax =   1.16224671553589E-09  1.49018096322328E-02
 cg2d: Sum(rhs),rhsMax =   1.16228962565579E-09  1.49016222503566E-02
 cg2d: Sum(rhs),rhsMax =   1.16235783498286E-09  1.49014365729455E-02
 cg2d: Sum(rhs),rhsMax =   1.16243642489522E-09  1.49012525873732E-02
 cg2d: Sum(rhs),rhsMax =   1.16248946580022E-09  1.49010702737484E-02
 cg2d: Sum(rhs),rhsMax =   1.16254438020658E-09  1.49008896108746E-02
 cg2d: Sum(rhs),rhsMax =   1.16260247262634E-09  1.49007106014370E-02
 cg2d: Sum(rhs),rhsMax =   1.16267466487852E-09  1.49005332001054E-02
 cg2d: Sum(rhs),rhsMax =   1.16274252726090E-09  1.49003573939479E-02
 cg2d: Sum(rhs),rhsMax =   1.16280102213651E-09  1.49001831365131E-02
 cg2d: Sum(rhs),rhsMax =   1.16285769902191E-09  1.49000104114062E-02
 cg2d: Sum(rhs),rhsMax =   1.16290176099820E-09  1.48998391694831E-02
 cg2d: Sum(rhs),rhsMax =   1.16295850727255E-09  1.48996693899282E-02
 cg2d: Sum(rhs),rhsMax =   1.16301691888143E-09  1.48995010226288E-02
 cg2d: Sum(rhs),rhsMax =   1.16307452557862E-09  1.48993340490199E-02
 cg2d: Sum(rhs),rhsMax =   1.16311690834259E-09  1.48991684166789E-02
 cg2d: Sum(rhs),rhsMax =   1.16316765941260E-09  1.48990041073638E-02
 cg2d: Sum(rhs),rhsMax =   1.16322310117489E-09  1.48988410720845E-02
 cg2d: Sum(rhs),rhsMax =   1.16328963128964E-09  1.48986792943643E-02
 cg2d: Sum(rhs),rhsMax =   1.16336235089776E-09  1.48985187240968E-02
 cg2d: Sum(rhs),rhsMax =   1.16341508649143E-09  1.48983593509018E-02
 cg2d: Sum(rhs),rhsMax =   1.16346954293078E-09  1.48982011274456E-02
 cg2d: Sum(rhs),rhsMax =   1.16353705836847E-09  1.48980440465038E-02
 cg2d: Sum(rhs),rhsMax =   1.16361109636642E-09  1.48978880654455E-02
 cg2d: Sum(rhs),rhsMax =   1.16365701796628E-09  1.48977331801590E-02
 cg2d: Sum(rhs),rhsMax =   1.16371405567417E-09  1.48975793548254E-02
 cg2d: Sum(rhs),rhsMax =   1.16376226710901E-09  1.48974265893897E-02
 cg2d: Sum(rhs),rhsMax =   1.16382238568580E-09  1.48972748519658E-02
 cg2d: Sum(rhs),rhsMax =   1.16386984772010E-09  1.48971241489517E-02
 cg2d: Sum(rhs),rhsMax =   1.16393547577864E-09  1.48969744536830E-02
 cg2d: Sum(rhs),rhsMax =   1.16398075900026E-09  1.48968257771609E-02
 cg2d: Sum(rhs),rhsMax =   1.16403814365285E-09  1.48966780963840E-02
 cg2d: Sum(rhs),rhsMax =   1.16408904737852E-09  1.48965314296380E-02
 cg2d: Sum(rhs),rhsMax =   1.16413423345563E-09  1.48963857589212E-02
 cg2d: Sum(rhs),rhsMax =   1.16418150120090E-09  1.48962411054237E-02
 cg2d: Sum(rhs),rhsMax =   1.16424124507741E-09  1.48960974560250E-02
 cg2d: Sum(rhs),rhsMax =   1.16429682561758E-09  1.48959548366995E-02
 cg2d: Sum(rhs),rhsMax =   1.16435124042358E-09  1.48958132421651E-02
 Computing Diagnostic #    26 "THETA   " (list#  1) Parms "SMR     MR      ", Count=     144
 Computing Diagnostic #    27 "SALT    " (list#  1) Parms "SMR     MR      ", Count=     144
 Computing Diagnostic #    30 "UVEL    " (list#  1) Parms "UUR     MR      ", Count=     144
             Vector  Mate for "UVEL    " :  Diagnostic #     31 "VVEL    " exists
 Computing Diagnostic #    32 "WVEL    " (list#  1) Parms "WM      LR      ", Count=     144
 Computing Diagnostic #    31 "VVEL    " (list#  1) Parms "VVR     MR      ", Count=     144
             Vector  Mate for "VVEL    " :  Diagnostic #     30 "UVEL    " exists
 Computing Diagnostic #   197 "BRGfwFlx" (list#  2) Parms "SM      MR      ", Count=     144
 Computing Diagnostic #   198 "BRGhtFlx" (list#  2) Parms "SM      MR      ", Count=     144
 Computing Diagnostic #   199 "BRGmltRt" (list#  2) Parms "SM      MR      ", Count=     144
 Computing Diagnostic #   201 "BRG_TauX" (list#  2) Parms "UU      MR      ", Count=    1728
 Computing Diagnostic #   202 "BRG_TauY" (list#  2) Parms "VV      MR      ", Count=    1728
 Computing Diagnostic #   203 "BRGhFacC" (list#  2) Parms "SM      MR      ", Count=    1728
 cg2d: Sum(rhs),rhsMax =   1.16439438646587E-09  1.48956727005803E-02
 cg2d: Sum(rhs),rhsMax =   1.16443672759647E-09  1.48955332236586E-02
 cg2d: Sum(rhs),rhsMax =   1.16450611653551E-09  1.48953948247476E-02
 cg2d: Sum(rhs),rhsMax =   1.16455492471523E-09  1.48952575136093E-02
 cg2d: Sum(rhs),rhsMax =   1.16461369714660E-09  1.48951213076396E-02
 cg2d: Sum(rhs),rhsMax =   1.16467563371359E-09  1.48949862176580E-02
 cg2d: Sum(rhs),rhsMax =   1.16474133116107E-09  1.48948522562983E-02
 cg2d: Sum(rhs),rhsMax =   1.16479392797686E-09  1.48947194370739E-02
 cg2d: Sum(rhs),rhsMax =   1.16484567824759E-09  1.48945877713242E-02
 cg2d: Sum(rhs),rhsMax =   1.16490360413390E-09  1.48944572683373E-02
 cg2d: Sum(rhs),rhsMax =   1.16495064983457E-09  1.48943279349580E-02
 cg2d: Sum(rhs),rhsMax =   1.16501591707063E-09  1.48941997801159E-02
 cg2d: Sum(rhs),rhsMax =   1.16506779224146E-09  1.48940728060593E-02
 cg2d: Sum(rhs),rhsMax =   1.16512439973793E-09  1.48939470156329E-02
 cg2d: Sum(rhs),rhsMax =   1.16517873127719E-09  1.48938224063851E-02
 cg2d: Sum(rhs),rhsMax =   1.16522752557913E-09  1.48936989747018E-02
 cg2d: Sum(rhs),rhsMax =   1.16527533455812E-09  1.48935767125780E-02
 cg2d: Sum(rhs),rhsMax =   1.16532919425261E-09  1.48934556100003E-02
 cg2d: Sum(rhs),rhsMax =   1.16537754446533E-09  1.48933356495803E-02
 cg2d: Sum(rhs),rhsMax =   1.16542855921331E-09  1.48932168146432E-02
 cg2d: Sum(rhs),rhsMax =   1.16547460571326E-09  1.48930990793394E-02
 cg2d: Sum(rhs),rhsMax =   1.16552704987338E-09  1.48929824190966E-02
 cg2d: Sum(rhs),rhsMax =   1.16557290208430E-09  1.48928668000262E-02
 cg2d: Sum(rhs),rhsMax =   1.16561917062885E-09  1.48927521847330E-02
 cg2d: Sum(rhs),rhsMax =   1.16566864494239E-09  1.48926385329601E-02
 cg2d: Sum(rhs),rhsMax =   1.16571767516671E-09  1.48925257983698E-02
 cg2d: Sum(rhs),rhsMax =   1.16577911213334E-09  1.48924139311917E-02
 cg2d: Sum(rhs),rhsMax =   1.16583666331938E-09  1.48923028750222E-02
 cg2d: Sum(rhs),rhsMax =   1.16589746190776E-09  1.48921925545640E-02
 cg2d: Sum(rhs),rhsMax =   1.16595813559606E-09  1.48920828972699E-02
 cg2d: Sum(rhs),rhsMax =   1.16601536759298E-09  1.48919738332496E-02
 cg2d: Sum(rhs),rhsMax =   1.16607577760330E-09  1.48918652895578E-02
 cg2d: Sum(rhs),rhsMax =   1.16612428047169E-09  1.48917571912564E-02
 cg2d: Sum(rhs),rhsMax =   1.16616666323566E-09  1.48916494563893E-02
 cg2d: Sum(rhs),rhsMax =   1.16622618506756E-09  1.48915420018380E-02
 cg2d: Sum(rhs),rhsMax =   1.16627309199036E-09  1.48913994548597E-02
 cg2d: Sum(rhs),rhsMax =   1.16632117852511E-09  1.48912290062297E-02
 cg2d: Sum(rhs),rhsMax =   1.16638157465765E-09  1.48910595066270E-02
 cg2d: Sum(rhs),rhsMax =   1.16643933401051E-09  1.48908913857105E-02
 cg2d: Sum(rhs),rhsMax =   1.16650218651149E-09  1.48907250074158E-02
 cg2d: Sum(rhs),rhsMax =   1.16655227144769E-09  1.48905608445663E-02
 cg2d: Sum(rhs),rhsMax =   1.16661760807268E-09  1.48903992976901E-02
 cg2d: Sum(rhs),rhsMax =   1.16668051608482E-09  1.48902407465009E-02
 cg2d: Sum(rhs),rhsMax =   1.16673556926905E-09  1.48900855429549E-02
 cg2d: Sum(rhs),rhsMax =   1.16679030326416E-09  1.48899340102469E-02
 cg2d: Sum(rhs),rhsMax =   1.16683512851878E-09  1.48897864412110E-02
 cg2d: Sum(rhs),rhsMax =   1.16689316542740E-09  1.48896431011154E-02
 cg2d: Sum(rhs),rhsMax =   1.16694769125569E-09  1.48895042198835E-02
 cg2d: Sum(rhs),rhsMax =   1.16700574204209E-09  1.48893699943743E-02
 cg2d: Sum(rhs),rhsMax =   1.16706451447346E-09  1.48892405840651E-02
 cg2d: Sum(rhs),rhsMax =   1.16712732534108E-09  1.48891161154009E-02
 cg2d: Sum(rhs),rhsMax =   1.16719341136662E-09  1.48889966775232E-02
 cg2d: Sum(rhs),rhsMax =   1.16725776266868E-09  1.48888823226778E-02
 cg2d: Sum(rhs),rhsMax =   1.16730947130606E-09  1.48887730663531E-02
 cg2d: Sum(rhs),rhsMax =   1.16736519062410E-09  1.48886688912886E-02
 cg2d: Sum(rhs),rhsMax =   1.16743290035082E-09  1.48885697368345E-02
 cg2d: Sum(rhs),rhsMax =   1.16747124467853E-09  1.48884755128557E-02
 cg2d: Sum(rhs),rhsMax =   1.16752822687527E-09  1.48883861460211E-02
 cg2d: Sum(rhs),rhsMax =   1.16757704893278E-09  1.48883014296525E-02
 cg2d: Sum(rhs),rhsMax =   1.16762317869945E-09  1.48882212169587E-02
 cg2d: Sum(rhs),rhsMax =   1.16767431834752E-09  1.48881452352099E-02
 cg2d: Sum(rhs),rhsMax =   1.16773440916873E-09  1.48880732751028E-02
 cg2d: Sum(rhs),rhsMax =   1.16778482717184E-09  1.48880050050119E-02
 cg2d: Sum(rhs),rhsMax =   1.16783684112054E-09  1.48879401602837E-02
 cg2d: Sum(rhs),rhsMax =   1.16787825243936E-09  1.48878783591039E-02
 cg2d: Sum(rhs),rhsMax =   1.16792656101872E-09  1.48878192875255E-02
 cg2d: Sum(rhs),rhsMax =   1.16797331528584E-09  1.48877625202346E-02
 cg2d: Sum(rhs),rhsMax =   1.16802593985721E-09  1.48877077155704E-02
 cg2d: Sum(rhs),rhsMax =   1.16807419292542E-09  1.48876544698073E-02
 cg2d: Sum(rhs),rhsMax =   1.16811575689990E-09  1.48876023526492E-02
 cg2d: Sum(rhs),rhsMax =   1.16816835371569E-09  1.48875509293153E-02
 cg2d: Sum(rhs),rhsMax =   1.16821952111934E-09  1.48874997506261E-02
 cg2d: Sum(rhs),rhsMax =   1.16826402718484E-09  1.48874483643382E-02
 cg2d: Sum(rhs),rhsMax =   1.16830121965616E-09  1.48873963147014E-02
 cg2d: Sum(rhs),rhsMax =   1.16835392749426E-09  1.48873431427322E-02
 cg2d: Sum(rhs),rhsMax =   1.16840254138495E-09  1.48872883961110E-02
 cg2d: Sum(rhs),rhsMax =   1.16844868502941E-09  1.48872316220541E-02
 cg2d: Sum(rhs),rhsMax =   1.16849258047225E-09  1.48871723800462E-02
 cg2d: Sum(rhs),rhsMax =   1.16854581566628E-09  1.48871102352412E-02
 cg2d: Sum(rhs),rhsMax =   1.16859416587900E-09  1.48870447678162E-02
 cg2d: Sum(rhs),rhsMax =   1.16864555532725E-09  1.48869755693824E-02
 cg2d: Sum(rhs),rhsMax =   1.16870402244729E-09  1.48869022547987E-02
 cg2d: Sum(rhs),rhsMax =   1.16875584210696E-09  1.48868244480625E-02
 cg2d: Sum(rhs),rhsMax =   1.16878810796361E-09  1.48867417999420E-02
 cg2d: Sum(rhs),rhsMax =   1.16886031409358E-09  1.48866539877295E-02
 cg2d: Sum(rhs),rhsMax =   1.16891774037953E-09  1.48865607105787E-02
 cg2d: Sum(rhs),rhsMax =   1.16896906043884E-09  1.48864616886570E-02
 cg2d: Sum(rhs),rhsMax =   1.16901885394149E-09  1.48863566775056E-02
 cg2d: Sum(rhs),rhsMax =   1.16906871683309E-09  1.48862454595858E-02
 cg2d: Sum(rhs),rhsMax =   1.16912872438757E-09  1.48861278472679E-02
 cg2d: Sum(rhs),rhsMax =   1.16918158488133E-09  1.48860036833226E-02
 cg2d: Sum(rhs),rhsMax =   1.16924669946172E-09  1.48858728467519E-02
 cg2d: Sum(rhs),rhsMax =   1.16929360638451E-09  1.48857352438713E-02
 cg2d: Sum(rhs),rhsMax =   1.16935185145994E-09  1.48855908189656E-02
 cg2d: Sum(rhs),rhsMax =   1.16940587768788E-09  1.48854395477337E-02
 cg2d: Sum(rhs),rhsMax =   1.16948169204267E-09  1.48852814394579E-02
 cg2d: Sum(rhs),rhsMax =   1.16953635664885E-09  1.48851165376917E-02
 cg2d: Sum(rhs),rhsMax =   1.16960295615254E-09  1.48849449186715E-02
 cg2d: Sum(rhs),rhsMax =   1.16966858421108E-09  1.48847666907705E-02
 cg2d: Sum(rhs),rhsMax =   1.16973683517152E-09  1.48845819944278E-02
 cg2d: Sum(rhs),rhsMax =   1.16979277653417E-09  1.48843910021533E-02
 cg2d: Sum(rhs),rhsMax =   1.16985314491114E-09  1.48841939154698E-02
 cg2d: Sum(rhs),rhsMax =   1.16991787091347E-09  1.48839909644544E-02
 cg2d: Sum(rhs),rhsMax =   1.16997152244114E-09  1.48837824076604E-02
 cg2d: Sum(rhs),rhsMax =   1.17003984279052E-09  1.48835685294249E-02
 cg2d: Sum(rhs),rhsMax =   1.17009678335389E-09  1.48833496386931E-02
 cg2d: Sum(rhs),rhsMax =   1.17015601375225E-09  1.48831260660114E-02
 cg2d: Sum(rhs),rhsMax =   1.17021413392759E-09  1.48828981632857E-02
 cg2d: Sum(rhs),rhsMax =   1.17027544599413E-09  1.48826663010693E-02
 cg2d: Sum(rhs),rhsMax =   1.17034312796527E-09  1.48824308668615E-02
 cg2d: Sum(rhs),rhsMax =   1.17040591107731E-09  1.48821922629190E-02
 cg2d: Sum(rhs),rhsMax =   1.17046368430795E-09  1.48819509033745E-02
 cg2d: Sum(rhs),rhsMax =   1.17052727233169E-09  1.48817072128912E-02
 cg2d: Sum(rhs),rhsMax =   1.17059466286928E-09  1.48814616220906E-02
 cg2d: Sum(rhs),rhsMax =   1.17065916682701E-09  1.48812145694409E-02
 cg2d: Sum(rhs),rhsMax =   1.17074261396510E-09  1.48809664935760E-02
 cg2d: Sum(rhs),rhsMax =   1.17081075390324E-09  1.48807178372177E-02
 cg2d: Sum(rhs),rhsMax =   1.17085643958070E-09  1.48804690387949E-02
 cg2d: Sum(rhs),rhsMax =   1.17091501772304E-09  1.48802205320005E-02
 cg2d: Sum(rhs),rhsMax =   1.17098805652027E-09  1.48799727467191E-02
 cg2d: Sum(rhs),rhsMax =   1.17106427333091E-09  1.48797261020953E-02
 cg2d: Sum(rhs),rhsMax =   1.17114676290164E-09  1.48794810051168E-02
 cg2d: Sum(rhs),rhsMax =   1.17120566023310E-09  1.48792378533689E-02
 cg2d: Sum(rhs),rhsMax =   1.17127402221584E-09  1.48789970250543E-02
 cg2d: Sum(rhs),rhsMax =   1.17132367694062E-09  1.48787588844019E-02
 cg2d: Sum(rhs),rhsMax =   1.17137100019704E-09  1.48785237740928E-02
 cg2d: Sum(rhs),rhsMax =   1.17144061118069E-09  1.48782920188807E-02
 cg2d: Sum(rhs),rhsMax =   1.17150092404650E-09  1.48780639183445E-02
 cg2d: Sum(rhs),rhsMax =   1.17156628842707E-09  1.48778397489599E-02
 cg2d: Sum(rhs),rhsMax =   1.17162467228038E-09  1.48776197640316E-02
 cg2d: Sum(rhs),rhsMax =   1.17168720559224E-09  1.48774041855439E-02
 cg2d: Sum(rhs),rhsMax =   1.17173319658104E-09  1.48771932116534E-02
 cg2d: Sum(rhs),rhsMax =   1.17178737546464E-09  1.48769870105114E-02
 cg2d: Sum(rhs),rhsMax =   1.17184961734296E-09  1.48767857225782E-02
 cg2d: Sum(rhs),rhsMax =   1.17191475967893E-09  1.48765894556809E-02
 cg2d: Sum(rhs),rhsMax =   1.17197102023070E-09  1.48763982890215E-02
 cg2d: Sum(rhs),rhsMax =   1.17202708649344E-09  1.48762122710987E-02
 cg2d: Sum(rhs),rhsMax =   1.17207495098359E-09  1.48760314199461E-02
 cg2d: Sum(rhs),rhsMax =   1.17213402872629E-09  1.48758557204527E-02
 cg2d: Sum(rhs),rhsMax =   1.17218985906664E-09  1.48756851299741E-02
 cg2d: Sum(rhs),rhsMax =   1.17224292772722E-09  1.48755195760203E-02
 cg2d: Sum(rhs),rhsMax =   1.17230991580897E-09  1.48753589531308E-02
 cg2d: Sum(rhs),rhsMax =   1.17236058361225E-09  1.48752031300909E-02
 cg2d: Sum(rhs),rhsMax =   1.17241237551635E-09  1.48750519458860E-02
 Computing Diagnostic #    26 "THETA   " (list#  1) Parms "SMR     MR      ", Count=     144
 Computing Diagnostic #    27 "SALT    " (list#  1) Parms "SMR     MR      ", Count=     144
 Computing Diagnostic #    30 "UVEL    " (list#  1) Parms "UUR     MR      ", Count=     144
             Vector  Mate for "UVEL    " :  Diagnostic #     31 "VVEL    " exists
 Computing Diagnostic #    32 "WVEL    " (list#  1) Parms "WM      LR      ", Count=     144
 Computing Diagnostic #    31 "VVEL    " (list#  1) Parms "VVR     MR      ", Count=     144
             Vector  Mate for "VVEL    " :  Diagnostic #     30 "UVEL    " exists
 Computing Diagnostic #   197 "BRGfwFlx" (list#  2) Parms "SM      MR      ", Count=     144
 Computing Diagnostic #   198 "BRGhtFlx" (list#  2) Parms "SM      MR      ", Count=     144
 Computing Diagnostic #   199 "BRGmltRt" (list#  2) Parms "SM      MR      ", Count=     144
 Computing Diagnostic #   201 "BRG_TauX" (list#  2) Parms "UU      MR      ", Count=    1728
 Computing Diagnostic #   202 "BRG_TauY" (list#  2) Parms "VV      MR      ", Count=    1728
 Computing Diagnostic #   203 "BRGhFacC" (list#  2) Parms "SM      MR      ", Count=    1728
 cg2d: Sum(rhs),rhsMax =   1.17247180020374E-09  1.48749052161258E-02
 cg2d: Sum(rhs),rhsMax =   1.17252506315335E-09  1.48747627251625E-02
 cg2d: Sum(rhs),rhsMax =   1.17257820120287E-09  1.48746242372250E-02
 cg2d: Sum(rhs),rhsMax =   1.17262081988923E-09  1.48744894902899E-02
 cg2d: Sum(rhs),rhsMax =   1.17267255628217E-09  1.48743582019908E-02
 cg2d: Sum(rhs),rhsMax =   1.17271609090253E-09  1.48742300700884E-02
 cg2d: Sum(rhs),rhsMax =   1.17278013689326E-09  1.48741047704952E-02
 cg2d: Sum(rhs),rhsMax =   1.17282841771704E-09  1.48739819641929E-02
 cg2d: Sum(rhs),rhsMax =   1.17287583811798E-09  1.48738613018595E-02
 cg2d: Sum(rhs),rhsMax =   1.17292718593287E-09  1.48737424196848E-02
 cg2d: Sum(rhs),rhsMax =   1.17297628554613E-09  1.48736249439691E-02
 cg2d: Sum(rhs),rhsMax =   1.17303874946906E-09  1.48735084928184E-02
 cg2d: Sum(rhs),rhsMax =   1.17309899294593E-09  1.48733926775528E-02
 cg2d: Sum(rhs),rhsMax =   1.17314780112565E-09  1.48732771053340E-02
 cg2d: Sum(rhs),rhsMax =   1.17319849668451E-09  1.48731613828430E-02
 cg2d: Sum(rhs),rhsMax =   1.17324923387674E-09  1.48730451154187E-02
 cg2d: Sum(rhs),rhsMax =   1.17330861693077E-09  1.48729279110605E-02
 cg2d: Sum(rhs),rhsMax =   1.17335229032900E-09  1.48728093801813E-02
 cg2d: Sum(rhs),rhsMax =   1.17340545613409E-09  1.48726891450328E-02
 cg2d: Sum(rhs),rhsMax =   1.17345821948334E-09  1.48725668325863E-02
 cg2d: Sum(rhs),rhsMax =   1.17351023343204E-09  1.48724420798175E-02
 cg2d: Sum(rhs),rhsMax =   1.17357043527555E-09  1.48723145394274E-02
 cg2d: Sum(rhs),rhsMax =   1.17364516716290E-09  1.48721838753000E-02
 cg2d: Sum(rhs),rhsMax =   1.17369193530781E-09  1.48720497706556E-02
 cg2d: Sum(rhs),rhsMax =   1.17375252572938E-09  1.48719119230661E-02
 cg2d: Sum(rhs),rhsMax =   1.17381750153189E-09  1.48717700539587E-02
 cg2d: Sum(rhs),rhsMax =   1.17387438658412E-09  1.48716239010600E-02
 cg2d: Sum(rhs),rhsMax =   1.17394498289070E-09  1.48714732274858E-02
 cg2d: Sum(rhs),rhsMax =   1.17398459009710E-09  1.48713178194120E-02
 cg2d: Sum(rhs),rhsMax =   1.17404476418503E-09  1.48711574877524E-02
 cg2d: Sum(rhs),rhsMax =   1.17409640343347E-09  1.48709920700013E-02
 cg2d: Sum(rhs),rhsMax =   1.17413738454086E-09  1.48708214263092E-02
 cg2d: Sum(rhs),rhsMax =   1.17419418632636E-09  1.48706454502446E-02
 cg2d: Sum(rhs),rhsMax =   1.17424824030987E-09  1.48704640578794E-02
 cg2d: Sum(rhs),rhsMax =   1.17430656865203E-09  1.48702771960033E-02
 cg2d: Sum(rhs),rhsMax =   1.17437320978908E-09  1.48700848398841E-02
 cg2d: Sum(rhs),rhsMax =   1.17443113567539E-09  1.48698869933184E-02
 cg2d: Sum(rhs),rhsMax =   1.17449157344129E-09  1.48696836887225E-02
 cg2d: Sum(rhs),rhsMax =   1.17455252468535E-09  1.48694749868743E-02
 cg2d: Sum(rhs),rhsMax =   1.17462124749057E-09  1.48692609769990E-02
 cg2d: Sum(rhs),rhsMax =   1.17468390570252E-09  1.48690417777140E-02
 cg2d: Sum(rhs),rhsMax =   1.17475355831953E-09  1.48688175331375E-02
 cg2d: Sum(rhs),rhsMax =   1.17481210870629E-09  1.48685884125415E-02
 cg2d: Sum(rhs),rhsMax =   1.17487167217156E-09  1.48683546153418E-02
 cg2d: Sum(rhs),rhsMax =   1.17492804374564E-09  1.48681163606436E-02
 cg2d: Sum(rhs),rhsMax =   1.17499698859547E-09  1.48678738964504E-02
 cg2d: Sum(rhs),rhsMax =   1.17504588004191E-09  1.48676274883650E-02
 cg2d: Sum(rhs),rhsMax =   1.17512057029590E-09  1.48673774282773E-02
 cg2d: Sum(rhs),rhsMax =   1.17518297870767E-09  1.48671240210929E-02
 cg2d: Sum(rhs),rhsMax =   1.17523696330224E-09  1.48668675960631E-02
 cg2d: Sum(rhs),rhsMax =   1.17530037091473E-09  1.48666084985086E-02
 cg2d: Sum(rhs),rhsMax =   1.17535714494466E-09  1.48663470871871E-02
 cg2d: Sum(rhs),rhsMax =   1.17541357202988E-09  1.48660837337267E-02
 cg2d: Sum(rhs),rhsMax =   1.17548053235605E-09  1.48658188220065E-02
 cg2d: Sum(rhs),rhsMax =   1.17555003231740E-09  1.48655527477083E-02
 cg2d: Sum(rhs),rhsMax =   1.17560933210470E-09  1.48652859106672E-02
 cg2d: Sum(rhs),rhsMax =   1.17568073332297E-09  1.48650187217357E-02
 cg2d: Sum(rhs),rhsMax =   1.17573296931628E-09  1.48647515910468E-02
 cg2d: Sum(rhs),rhsMax =   1.17579769531861E-09  1.48644849319927E-02
 cg2d: Sum(rhs),rhsMax =   1.17586276826565E-09  1.48642191589118E-02
 cg2d: Sum(rhs),rhsMax =   1.17592058312965E-09  1.48639546864027E-02
 cg2d: Sum(rhs),rhsMax =   1.17599124882517E-09  1.48636919226818E-02
 cg2d: Sum(rhs),rhsMax =   1.17605881977401E-09  1.48634312741273E-02
 cg2d: Sum(rhs),rhsMax =   1.17611123617856E-09  1.48631731378605E-02
 cg2d: Sum(rhs),rhsMax =   1.17616108519236E-09  1.48629179024110E-02
 cg2d: Sum(rhs),rhsMax =   1.17622644957294E-09  1.48626659470911E-02
 cg2d: Sum(rhs),rhsMax =   1.17629486706683E-09  1.48624176368522E-02
 cg2d: Sum(rhs),rhsMax =   1.17634840757219E-09  1.48621733240291E-02
 cg2d: Sum(rhs),rhsMax =   1.17639650798473E-09  1.48619333474419E-02
 cg2d: Sum(rhs),rhsMax =   1.17647272479537E-09  1.48616980266883E-02
 cg2d: Sum(rhs),rhsMax =   1.17652605713392E-09  1.48614676635087E-02
 cg2d: Sum(rhs),rhsMax =   1.17657776577129E-09  1.48612425415829E-02
 cg2d: Sum(rhs),rhsMax =   1.17663759291453E-09  1.48610229225434E-02
 cg2d: Sum(rhs),rhsMax =   1.17669544941190E-09  1.48608090484219E-02
 cg2d: Sum(rhs),rhsMax =   1.17674865685036E-09  1.48606011386125E-02
 cg2d: Sum(rhs),rhsMax =   1.17681533962077E-09  1.48603993865182E-02
 cg2d: Sum(rhs),rhsMax =   1.17687648515385E-09  1.48602039661835E-02
 cg2d: Sum(rhs),rhsMax =   1.17693460532919E-09  1.48600150229853E-02
 cg2d: Sum(rhs),rhsMax =   1.17698729928950E-09  1.48598326799276E-02
 cg2d: Sum(rhs),rhsMax =   1.17703054247631E-09  1.48596570351465E-02
 cg2d: Sum(rhs),rhsMax =   1.17709378355535E-09  1.48594881565207E-02
 cg2d: Sum(rhs),rhsMax =   1.17715574787791E-09  1.48593260933179E-02
 cg2d: Sum(rhs),rhsMax =   1.17721367376422E-09  1.48591708639815E-02
 cg2d: Sum(rhs),rhsMax =   1.17726581261302E-09  1.48590224625764E-02
 cg2d: Sum(rhs),rhsMax =   1.17732587567865E-09  1.48588808605255E-02
 cg2d: Sum(rhs),rhsMax =   1.17739221150437E-09  1.48587460001181E-02
 cg2d: Sum(rhs),rhsMax =   1.17745076189113E-09  1.48586178017418E-02
 cg2d: Sum(rhs),rhsMax =   1.17750355299595E-09  1.48584961621090E-02
 cg2d: Sum(rhs),rhsMax =   1.17755780126849E-09  1.48583809544195E-02
 cg2d: Sum(rhs),rhsMax =   1.17761744800049E-09  1.48582720277386E-02
 cg2d: Sum(rhs),rhsMax =   1.17765604212838E-09  1.48581692126746E-02
 cg2d: Sum(rhs),rhsMax =   1.17772334939925E-09  1.48580723184845E-02
 cg2d: Sum(rhs),rhsMax =   1.17776886854326E-09  1.48579811111851E-02
 cg2d: Sum(rhs),rhsMax =   1.17782412989431E-09  1.48578953957711E-02
 cg2d: Sum(rhs),rhsMax =   1.17787640752098E-09  1.48578149317899E-02
 cg2d: Sum(rhs),rhsMax =   1.17792002540806E-09  1.48577394256559E-02
 cg2d: Sum(rhs),rhsMax =   1.17797370469130E-09  1.48576686056042E-02
 cg2d: Sum(rhs),rhsMax =   1.17803047872123E-09  1.48576021854077E-02
 cg2d: Sum(rhs),rhsMax =   1.17807985589025E-09  1.48575398644870E-02
 cg2d: Sum(rhs),rhsMax =   1.17812999633760E-09  1.48574813284193E-02
 cg2d: Sum(rhs),rhsMax =   1.17818088618549E-09  1.48574262527124E-02
 cg2d: Sum(rhs),rhsMax =   1.17823224787816E-09  1.48573743058792E-02
 cg2d: Sum(rhs),rhsMax =   1.17829510037915E-09  1.48573251519048E-02
 cg2d: Sum(rhs),rhsMax =   1.17833172386117E-09  1.48572784495687E-02
 cg2d: Sum(rhs),rhsMax =   1.17835853574721E-09  1.48572338525336E-02
 cg2d: Sum(rhs),rhsMax =   1.17839975277700E-09  1.48571910162870E-02
 cg2d: Sum(rhs),rhsMax =   1.17844191349636E-09  1.48571495927759E-02
 cg2d: Sum(rhs),rhsMax =   1.17848761305162E-09  1.48571092367604E-02
 cg2d: Sum(rhs),rhsMax =   1.17854993819666E-09  1.48570696042493E-02
 cg2d: Sum(rhs),rhsMax =   1.17858783843516E-09  1.48570303542643E-02
 cg2d: Sum(rhs),rhsMax =   1.17862584969597E-09  1.48569911539799E-02
 cg2d: Sum(rhs),rhsMax =   1.17867529625393E-09  1.48569516713806E-02
 cg2d: Sum(rhs),rhsMax =   1.17872371585559E-09  1.48569115897443E-02
 cg2d: Sum(rhs),rhsMax =   1.17876026994868E-09  1.48568705914544E-02
 cg2d: Sum(rhs),rhsMax =   1.17878888594714E-09  1.48568283765653E-02
 cg2d: Sum(rhs),rhsMax =   1.17883477979142E-09  1.48567846513362E-02
 cg2d: Sum(rhs),rhsMax =   1.17888364348229E-09  1.48567391361627E-02
 cg2d: Sum(rhs),rhsMax =   1.17891926776359E-09  1.48566915621371E-02
 cg2d: Sum(rhs),rhsMax =   1.17896145623853E-09  1.48566416749172E-02
 cg2d: Sum(rhs),rhsMax =   1.17900476881427E-09  1.48565892339094E-02
 cg2d: Sum(rhs),rhsMax =   1.17905774033034E-09  1.48565340111353E-02
 cg2d: Sum(rhs),rhsMax =   1.17911051755737E-09  1.48564757966506E-02
 cg2d: Sum(rhs),rhsMax =   1.17915179009831E-09  1.48564143945172E-02
 cg2d: Sum(rhs),rhsMax =   1.17919156383817E-09  1.48563496233551E-02
 cg2d: Sum(rhs),rhsMax =   1.17924853215712E-09  1.48562813227404E-02
 cg2d: Sum(rhs),rhsMax =   1.17930169796221E-09  1.48562093419215E-02
 cg2d: Sum(rhs),rhsMax =   1.17935219923204E-09  1.48561335526800E-02
 cg2d: Sum(rhs),rhsMax =   1.17939628896391E-09  1.48560538384907E-02
 cg2d: Sum(rhs),rhsMax =   1.17945445077261E-09  1.48559701041965E-02
 cg2d: Sum(rhs),rhsMax =   1.17950908762321E-09  1.48558822658473E-02
 cg2d: Sum(rhs),rhsMax =   1.17955765988054E-09  1.48557902586882E-02
 cg2d: Sum(rhs),rhsMax =   1.17962122014870E-09  1.48556940325716E-02
 cg2d: Sum(rhs),rhsMax =   1.17966740542652E-09  1.48555935551831E-02
 cg2d: Sum(rhs),rhsMax =   1.17971864221911E-09  1.48554888052169E-02
 cg2d: Sum(rhs),rhsMax =   1.17976210745052E-09  1.48553797796856E-02
 cg2d: Sum(rhs),rhsMax =   1.17981480141083E-09  1.48552664866773E-02
 cg2d: Sum(rhs),rhsMax =   1.17986656555935E-09  1.48551489507900E-02
 cg2d: Sum(rhs),rhsMax =   1.17992662862498E-09  1.48550272055169E-02
 cg2d: Sum(rhs),rhsMax =   1.17998354143278E-09  1.48549013015500E-02
 cg2d: Sum(rhs),rhsMax =   1.18004633842261E-09  1.48547712951097E-02
 cg2d: Sum(rhs),rhsMax =   1.18008844363082E-09  1.48546372576499E-02
 cg2d: Sum(rhs),rhsMax =   1.18015214267686E-09  1.48544992685705E-02
 cg2d: Sum(rhs),rhsMax =   1.18020164474597E-09  1.48543574147736E-02
 cg2d: Sum(rhs),rhsMax =   1.18024495732172E-09  1.48542117941177E-02
 Computing Diagnostic #    26 "THETA   " (list#  1) Parms "SMR     MR      ", Count=     144
 Computing Diagnostic #    27 "SALT    " (list#  1) Parms "SMR     MR      ", Count=     144
 Computing Diagnostic #    30 "UVEL    " (list#  1) Parms "UUR     MR      ", Count=     144
             Vector  Mate for "UVEL    " :  Diagnostic #     31 "VVEL    " exists
 Computing Diagnostic #    32 "WVEL    " (list#  1) Parms "WM      LR      ", Count=     144
 Computing Diagnostic #    31 "VVEL    " (list#  1) Parms "VVR     MR      ", Count=     144
             Vector  Mate for "VVEL    " :  Diagnostic #     30 "UVEL    " exists
 Computing Diagnostic #   197 "BRGfwFlx" (list#  2) Parms "SM      MR      ", Count=     144
 Computing Diagnostic #   198 "BRGhtFlx" (list#  2) Parms "SM      MR      ", Count=     144
 Computing Diagnostic #   199 "BRGmltRt" (list#  2) Parms "SM      MR      ", Count=     144
 Computing Diagnostic #   201 "BRG_TauX" (list#  2) Parms "UU      MR      ", Count=    1728
 Computing Diagnostic #   202 "BRG_TauY" (list#  2) Parms "VV      MR      ", Count=    1728
 Computing Diagnostic #   203 "BRGhFacC" (list#  2) Parms "SM      MR      ", Count=    1728
 cg2d: Sum(rhs),rhsMax =   1.18030756002252E-09  1.48540625093055E-02
 cg2d: Sum(rhs),rhsMax =   1.18036089236107E-09  1.48539096709413E-02
 cg2d: Sum(rhs),rhsMax =   1.18041065810814E-09  1.48537533935807E-02
 cg2d: Sum(rhs),rhsMax =   1.18047194241910E-09  1.48535937975900E-02
 cg2d: Sum(rhs),rhsMax =   1.18053733455525E-09  1.48534310061348E-02
 cg2d: Sum(rhs),rhsMax =   1.18059578779750E-09  1.48532651455486E-02
 cg2d: Sum(rhs),rhsMax =   1.18064656662309E-09  1.48530963447715E-02
 cg2d: Sum(rhs),rhsMax =   1.18069401477960E-09  1.48529247327360E-02
 cg2d: Sum(rhs),rhsMax =   1.18074985899774E-09  1.48527504389014E-02
 cg2d: Sum(rhs),rhsMax =   1.18080921429620E-09  1.48525735919752E-02
 cg2d: Sum(rhs),rhsMax =   1.18086708467136E-09  1.48523943205084E-02
 cg2d: Sum(rhs),rhsMax =   1.18093658463270E-09  1.48522127505819E-02
 cg2d: Sum(rhs),rhsMax =   1.18099219292844E-09  1.48520290036485E-02
 cg2d: Sum(rhs),rhsMax =   1.18105412949543E-09  1.48518432041300E-02
 cg2d: Sum(rhs),rhsMax =   1.18111631586260E-09  1.48516554684612E-02
 cg2d: Sum(rhs),rhsMax =   1.18118506642340E-09  1.48514659064284E-02
 cg2d: Sum(rhs),rhsMax =   1.18126662618234E-09  1.48512746156348E-02
 cg2d: Sum(rhs),rhsMax =   1.18132321980102E-09  1.48510815548714E-02
 cg2d: Sum(rhs),rhsMax =   1.18137147286923E-09  1.48508868592016E-02
 cg2d: Sum(rhs),rhsMax =   1.18143159144601E-09  1.48506907277404E-02
 cg2d: Sum(rhs),rhsMax =   1.18149048877747E-09  1.48504932468211E-02
 cg2d: Sum(rhs),rhsMax =   1.18154692974048E-09  1.48502944923780E-02
 cg2d: Sum(rhs),rhsMax =   1.18160353723695E-09  1.48500945361374E-02
 cg2d: Sum(rhs),rhsMax =   1.18166017248900E-09  1.48498934432808E-02
 cg2d: Sum(rhs),rhsMax =   1.18172271967865E-09  1.48496912668000E-02
 cg2d: Sum(rhs),rhsMax =   1.18177417851584E-09  1.48494880573392E-02
 cg2d: Sum(rhs),rhsMax =   1.18183866859578E-09  1.48492838530118E-02
 cg2d: Sum(rhs),rhsMax =   1.18189776021627E-09  1.48490786884836E-02
 cg2d: Sum(rhs),rhsMax =   1.18195978004998E-09  1.48488725884535E-02
 cg2d: Sum(rhs),rhsMax =   1.18200917109679E-09  1.48486655730933E-02
 cg2d: Sum(rhs),rhsMax =   1.18206720800540E-09  1.48484576522782E-02
 cg2d: Sum(rhs),rhsMax =   1.18213483446539E-09  1.48482488319523E-02
 cg2d: Sum(rhs),rhsMax =   1.18219621592086E-09  1.48480391111497E-02
 cg2d: Sum(rhs),rhsMax =   1.18226457790360E-09  1.48478284817227E-02
 cg2d: Sum(rhs),rhsMax =   1.18232040824395E-09  1.48476169287530E-02
 cg2d: Sum(rhs),rhsMax =   1.18238249746661E-09  1.48474044363999E-02
 cg2d: Sum(rhs),rhsMax =   1.18243216606917E-09  1.48471909783450E-02
 cg2d: Sum(rhs),rhsMax =   1.18249708636053E-09  1.48469765267793E-02
 cg2d: Sum(rhs),rhsMax =   1.18256140990702E-09  1.48467610476315E-02
 cg2d: Sum(rhs),rhsMax =   1.18261514470142E-09  1.48465445057327E-02
 cg2d: Sum(rhs),rhsMax =   1.18268883575467E-09  1.48463268596326E-02
 cg2d: Sum(rhs),rhsMax =   1.18274040561417E-09  1.48461080682185E-02
 cg2d: Sum(rhs),rhsMax =   1.18281219541050E-09  1.48458880862668E-02
 cg2d: Sum(rhs),rhsMax =   1.18286609673834E-09  1.48456668670417E-02
 cg2d: Sum(rhs),rhsMax =   1.18292380058005E-09  1.48454443631296E-02
 cg2d: Sum(rhs),rhsMax =   1.18298619511403E-09  1.48452205262514E-02
 cg2d: Sum(rhs),rhsMax =   1.18304668839109E-09  1.48449953095724E-02
 cg2d: Sum(rhs),rhsMax =   1.18311452301789E-09  1.48447686644260E-02
 cg2d: Sum(rhs),rhsMax =   1.18317224073738E-09  1.48445405454714E-02
 cg2d: Sum(rhs),rhsMax =   1.18323914555241E-09  1.48443109073337E-02
 cg2d: Sum(rhs),rhsMax =   1.18330248377596E-09  1.48440797105162E-02
 cg2d: Sum(rhs),rhsMax =   1.18336965226895E-09  1.48438469208894E-02
 cg2d: Sum(rhs),rhsMax =   1.18344048449792E-09  1.48436124928075E-02
 cg2d: Sum(rhs),rhsMax =   1.18350330924333E-09  1.48433764195978E-02
 cg2d: Sum(rhs),rhsMax =   1.18358065015478E-09  1.48431386850168E-02
 cg2d: Sum(rhs),rhsMax =   1.18363194245852E-09  1.48428992678450E-02
 cg2d: Sum(rhs),rhsMax =   1.18369967994081E-09  1.48426581575973E-02
 cg2d: Sum(rhs),rhsMax =   1.18375134694482E-09  1.48424153450373E-02
 cg2d: Sum(rhs),rhsMax =   1.18381535130219E-09  1.48421708281840E-02
 cg2d: Sum(rhs),rhsMax =   1.18389012482290E-09  1.48419246067544E-02
 cg2d: Sum(rhs),rhsMax =   1.18396092929629E-09  1.48416766869846E-02
 cg2d: Sum(rhs),rhsMax =   1.18402067317280E-09  1.48414270767873E-02
 cg2d: Sum(rhs),rhsMax =   1.18408040317153E-09  1.48411757911250E-02
 cg2d: Sum(rhs),rhsMax =   1.18414419936208E-09  1.48409228486018E-02
 cg2d: Sum(rhs),rhsMax =   1.18419757333399E-09  1.48406682741911E-02
 cg2d: Sum(rhs),rhsMax =   1.18426714268427E-09  1.48404120976639E-02
 cg2d: Sum(rhs),rhsMax =   1.18433360341008E-09  1.48401543512691E-02
 cg2d: Sum(rhs),rhsMax =   1.18441653707002E-09  1.48398950756443E-02
 cg2d: Sum(rhs),rhsMax =   1.18448219288414E-09  1.48396343135697E-02
 cg2d: Sum(rhs),rhsMax =   1.18454376862864E-09  1.48393721136159E-02
 cg2d: Sum(rhs),rhsMax =   1.18458606812588E-09  1.48391085276343E-02
 cg2d: Sum(rhs),rhsMax =   1.18465176557336E-09  1.48388436120136E-02
 cg2d: Sum(rhs),rhsMax =   1.18472455457042E-09  1.48385774382390E-02
 cg2d: Sum(rhs),rhsMax =   1.18477842814269E-09  1.48383100536745E-02
 cg2d: Sum(rhs),rhsMax =   1.18483672872927E-09  1.48380415290017E-02
 cg2d: Sum(rhs),rhsMax =   1.18491233491724E-09  1.48377719467630E-02
 cg2d: Sum(rhs),rhsMax =   1.18498881540585E-09  1.48375013792067E-02
 cg2d: Sum(rhs),rhsMax =   1.18504919766060E-09  1.48372299016563E-02
 cg2d: Sum(rhs),rhsMax =   1.18511905844443E-09  1.48369575968095E-02
 cg2d: Sum(rhs),rhsMax =   1.18517044789268E-09  1.48366845479670E-02
 cg2d: Sum(rhs),rhsMax =   1.18522994196901E-09  1.48364108400326E-02
 cg2d: Sum(rhs),rhsMax =   1.18528351022995E-09  1.48361365629177E-02
 cg2d: Sum(rhs),rhsMax =   1.18535010973364E-09  1.48358618052295E-02
 cg2d: Sum(rhs),rhsMax =   1.18541243487869E-09  1.48355866580422E-02
 cg2d: Sum(rhs),rhsMax =   1.18547027749827E-09  1.48353112117773E-02
 cg2d: Sum(rhs),rhsMax =   1.18553039607505E-09  1.48350355594380E-02
 cg2d: Sum(rhs),rhsMax =   1.18558615702646E-09  1.48347597957256E-02
 cg2d: Sum(rhs),rhsMax =   1.18563726891896E-09  1.48344840109007E-02
 cg2d: Sum(rhs),rhsMax =   1.18570696316933E-09  1.48342082994046E-02
 cg2d: Sum(rhs),rhsMax =   1.18577911378814E-09  1.48339327545886E-02
 cg2d: Sum(rhs),rhsMax =   1.18584660147025E-09  1.48336574677900E-02
 cg2d: Sum(rhs),rhsMax =   1.18591653164302E-09  1.48333825308393E-02
 cg2d: Sum(rhs),rhsMax =   1.18598421361416E-09  1.48331080328818E-02
 cg2d: Sum(rhs),rhsMax =   1.18605170129626E-09  1.48328340643473E-02
 cg2d: Sum(rhs),rhsMax =   1.18612356048153E-09  1.48325607110391E-02
 cg2d: Sum(rhs),rhsMax =   1.18618416478089E-09  1.48322880603394E-02
 cg2d: Sum(rhs),rhsMax =   1.18625120837379E-09  1.48320161930466E-02
 cg2d: Sum(rhs),rhsMax =   1.18633643186872E-09  1.48317451933943E-02
 cg2d: Sum(rhs),rhsMax =   1.18641090007809E-09  1.48314751405825E-02
 cg2d: Sum(rhs),rhsMax =   1.18646785451926E-09  1.48312061100460E-02
 cg2d: Sum(rhs),rhsMax =   1.18654294722909E-09  1.48309381755154E-02
 cg2d: Sum(rhs),rhsMax =   1.18660330172826E-09  1.48306714094226E-02
 cg2d: Sum(rhs),rhsMax =   1.18667956017227E-09  1.48304058817655E-02
 cg2d: Sum(rhs),rhsMax =   1.18674148286146E-09  1.48301416575383E-02
 cg2d: Sum(rhs),rhsMax =   1.18679943650335E-09  1.48298787995660E-02
 cg2d: Sum(rhs),rhsMax =   1.18687049077693E-09  1.48296173697152E-02
 cg2d: Sum(rhs),rhsMax =   1.18694282180698E-09  1.48293573780906E-02
 cg2d: Sum(rhs),rhsMax =   1.18700675677541E-09  1.48290988779306E-02
 cg2d: Sum(rhs),rhsMax =   1.18706876273134E-09  1.48288419196821E-02
 cg2d: Sum(rhs),rhsMax =   1.18713000540893E-09  1.48285865508382E-02
 cg2d: Sum(rhs),rhsMax =   1.18719707675741E-09  1.48283328200369E-02
 cg2d: Sum(rhs),rhsMax =   1.18726505016209E-09  1.48280807676504E-02
 cg2d: Sum(rhs),rhsMax =   1.18732321197079E-09  1.48278304335433E-02
 cg2d: Sum(rhs),rhsMax =   1.18737766841015E-09  1.48275818545316E-02
 cg2d: Sum(rhs),rhsMax =   1.18744160337858E-09  1.48273350663283E-02
 cg2d: Sum(rhs),rhsMax =   1.18751360134173E-09  1.48270900998347E-02
 cg2d: Sum(rhs),rhsMax =   1.18757563505323E-09  1.48268469834906E-02
 cg2d: Sum(rhs),rhsMax =   1.18763508749620E-09  1.48266057449068E-02
 cg2d: Sum(rhs),rhsMax =   1.18768672674463E-09  1.48263664066082E-02
 cg2d: Sum(rhs),rhsMax =   1.18774687307699E-09  1.48261289906775E-02
 cg2d: Sum(rhs),rhsMax =   1.18781200153517E-09  1.48258935174821E-02
 cg2d: Sum(rhs),rhsMax =   1.18788029412897E-09  1.48256600024366E-02
 cg2d: Sum(rhs),rhsMax =   1.18793758163704E-09  1.48254284617232E-02
 cg2d: Sum(rhs),rhsMax =   1.18800515258588E-09  1.48251989068189E-02
 cg2d: Sum(rhs),rhsMax =   1.18806137150429E-09  1.48249713480379E-02
 cg2d: Sum(rhs),rhsMax =   1.18811943616848E-09  1.48247457973038E-02
 cg2d: Sum(rhs),rhsMax =   1.18820085714955E-09  1.48245222598905E-02
 cg2d: Sum(rhs),rhsMax =   1.18828380468727E-09  1.48243007411410E-02
 cg2d: Sum(rhs),rhsMax =   1.18833190509982E-09  1.48240812433979E-02
 cg2d: Sum(rhs),rhsMax =   1.18840534635289E-09  1.48238637705985E-02
 cg2d: Sum(rhs),rhsMax =   1.18846940622142E-09  1.48236483219515E-02
 cg2d: Sum(rhs),rhsMax =   1.18853100972149E-09  1.48234348961872E-02
 cg2d: Sum(rhs),rhsMax =   1.18858292652568E-09  1.48232234907780E-02
 cg2d: Sum(rhs),rhsMax =   1.18865738085727E-09  1.48230141006916E-02
 cg2d: Sum(rhs),rhsMax =   1.18870031873275E-09  1.48228067199596E-02
 cg2d: Sum(rhs),rhsMax =   1.18876558596881E-09  1.48226013409005E-02
 cg2d: Sum(rhs),rhsMax =   1.18883816679904E-09  1.48223979557492E-02
 cg2d: Sum(rhs),rhsMax =   1.18891144151867E-09  1.48221965521128E-02
 cg2d: Sum(rhs),rhsMax =   1.18896507916855E-09  1.48219971193561E-02
 cg2d: Sum(rhs),rhsMax =   1.18901426204854E-09  1.48217996435846E-02
 cg2d: Sum(rhs),rhsMax =   1.18909102009290E-09  1.48216041089953E-02
 cg2d: Sum(rhs),rhsMax =   1.18913989766156E-09  1.48214104984475E-02
 cg2d: Sum(rhs),rhsMax =   1.18920538694223E-09  1.48212187928817E-02
 cg2d: Sum(rhs),rhsMax =   1.18926275771702E-09  1.48210289719244E-02
 Computing Diagnostic #    26 "THETA   " (list#  1) Parms "SMR     MR      ", Count=     144
 Computing Diagnostic #    27 "SALT    " (list#  1) Parms "SMR     MR      ", Count=     144
 Computing Diagnostic #    30 "UVEL    " (list#  1) Parms "UUR     MR      ", Count=     144
             Vector  Mate for "UVEL    " :  Diagnostic #     31 "VVEL    " exists
 Computing Diagnostic #    32 "WVEL    " (list#  1) Parms "WM      LR      ", Count=     144
 Computing Diagnostic #    31 "VVEL    " (list#  1) Parms "VVR     MR      ", Count=     144
             Vector  Mate for "VVEL    " :  Diagnostic #     30 "UVEL    " exists
 Computing Diagnostic #   197 "BRGfwFlx" (list#  2) Parms "SM      MR      ", Count=     144
 Computing Diagnostic #   198 "BRGhtFlx" (list#  2) Parms "SM      MR      ", Count=     144
 Computing Diagnostic #   199 "BRGmltRt" (list#  2) Parms "SM      MR      ", Count=     144
 Computing Diagnostic #   201 "BRG_TauX" (list#  2) Parms "UU      MR      ", Count=    1728
 Computing Diagnostic #   202 "BRG_TauY" (list#  2) Parms "VV      MR      ", Count=    1728
 Computing Diagnostic #   203 "BRGhFacC" (list#  2) Parms "SM      MR      ", Count=    1728
 cg2d: Sum(rhs),rhsMax =   1.18933869697191E-09  1.48208410097440E-02
 cg2d: Sum(rhs),rhsMax =   1.18939957882702E-09  1.48206548833060E-02
 cg2d: Sum(rhs),rhsMax =   1.18947007798909E-09  1.48204705695474E-02
 cg2d: Sum(rhs),rhsMax =   1.18954783523417E-09  1.48202880449338E-02
 cg2d: Sum(rhs),rhsMax =   1.18959682382513E-09  1.48201072733771E-02
 cg2d: Sum(rhs),rhsMax =   1.18964917084075E-09  1.48199282227574E-02
 cg2d: Sum(rhs),rhsMax =   1.18971764384579E-09  1.48197508557281E-02
 cg2d: Sum(rhs),rhsMax =   1.18976974106122E-09  1.48195751364804E-02
 cg2d: Sum(rhs),rhsMax =   1.18983310704035E-09  1.48194010248376E-02
 cg2d: Sum(rhs),rhsMax =   1.18990171882327E-09  1.48192284778000E-02
 cg2d: Sum(rhs),rhsMax =   1.18995142905920E-09  1.48190574509127E-02
 cg2d: Sum(rhs),rhsMax =   1.19001071496871E-09  1.48188878952008E-02
 cg2d: Sum(rhs),rhsMax =   1.19007388665882E-09  1.48187197608693E-02
 cg2d: Sum(rhs),rhsMax =   1.19012445731759E-09  1.48185529939755E-02
 cg2d: Sum(rhs),rhsMax =   1.19019850919333E-09  1.48183875380487E-02
 cg2d: Sum(rhs),rhsMax =   1.19023481348624E-09  1.48182233335452E-02
 cg2d: Sum(rhs),rhsMax =   1.19029847089891E-09  1.48180603168321E-02
 cg2d: Sum(rhs),rhsMax =   1.19036498713587E-09  1.48178984231976E-02
 cg2d: Sum(rhs),rhsMax =   1.19041931867514E-09  1.48177375856386E-02
 cg2d: Sum(rhs),rhsMax =   1.19046184021698E-09  1.48175777292064E-02
 cg2d: Sum(rhs),rhsMax =   1.19052459557345E-09  1.48174187826237E-02
 cg2d: Sum(rhs),rhsMax =   1.19058343739376E-09  1.48172606654077E-02
 cg2d: Sum(rhs),rhsMax =   1.19064949566372E-09  1.48171032985987E-02
 cg2d: Sum(rhs),rhsMax =   1.19071297266515E-09  1.48169465967648E-02
 cg2d: Sum(rhs),rhsMax =   1.19078281957119E-09  1.48167904747813E-02
 cg2d: Sum(rhs),rhsMax =   1.19086182581718E-09  1.48166348420642E-02
 cg2d: Sum(rhs),rhsMax =   1.19092631589712E-09  1.48164796068330E-02
 cg2d: Sum(rhs),rhsMax =   1.19098421402786E-09  1.48163246756238E-02
 cg2d: Sum(rhs),rhsMax =   1.19104867635222E-09  1.48161699501286E-02
 cg2d: Sum(rhs),rhsMax =   1.19109501428571E-09  1.48160153319895E-02
 cg2d: Sum(rhs),rhsMax =   1.19114336449844E-09  1.48158607181883E-02
 cg2d: Sum(rhs),rhsMax =   1.19119930586109E-09  1.48157060069848E-02
 cg2d: Sum(rhs),rhsMax =   1.19126522535318E-09  1.48155510926673E-02
 cg2d: Sum(rhs),rhsMax =   1.19131979281484E-09  1.48153958672487E-02
 cg2d: Sum(rhs),rhsMax =   1.19136885079474E-09  1.48152402250717E-02
 cg2d: Sum(rhs),rhsMax =   1.19142967713870E-09  1.48150840547946E-02
 cg2d: Sum(rhs),rhsMax =   1.19149645705363E-09  1.48149272470894E-02
 cg2d: Sum(rhs),rhsMax =   1.19156141897836E-09  1.48147696922479E-02
 cg2d: Sum(rhs),rhsMax =   1.19161421008318E-09  1.48146112778971E-02
 cg2d: Sum(rhs),rhsMax =   1.19166959633432E-09  1.48144518945527E-02
 cg2d: Sum(rhs),rhsMax =   1.19172884061047E-09  1.48142914310964E-02
 cg2d: Sum(rhs),rhsMax =   1.19179925650581E-09  1.48141297774157E-02
 cg2d: Sum(rhs),rhsMax =   1.19186399638593E-09  1.48139668491162E-02
 cg2d: Sum(rhs),rhsMax =   1.19191066738633E-09  1.48138024959207E-02
 cg2d: Sum(rhs),rhsMax =   1.19196962022894E-09  1.48136366585887E-02
 cg2d: Sum(rhs),rhsMax =   1.19204240922599E-09  1.48134692433195E-02
 cg2d: Sum(rhs),rhsMax =   1.19210130655745E-09  1.48133001447969E-02
 cg2d: Sum(rhs),rhsMax =   1.19216377048037E-09  1.48131292680735E-02
 cg2d: Sum(rhs),rhsMax =   1.19221041372519E-09  1.48129565281181E-02
 cg2d: Sum(rhs),rhsMax =   1.19227257233678E-09  1.48127818332080E-02
 cg2d: Sum(rhs),rhsMax =   1.19232623774224E-09  1.48126051019200E-02
 cg2d: Sum(rhs),rhsMax =   1.19238983964376E-09  1.48124262526369E-02
 cg2d: Sum(rhs),rhsMax =   1.19244510099481E-09  1.48122452079627E-02
 cg2d: Sum(rhs),rhsMax =   1.19250401220405E-09  1.48120618945469E-02
 cg2d: Sum(rhs),rhsMax =   1.19255082198233E-09  1.48118762428395E-02
 cg2d: Sum(rhs),rhsMax =   1.19260812336819E-09  1.48116881889460E-02
 cg2d: Sum(rhs),rhsMax =   1.19267801190759E-09  1.48114976728053E-02
 cg2d: Sum(rhs),rhsMax =   1.19273689536126E-09  1.48113046377552E-02
 cg2d: Sum(rhs),rhsMax =   1.19279347510215E-09  1.48111090350497E-02
 cg2d: Sum(rhs),rhsMax =   1.19285946398318E-09  1.48109108208516E-02
 cg2d: Sum(rhs),rhsMax =   1.19290732847332E-09  1.48107099575404E-02
 cg2d: Sum(rhs),rhsMax =   1.19297356715453E-09  1.48105064123913E-02
 cg2d: Sum(rhs),rhsMax =   1.19304141565912E-09  1.48103001548538E-02
 cg2d: Sum(rhs),rhsMax =   1.19310256119221E-09  1.48100911652730E-02
 cg2d: Sum(rhs),rhsMax =   1.19315216040583E-09  1.48098794313356E-02
 cg2d: Sum(rhs),rhsMax =   1.19321495739566E-09  1.48096649424289E-02
 cg2d: Sum(rhs),rhsMax =   1.19327289715976E-09  1.48094476996801E-02
 cg2d: Sum(rhs),rhsMax =   1.19333036507907E-09  1.48092277055894E-02
 cg2d: Sum(rhs),rhsMax =   1.19340097526344E-09  1.48090049732522E-02
 cg2d: Sum(rhs),rhsMax =   1.19345860971620E-09  1.48087795200387E-02
 cg2d: Sum(rhs),rhsMax =   1.19350582195032E-09  1.48085513715648E-02
 cg2d: Sum(rhs),rhsMax =   1.19356843852891E-09  1.48083205577368E-02
 cg2d: Sum(rhs),rhsMax =   1.19362854322791E-09  1.48080871151721E-02
 cg2d: Sum(rhs),rhsMax =   1.19369725215535E-09  1.48078510922029E-02
 cg2d: Sum(rhs),rhsMax =   1.19376150631290E-09  1.48076125359831E-02
 cg2d: Sum(rhs),rhsMax =   1.19382903562837E-09  1.48073715032512E-02
 cg2d: Sum(rhs),rhsMax =   1.19388865460479E-09  1.48071280564297E-02
 cg2d: Sum(rhs),rhsMax =   1.19395815456613E-09  1.48068822631157E-02
 cg2d: Sum(rhs),rhsMax =   1.19401774578698E-09  1.48066341983642E-02
 cg2d: Sum(rhs),rhsMax =   1.19406307064196E-09  1.48063839398589E-02
 cg2d: Sum(rhs),rhsMax =   1.19413193222506E-09  1.48061315708581E-02
 cg2d: Sum(rhs),rhsMax =   1.19419044097846E-09  1.48058771796422E-02
 cg2d: Sum(rhs),rhsMax =   1.19425411226892E-09  1.48056208614832E-02
 cg2d: Sum(rhs),rhsMax =   1.19431475820164E-09  1.48053627125635E-02
 cg2d: Sum(rhs),rhsMax =   1.19437258694344E-09  1.48051028333210E-02
 cg2d: Sum(rhs),rhsMax =   1.19442579438189E-09  1.48048413279301E-02
 cg2d: Sum(rhs),rhsMax =   1.19448109736631E-09  1.48045783035419E-02
 cg2d: Sum(rhs),rhsMax =   1.19454542091280E-09  1.48043138713012E-02
 cg2d: Sum(rhs),rhsMax =   1.19463379466556E-09  1.48040481411576E-02
 cg2d: Sum(rhs),rhsMax =   1.19468039627701E-09  1.48037812267245E-02
 cg2d: Sum(rhs),rhsMax =   1.19474244386630E-09  1.48035132458256E-02
 cg2d: Sum(rhs),rhsMax =   1.19480472737798E-09  1.48032443107861E-02
 cg2d: Sum(rhs),rhsMax =   1.19485642213757E-09  1.48029745393952E-02
 cg2d: Sum(rhs),rhsMax =   1.19492414574207E-09  1.48027040498675E-02
 cg2d: Sum(rhs),rhsMax =   1.19501016027090E-09  1.48024329534978E-02
 cg2d: Sum(rhs),rhsMax =   1.19507874429825E-09  1.48021613670433E-02
 cg2d: Sum(rhs),rhsMax =   1.19514555196876E-09  1.48018894045631E-02
 cg2d: Sum(rhs),rhsMax =   1.19519823205128E-09  1.48016171763840E-02
 cg2d: Sum(rhs),rhsMax =   1.19526392949876E-09  1.48013447925330E-02
 cg2d: Sum(rhs),rhsMax =   1.19532926612376E-09  1.48010723577629E-02
 cg2d: Sum(rhs),rhsMax =   1.19540087550885E-09  1.48007999757473E-02
 cg2d: Sum(rhs),rhsMax =   1.19547190202685E-09  1.48005277471953E-02
 cg2d: Sum(rhs),rhsMax =   1.19553857091947E-09  1.48002557669609E-02
 cg2d: Sum(rhs),rhsMax =   1.19558851707779E-09  1.47999841264492E-02
 cg2d: Sum(rhs),rhsMax =   1.19565705947178E-09  1.47997129112689E-02
 cg2d: Sum(rhs),rhsMax =   1.19573570489528E-09  1.47994422027571E-02
 cg2d: Sum(rhs),rhsMax =   1.19580625956850E-09  1.47991720778283E-02
 cg2d: Sum(rhs),rhsMax =   1.19586722469034E-09  1.47989026071578E-02
 cg2d: Sum(rhs),rhsMax =   1.19594004144297E-09  1.47986338545894E-02
 cg2d: Sum(rhs),rhsMax =   1.19600976344891E-09  1.47983658777864E-02
 cg2d: Sum(rhs),rhsMax =   1.19607386495080E-09  1.47980987284743E-02
 cg2d: Sum(rhs),rhsMax =   1.19614809723778E-09  1.47978324544227E-02
 cg2d: Sum(rhs),rhsMax =   1.19621101912770E-09  1.47975670912375E-02
 cg2d: Sum(rhs),rhsMax =   1.19627048544846E-09  1.47973026720523E-02
 cg2d: Sum(rhs),rhsMax =   1.19633382367201E-09  1.47970392201158E-02
 cg2d: Sum(rhs),rhsMax =   1.19640690410261E-09  1.47967767553492E-02
 cg2d: Sum(rhs),rhsMax =   1.19648189966792E-09  1.47965152874973E-02
 cg2d: Sum(rhs),rhsMax =   1.19654970653915E-09  1.47962548196696E-02
 cg2d: Sum(rhs),rhsMax =   1.19660006903111E-09  1.47959953498916E-02
 cg2d: Sum(rhs),rhsMax =   1.19667921405497E-09  1.47957368663225E-02
 cg2d: Sum(rhs),rhsMax =   1.19673118637031E-09  1.47954793548474E-02
 cg2d: Sum(rhs),rhsMax =   1.19679714749577E-09  1.47952227903702E-02
 cg2d: Sum(rhs),rhsMax =   1.19686739685765E-09  1.47949671415639E-02
 cg2d: Sum(rhs),rhsMax =   1.19691891120599E-09  1.47947123750938E-02
 cg2d: Sum(rhs),rhsMax =   1.19698875811203E-09  1.47944584462644E-02
 cg2d: Sum(rhs),rhsMax =   1.19704708645418E-09  1.47942053092738E-02
 cg2d: Sum(rhs),rhsMax =   1.19712953439155E-09  1.47939529101525E-02
 cg2d: Sum(rhs),rhsMax =   1.19718376878630E-09  1.47937011902455E-02
 cg2d: Sum(rhs),rhsMax =   1.19723927993753E-09  1.47934499313003E-02
 cg2d: Sum(rhs),rhsMax =   1.19730014791486E-09  1.47931991731433E-02
 cg2d: Sum(rhs),rhsMax =   1.19737778025986E-09  1.47929486497735E-02
 cg2d: Sum(rhs),rhsMax =   1.19745280358075E-09  1.47926982125682E-02
 cg2d: Sum(rhs),rhsMax =   1.19750198646074E-09  1.47924477252160E-02
 cg2d: Sum(rhs),rhsMax =   1.19755913519093E-09  1.47921970881142E-02
 cg2d: Sum(rhs),rhsMax =   1.19761484063119E-09  1.47919461336207E-02
 cg2d: Sum(rhs),rhsMax =   1.19767214201705E-09  1.47916947440095E-02
 cg2d: Sum(rhs),rhsMax =   1.19773548024060E-09  1.47914427727562E-02
 cg2d: Sum(rhs),rhsMax =   1.19779615392890E-09  1.47911901045427E-02
 cg2d: Sum(rhs),rhsMax =   1.19785494023805E-09  1.47909366150184E-02
 cg2d: Sum(rhs),rhsMax =   1.19791590535989E-09  1.47906821945080E-02
 cg2d: Sum(rhs),rhsMax =   1.19798082565126E-09  1.47904267371483E-02
 cg2d: Sum(rhs),rhsMax =   1.19803235387739E-09  1.47901701490160E-02
 cg2d: Sum(rhs),rhsMax =   1.19808445109282E-09  1.47899123447244E-02
 cg2d: Sum(rhs),rhsMax =   1.19814419496933E-09  1.47896532492403E-02
 Computing Diagnostic #    26 "THETA   " (list#  1) Parms "SMR     MR      ", Count=     144
 Computing Diagnostic #    27 "SALT    " (list#  1) Parms "SMR     MR      ", Count=     144
 Computing Diagnostic #    30 "UVEL    " (list#  1) Parms "UUR     MR      ", Count=     144
             Vector  Mate for "UVEL    " :  Diagnostic #     31 "VVEL    " exists
 Computing Diagnostic #    32 "WVEL    " (list#  1) Parms "WM      LR      ", Count=     144
 Computing Diagnostic #    31 "VVEL    " (list#  1) Parms "VVR     MR      ", Count=     144
             Vector  Mate for "VVEL    " :  Diagnostic #     30 "UVEL    " exists
 Computing Diagnostic #   197 "BRGfwFlx" (list#  2) Parms "SM      MR      ", Count=     144
 Computing Diagnostic #   198 "BRGhtFlx" (list#  2) Parms "SM      MR      ", Count=     144
 Computing Diagnostic #   199 "BRGmltRt" (list#  2) Parms "SM      MR      ", Count=     144
 Computing Diagnostic #   201 "BRG_TauX" (list#  2) Parms "UU      MR      ", Count=    1728
 Computing Diagnostic #   202 "BRG_TauY" (list#  2) Parms "VV      MR      ", Count=    1728
 Computing Diagnostic #   203 "BRGhFacC" (list#  2) Parms "SM      MR      ", Count=    1728
 cg2d: Sum(rhs),rhsMax =   1.19819403010535E-09  1.47893927953951E-02
 cg2d: Sum(rhs),rhsMax =   1.19825430133780E-09  1.47891309312777E-02
 cg2d: Sum(rhs),rhsMax =   1.19832931078090E-09  1.47888676145645E-02
 cg2d: Sum(rhs),rhsMax =   1.19839296819357E-09  1.47886028132946E-02
 cg2d: Sum(rhs),rhsMax =   1.19845477986047E-09  1.47883365101172E-02
 cg2d: Sum(rhs),rhsMax =   1.19851267799120E-09  1.47880686983042E-02
 cg2d: Sum(rhs),rhsMax =   1.19858212244139E-09  1.47877993816329E-02
 cg2d: Sum(rhs),rhsMax =   1.19865768699601E-09  1.47875285794132E-02
 cg2d: Sum(rhs),rhsMax =   1.19870625925333E-09  1.47872563187550E-02
 cg2d: Sum(rhs),rhsMax =   1.19876122917084E-09  1.47869826414806E-02
 cg2d: Sum(rhs),rhsMax =   1.19883050708758E-09  1.47867075970086E-02
 cg2d: Sum(rhs),rhsMax =   1.19889405347795E-09  1.47864312484245E-02
 cg2d: Sum(rhs),rhsMax =   1.19896298444999E-09  1.47861536731036E-02
 cg2d: Sum(rhs),rhsMax =   1.19902764106339E-09  1.47858749595314E-02
 cg2d: Sum(rhs),rhsMax =   1.19909818185882E-09  1.47855951973375E-02
 cg2d: Sum(rhs),rhsMax =   1.19917777097189E-09  1.47853144923421E-02
 cg2d: Sum(rhs),rhsMax =   1.19923716790371E-09  1.47850329585984E-02
 cg2d: Sum(rhs),rhsMax =   1.19930575193106E-09  1.47847507152196E-02
 cg2d: Sum(rhs),rhsMax =   1.19938543818865E-09  1.47844678922601E-02
 cg2d: Sum(rhs),rhsMax =   1.19945113563613E-09  1.47841846223945E-02
 cg2d: Sum(rhs),rhsMax =   1.19951641674998E-09  1.47839010460511E-02
 cg2d: Sum(rhs),rhsMax =   1.19958511179963E-09  1.47836173095505E-02
 cg2d: Sum(rhs),rhsMax =   1.19964506384296E-09  1.47833335562945E-02
 cg2d: Sum(rhs),rhsMax =   1.19969952028232E-09  1.47830499340940E-02
 cg2d: Sum(rhs),rhsMax =   1.19976700796443E-09  1.47827665979043E-02
 cg2d: Sum(rhs),rhsMax =   1.19983632751453E-09  1.47824837029650E-02
 cg2d: Sum(rhs),rhsMax =   1.19990629932065E-09  1.47822014053188E-02
 cg2d: Sum(rhs),rhsMax =   1.19996576564141E-09  1.47819198597347E-02
 cg2d: Sum(rhs),rhsMax =   1.20003057491047E-09  1.47816392196575E-02
 cg2d: Sum(rhs),rhsMax =   1.20010350268540E-09  1.47813596373670E-02
 cg2d: Sum(rhs),rhsMax =   1.20017182303478E-09  1.47810812605570E-02
 cg2d: Sum(rhs),rhsMax =   1.20021698135631E-09  1.47808042345933E-02
 cg2d: Sum(rhs),rhsMax =   1.20027868200090E-09  1.47805286983400E-02
 cg2d: Sum(rhs),rhsMax =   1.20034961137439E-09  1.47802548078143E-02
 cg2d: Sum(rhs),rhsMax =   1.20040874462823E-09  1.47799826913255E-02
 cg2d: Sum(rhs),rhsMax =   1.20048884721946E-09  1.47797124722608E-02
 cg2d: Sum(rhs),rhsMax =   1.20055321239931E-09  1.47794442629611E-02
 cg2d: Sum(rhs),rhsMax =   1.20060708597158E-09  1.47791781671332E-02
 cg2d: Sum(rhs),rhsMax =   1.20068009701324E-09  1.47789142821777E-02
 cg2d: Sum(rhs),rhsMax =   1.20074283849192E-09  1.47786526927203E-02
 cg2d: Sum(rhs),rhsMax =   1.20079213239421E-09  1.47783934746727E-02
 cg2d: Sum(rhs),rhsMax =   1.20084982235813E-09  1.47781366948118E-02
 cg2d: Sum(rhs),rhsMax =   1.20091860067451E-09  1.47778824087463E-02
 cg2d: Sum(rhs),rhsMax =   1.20097365385874E-09  1.47776306597066E-02
 cg2d: Sum(rhs),rhsMax =   1.20103597900378E-09  1.47773814811654E-02
 cg2d: Sum(rhs),rhsMax =   1.20110281442987E-09  1.47771348958683E-02
 cg2d: Sum(rhs),rhsMax =   1.20116502855261E-09  1.47768909141311E-02
 cg2d: Sum(rhs),rhsMax =   1.20123061497779E-09  1.47766495366659E-02
 cg2d: Sum(rhs),rhsMax =   1.20129926839407E-09  1.47764107511717E-02
 cg2d: Sum(rhs),rhsMax =   1.20137186310210E-09  1.47761745353586E-02
 cg2d: Sum(rhs),rhsMax =   1.20142831794290E-09  1.47759408573512E-02
 cg2d: Sum(rhs),rhsMax =   1.20149150351079E-09  1.47757096724931E-02
 cg2d: Sum(rhs),rhsMax =   1.20155493887886E-09  1.47754809266360E-02
 cg2d: Sum(rhs),rhsMax =   1.20161897099180E-09  1.47752545579710E-02
 cg2d: Sum(rhs),rhsMax =   1.20167684136696E-09  1.47750304937617E-02
 cg2d: Sum(rhs),rhsMax =   1.20173636319887E-09  1.47748086509355E-02
 cg2d: Sum(rhs),rhsMax =   1.20179202700577E-09  1.47745889397802E-02
 cg2d: Sum(rhs),rhsMax =   1.20185333907230E-09  1.47743712632833E-02
 cg2d: Sum(rhs),rhsMax =   1.20191323560448E-09  1.47741555162002E-02
 cg2d: Sum(rhs),rhsMax =   1.20197796160681E-09  1.47739415869465E-02
 cg2d: Sum(rhs),rhsMax =   1.20204696196780E-09  1.47737293591942E-02
 cg2d: Sum(rhs),rhsMax =   1.20211079979171E-09  1.47735187075102E-02
 cg2d: Sum(rhs),rhsMax =   1.20215802590362E-09  1.47733095070174E-02
 cg2d: Sum(rhs),rhsMax =   1.20220630672740E-09  1.47731016259347E-02
 cg2d: Sum(rhs),rhsMax =   1.20225560062970E-09  1.47728949312816E-02
 cg2d: Sum(rhs),rhsMax =   1.20230710110025E-09  1.47726892860309E-02
 cg2d: Sum(rhs),rhsMax =   1.20238223544344E-09  1.47724845519181E-02
 cg2d: Sum(rhs),rhsMax =   1.20242822643224E-09  1.47722805914024E-02
 cg2d: Sum(rhs),rhsMax =   1.20248680457458E-09  1.47720772636572E-02
 cg2d: Sum(rhs),rhsMax =   1.20254524393903E-09  1.47718744327363E-02
 cg2d: Sum(rhs),rhsMax =   1.20261092750873E-09  1.47716719606583E-02
 cg2d: Sum(rhs),rhsMax =   1.20266013814430E-09  1.47714697116686E-02
 cg2d: Sum(rhs),rhsMax =   1.20272238002261E-09  1.47712675550379E-02
 cg2d: Sum(rhs),rhsMax =   1.20278373372251E-09  1.47710653611199E-02
 cg2d: Sum(rhs),rhsMax =   1.20284308902097E-09  1.47708630043692E-02
 cg2d: Sum(rhs),rhsMax =   1.20289168903387E-09  1.47706603647535E-02
 cg2d: Sum(rhs),rhsMax =   1.20295312600049E-09  1.47704573259554E-02
 cg2d: Sum(rhs),rhsMax =   1.20301946182622E-09  1.47702537746226E-02
 cg2d: Sum(rhs),rhsMax =   1.20307422357691E-09  1.47700496121148E-02
 cg2d: Sum(rhs),rhsMax =   1.20313188578525E-09  1.47698447353293E-02
 cg2d: Sum(rhs),rhsMax =   1.20319541829783E-09  1.47696390541788E-02
 cg2d: Sum(rhs),rhsMax =   1.20325598096382E-09  1.47694324826125E-02
 cg2d: Sum(rhs),rhsMax =   1.20331236641569E-09  1.47692249445137E-02
 cg2d: Sum(rhs),rhsMax =   1.20338747300330E-09  1.47690163677286E-02
 cg2d: Sum(rhs),rhsMax =   1.20344596787891E-09  1.47688066910802E-02
 cg2d: Sum(rhs),rhsMax =   1.20349909205064E-09  1.47685958594841E-02
 cg2d: Sum(rhs),rhsMax =   1.20356091759533E-09  1.47683838252494E-02
 cg2d: Sum(rhs),rhsMax =   1.20362643463157E-09  1.47681705488170E-02
 cg2d: Sum(rhs),rhsMax =   1.20368340295052E-09  1.47679560018291E-02
 cg2d: Sum(rhs),rhsMax =   1.20373327971990E-09  1.47677401795182E-02
 cg2d: Sum(rhs),rhsMax =   1.20380301560363E-09  1.47675230665509E-02
 cg2d: Sum(rhs),rhsMax =   1.20385880431062E-09  1.47673046497206E-02
 cg2d: Sum(rhs),rhsMax =   1.20392883162790E-09  1.47670849289479E-02
 cg2d: Sum(rhs),rhsMax =   1.20398714609227E-09  1.47668639089774E-02
 cg2d: Sum(rhs),rhsMax =   1.20405876935514E-09  1.47666415989231E-02
 cg2d: Sum(rhs),rhsMax =   1.20412207982312E-09  1.47664180135377E-02
 cg2d: Sum(rhs),rhsMax =   1.20418942872735E-09  1.47661931766986E-02
 cg2d: Sum(rhs),rhsMax =   1.20425992788942E-09  1.47659671160313E-02
 cg2d: Sum(rhs),rhsMax =   1.20430854178011E-09  1.47657398612371E-02
 cg2d: Sum(rhs),rhsMax =   1.20437382289396E-09  1.47655114493496E-02
 cg2d: Sum(rhs),rhsMax =   1.20444042239765E-09  1.47652819238974E-02
 cg2d: Sum(rhs),rhsMax =   1.20450097118585E-09  1.47650513260319E-02
 cg2d: Sum(rhs),rhsMax =   1.20456514207667E-09  1.47648197051967E-02
 cg2d: Sum(rhs),rhsMax =   1.20461939034922E-09  1.47645871099726E-02
 cg2d: Sum(rhs),rhsMax =   1.20468177100541E-09  1.47643535955652E-02
 cg2d: Sum(rhs),rhsMax =   1.20475036891055E-09  1.47641192129679E-02
 cg2d: Sum(rhs),rhsMax =   1.20481238874426E-09  1.47638840217378E-02
 cg2d: Sum(rhs),rhsMax =   1.20487546328985E-09  1.47636480755961E-02
 cg2d: Sum(rhs),rhsMax =   1.20493695576762E-09  1.47634114330943E-02
 cg2d: Sum(rhs),rhsMax =   1.20500499856124E-09  1.47631741530268E-02
 cg2d: Sum(rhs),rhsMax =   1.20506643552787E-09  1.47629362899876E-02
 cg2d: Sum(rhs),rhsMax =   1.20513460322158E-09  1.47626979039328E-02
 cg2d: Sum(rhs),rhsMax =   1.20520930735335E-09  1.47624590490556E-02
 cg2d: Sum(rhs),rhsMax =   1.20526939817456E-09  1.47622197799286E-02
 cg2d: Sum(rhs),rhsMax =   1.20532946124019E-09  1.47619801493465E-02
 cg2d: Sum(rhs),rhsMax =   1.20539891956817E-09  1.47617402086290E-02
 cg2d: Sum(rhs),rhsMax =   1.20547097304247E-09  1.47615000069669E-02
 cg2d: Sum(rhs),rhsMax =   1.20553535210011E-09  1.47612595904793E-02
 cg2d: Sum(rhs),rhsMax =   1.20560114669210E-09  1.47610190026734E-02
 cg2d: Sum(rhs),rhsMax =   1.20565810113327E-09  1.47607782848301E-02
 cg2d: Sum(rhs),rhsMax =   1.20571384820689E-09  1.47605374768172E-02
 cg2d: Sum(rhs),rhsMax =   1.20577274553835E-09  1.47602966134483E-02
 cg2d: Sum(rhs),rhsMax =   1.20585046115007E-09  1.47600557265325E-02
 cg2d: Sum(rhs),rhsMax =   1.20591707453155E-09  1.47598148464213E-02
 cg2d: Sum(rhs),rhsMax =   1.20598203645628E-09  1.47595739994250E-02
 cg2d: Sum(rhs),rhsMax =   1.20604401465663E-09  1.47593332091130E-02
 cg2d: Sum(rhs),rhsMax =   1.20609500164903E-09  1.47590924948721E-02
 cg2d: Sum(rhs),rhsMax =   1.20616032439624E-09  1.47588518742430E-02
 cg2d: Sum(rhs),rhsMax =   1.20621916621655E-09  1.47586113650948E-02
 cg2d: Sum(rhs),rhsMax =   1.20628629307618E-09  1.47583709772362E-02
 cg2d: Sum(rhs),rhsMax =   1.20636273193142E-09  1.47581307197886E-02
 cg2d: Sum(rhs),rhsMax =   1.20643800505249E-09  1.47578906015641E-02
 cg2d: Sum(rhs),rhsMax =   1.20649695789510E-09  1.47576506302135E-02
 cg2d: Sum(rhs),rhsMax =   1.20655758995003E-09  1.47574108060450E-02
 cg2d: Sum(rhs),rhsMax =   1.20661093616636E-09  1.47571711341187E-02
 cg2d: Sum(rhs),rhsMax =   1.20667324743362E-09  1.47569316120433E-02
 cg2d: Sum(rhs),rhsMax =   1.20672942471867E-09  1.47566922420789E-02
 cg2d: Sum(rhs),rhsMax =   1.20679347070940E-09  1.47564530228318E-02
 cg2d: Sum(rhs),rhsMax =   1.20686662052893E-09  1.47562139521809E-02
 cg2d: Sum(rhs),rhsMax =   1.20692411620382E-09  1.47559750291690E-02
 cg2d: Sum(rhs),rhsMax =   1.20698522010354E-09  1.47557362492237E-02
 cg2d: Sum(rhs),rhsMax =   1.20704354844570E-09  1.47554976134580E-02
 cg2d: Sum(rhs),rhsMax =   1.20711232676207E-09  1.47552591201283E-02
 cg2d: Sum(rhs),rhsMax =   1.20718467166991E-09  1.47550207679290E-02
(PID.TID 0000.0001)      cg2d_init_res =   6.44045650697003E-05
(PID.TID 0000.0001)      cg2d_iters(min,last) =      -1      38
(PID.TID 0000.0001)      cg2d_last_res =   7.43227769926149E-14
(PID.TID 0000.0001) // =======================================================
(PID.TID 0000.0001) // Begin MONITOR dynamic field statistics
(PID.TID 0000.0001) // =======================================================
(PID.TID 0000.0001) %MON time_tsnumber                =                 25920
(PID.TID 0000.0001) %MON time_secondsf                =   6.4800000000000E+05
(PID.TID 0000.0001) %MON dynstat_eta_max              =   4.7968209312691E-03
(PID.TID 0000.0001) %MON dynstat_eta_min              =  -2.3898634374732E-03
(PID.TID 0000.0001) %MON dynstat_eta_mean             =  -1.1928244574642E-13
(PID.TID 0000.0001) %MON dynstat_eta_sd               =   2.4203923347677E-03
(PID.TID 0000.0001) %MON dynstat_eta_del2             =   1.9643112975195E-05
(PID.TID 0000.0001) %MON dynstat_uvel_max             =   4.4133780280053E-02
(PID.TID 0000.0001) %MON dynstat_uvel_min             =  -4.4850963268061E-02
(PID.TID 0000.0001) %MON dynstat_uvel_mean            =   5.2458057343101E-09
(PID.TID 0000.0001) %MON dynstat_uvel_sd              =   6.6389587228957E-03
(PID.TID 0000.0001) %MON dynstat_uvel_del2            =   1.0134622541637E-04
(PID.TID 0000.0001) %MON dynstat_vvel_max             =   2.3563751287467E-02
(PID.TID 0000.0001) %MON dynstat_vvel_min             =  -3.4516182118677E-02
(PID.TID 0000.0001) %MON dynstat_vvel_mean            =  -8.0919745828290E-03
(PID.TID 0000.0001) %MON dynstat_vvel_sd              =   1.1581962059267E-02
(PID.TID 0000.0001) %MON dynstat_vvel_del2            =   9.1097855323257E-05
(PID.TID 0000.0001) %MON dynstat_wvel_max             =   1.3682324633000E-03
(PID.TID 0000.0001) %MON dynstat_wvel_min             =  -1.1333976128952E-03
(PID.TID 0000.0001) %MON dynstat_wvel_mean            =  -1.3550097633292E-20
(PID.TID 0000.0001) %MON dynstat_wvel_sd              =   1.2571166988363E-04
(PID.TID 0000.0001) %MON dynstat_wvel_del2            =   6.4174672940837E-06
(PID.TID 0000.0001) %MON dynstat_theta_max            =   2.6931451612903E+00
(PID.TID 0000.0001) %MON dynstat_theta_min            =  -7.1716386449372E-01
(PID.TID 0000.0001) %MON dynstat_theta_mean           =   2.2199687941222E+00
(PID.TID 0000.0001) %MON dynstat_theta_sd             =   5.3073907786948E-01
(PID.TID 0000.0001) %MON dynstat_theta_del2           =   1.6545919585861E-03
(PID.TID 0000.0001) %MON dynstat_salt_max             =   3.4699999999999E+01
(PID.TID 0000.0001) %MON dynstat_salt_min             =   3.3048709921667E+01
(PID.TID 0000.0001) %MON dynstat_salt_mean            =   3.4363998838580E+01
(PID.TID 0000.0001) %MON dynstat_salt_sd              =   3.2231085588642E-01
(PID.TID 0000.0001) %MON dynstat_salt_del2            =   1.9158745637049E-04
(PID.TID 0000.0001) %MON advcfl_uvel_max              =   2.2425481634031E-03
(PID.TID 0000.0001) %MON advcfl_vvel_max              =   1.7258091059338E-03
(PID.TID 0000.0001) %MON advcfl_wvel_max              =   6.6083039847104E-04
(PID.TID 0000.0001) %MON advcfl_W_hf_max              =   1.4092020300240E-03
(PID.TID 0000.0001) %MON pe_b_mean                    =   4.8878313227090E-08
(PID.TID 0000.0001) %MON ke_max                       =   9.8074156622062E-04
(PID.TID 0000.0001) %MON ke_mean                      =   1.1188537390991E-04
(PID.TID 0000.0001) %MON ke_vol                       =   3.2921708585402E+10
(PID.TID 0000.0001) // =======================================================
(PID.TID 0000.0001) // End MONITOR dynamic field statistics
(PID.TID 0000.0001) // =======================================================
(PID.TID 0000.0001) // =======================================================
(PID.TID 0000.0001) // Begin OBCS MONITOR field statistics
(PID.TID 0000.0001) // =======================================================
(PID.TID 0000.0001) %MON obc_E_uVel_max               =   0.0000000000000E+00
(PID.TID 0000.0001) %MON obc_E_uVel_min               =   0.0000000000000E+00
(PID.TID 0000.0001) %MON obc_E_uVel_mean              =   0.0000000000000E+00
(PID.TID 0000.0001) %MON obc_E_uVel_sd                =   0.0000000000000E+00
(PID.TID 0000.0001) %MON obc_E_uVel_Int               =   0.0000000000000E+00
(PID.TID 0000.0001) %MON obc_N_vVel_max               =  -3.6115799844846E-05
(PID.TID 0000.0001) %MON obc_N_vVel_min               =  -3.0000000000000E-02
(PID.TID 0000.0001) %MON obc_N_vVel_mean              =  -1.3225455303334E-02
(PID.TID 0000.0001) %MON obc_N_vVel_sd                =   1.1350864292742E-02
(PID.TID 0000.0001) %MON obc_N_vVel_Int               =  -5.9514548865004E+04
(PID.TID 0000.0001) %MON obc_S_vVel_max               =  -3.6115799844846E-05
(PID.TID 0000.0001) %MON obc_S_vVel_min               =  -3.0000000000000E-02
(PID.TID 0000.0001) %MON obc_S_vVel_mean              =  -1.3225455303334E-02
(PID.TID 0000.0001) %MON obc_S_vVel_sd                =   1.1350864292742E-02
(PID.TID 0000.0001) %MON obc_S_vVel_Int               =  -5.9514548865004E+04
(PID.TID 0000.0001) // =======================================================
(PID.TID 0000.0001) // End OBCS MONITOR field statistics
(PID.TID 0000.0001) // =======================================================
 Computing Diagnostic #    26 "THETA   " (list#  1) Parms "SMR     MR      ", Count=     144
 Computing Diagnostic #    27 "SALT    " (list#  1) Parms "SMR     MR      ", Count=     144
 Computing Diagnostic #    30 "UVEL    " (list#  1) Parms "UUR     MR      ", Count=     144
             Vector  Mate for "UVEL    " :  Diagnostic #     31 "VVEL    " exists
 Computing Diagnostic #    32 "WVEL    " (list#  1) Parms "WM      LR      ", Count=     144
 Computing Diagnostic #    31 "VVEL    " (list#  1) Parms "VVR     MR      ", Count=     144
             Vector  Mate for "VVEL    " :  Diagnostic #     30 "UVEL    " exists
 Computing Diagnostic #   197 "BRGfwFlx" (list#  2) Parms "SM      MR      ", Count=     144
 Computing Diagnostic #   198 "BRGhtFlx" (list#  2) Parms "SM      MR      ", Count=     144
 Computing Diagnostic #   199 "BRGmltRt" (list#  2) Parms "SM      MR      ", Count=     144
 Computing Diagnostic #   201 "BRG_TauX" (list#  2) Parms "UU      MR      ", Count=    1728
 Computing Diagnostic #   202 "BRG_TauY" (list#  2) Parms "VV      MR      ", Count=    1728
 Computing Diagnostic #   203 "BRGhFacC" (list#  2) Parms "SM      MR      ", Count=    1728
 cg2d: Sum(rhs),rhsMax =   1.20726113828074E-09  1.47547825595691E-02
 cg2d: Sum(rhs),rhsMax =   1.20733116559801E-09  1.47545444944740E-02
 cg2d: Sum(rhs),rhsMax =   1.20740030473687E-09  1.47543065791853E-02
 cg2d: Sum(rhs),rhsMax =   1.20746185272580E-09  1.47540688164000E-02
 cg2d: Sum(rhs),rhsMax =   1.20752255416967E-09  1.47538312128762E-02
 cg2d: Sum(rhs),rhsMax =   1.20758700261625E-09  1.47535937796557E-02
 cg2d: Sum(rhs),rhsMax =   1.20764455380229E-09  1.47533565263121E-02
 cg2d: Sum(rhs),rhsMax =   1.20771422029708E-09  1.47531194671109E-02
 cg2d: Sum(rhs),rhsMax =   1.20777934875527E-09  1.47528826180777E-02
 cg2d: Sum(rhs),rhsMax =   1.20784614254799E-09  1.47526459948336E-02
 cg2d: Sum(rhs),rhsMax =   1.20791900093398E-09  1.47524096219974E-02
 cg2d: Sum(rhs),rhsMax =   1.20797924441085E-09  1.47521735200840E-02
 cg2d: Sum(rhs),rhsMax =   1.20803923808754E-09  1.47519377147907E-02
 cg2d: Sum(rhs),rhsMax =   1.20809823256351E-09  1.47517022346477E-02
 cg2d: Sum(rhs),rhsMax =   1.20816917581479E-09  1.47514671096931E-02
 cg2d: Sum(rhs),rhsMax =   1.20822106486340E-09  1.47512323712940E-02
 cg2d: Sum(rhs),rhsMax =   1.20828362593084E-09  1.47509980556389E-02
 cg2d: Sum(rhs),rhsMax =   1.20834241223999E-09  1.47507641966540E-02
 cg2d: Sum(rhs),rhsMax =   1.20841964212914E-09  1.47505308340045E-02
 cg2d: Sum(rhs),rhsMax =   1.20848039908417E-09  1.47502980067766E-02
 cg2d: Sum(rhs),rhsMax =   1.20855526974939E-09  1.47500657561329E-02
 cg2d: Sum(rhs),rhsMax =   1.20861010088902E-09  1.47498341254813E-02
 cg2d: Sum(rhs),rhsMax =   1.20865364938716E-09  1.47496031540713E-02
 cg2d: Sum(rhs),rhsMax =   1.20872738207378E-09  1.47493728881188E-02
 cg2d: Sum(rhs),rhsMax =   1.20879926901463E-09  1.47491433676974E-02
 cg2d: Sum(rhs),rhsMax =   1.20886765875294E-09  1.47489146367562E-02
 cg2d: Sum(rhs),rhsMax =   1.20891388566413E-09  1.47486867397404E-02
 cg2d: Sum(rhs),rhsMax =   1.20898056843455E-09  1.47484597158669E-02
 cg2d: Sum(rhs),rhsMax =   1.20904171396763E-09  1.47482336074569E-02
 cg2d: Sum(rhs),rhsMax =   1.20910124967732E-09  1.47480084518914E-02
 cg2d: Sum(rhs),rhsMax =   1.20916777979208E-09  1.47477842887532E-02
 cg2d: Sum(rhs),rhsMax =   1.20922689916814E-09  1.47475611505395E-02
 cg2d: Sum(rhs),rhsMax =   1.20928807245679E-09  1.47473390722080E-02
 cg2d: Sum(rhs),rhsMax =   1.20935002290157E-09  1.47471180817285E-02
 cg2d: Sum(rhs),rhsMax =   1.20941741343916E-09  1.47468982057898E-02
 cg2d: Sum(rhs),rhsMax =   1.20947023229956E-09  1.47466794689318E-02
 cg2d: Sum(rhs),rhsMax =   1.20953866367124E-09  1.47464618891798E-02
 cg2d: Sum(rhs),rhsMax =   1.20959098293127E-09  1.47462454820001E-02
 cg2d: Sum(rhs),rhsMax =   1.20965355787650E-09  1.47460302589427E-02
 cg2d: Sum(rhs),rhsMax =   1.20971417605364E-09  1.47458162266197E-02
 cg2d: Sum(rhs),rhsMax =   1.20977376727449E-09  1.47456033857033E-02
 cg2d: Sum(rhs),rhsMax =   1.20984916529565E-09  1.47453917327525E-02
 cg2d: Sum(rhs),rhsMax =   1.20991812402327E-09  1.47451812613438E-02
 cg2d: Sum(rhs),rhsMax =   1.20997735442163E-09  1.47449719567664E-02
 cg2d: Sum(rhs),rhsMax =   1.21003365660677E-09  1.47447638004797E-02
 cg2d: Sum(rhs),rhsMax =   1.21010591824788E-09  1.47445567682536E-02
 cg2d: Sum(rhs),rhsMax =   1.21017056098349E-09  1.47443508318888E-02
 cg2d: Sum(rhs),rhsMax =   1.21022719623554E-09  1.47441459554223E-02
 cg2d: Sum(rhs),rhsMax =   1.21029049282573E-09  1.47439420997628E-02
 cg2d: Sum(rhs),rhsMax =   1.21035415023840E-09  1.47437392186175E-02
 cg2d: Sum(rhs),rhsMax =   1.21041764111762E-09  1.47435372635235E-02
 cg2d: Sum(rhs),rhsMax =   1.21046998813323E-09  1.47433361762263E-02
 cg2d: Sum(rhs),rhsMax =   1.21053590762532E-09  1.47431358984237E-02
 cg2d: Sum(rhs),rhsMax =   1.21059288982206E-09  1.47429363660744E-02
 cg2d: Sum(rhs),rhsMax =   1.21064891445144E-09  1.47427375090931E-02
 cg2d: Sum(rhs),rhsMax =   1.21070822811653E-09  1.47425392557504E-02
 cg2d: Sum(rhs),rhsMax =   1.21076504377982E-09  1.47423415274409E-02
 cg2d: Sum(rhs),rhsMax =   1.21082467663403E-09  1.47421442453676E-02
 cg2d: Sum(rhs),rhsMax =   1.21088988835893E-09  1.47419473247359E-02
 cg2d: Sum(rhs),rhsMax =   1.21093395033522E-09  1.47417506817674E-02
 cg2d: Sum(rhs),rhsMax =   1.21098620020632E-09  1.47415542254784E-02
 cg2d: Sum(rhs),rhsMax =   1.21103753414342E-09  1.47413578676545E-02
 cg2d: Sum(rhs),rhsMax =   1.21108957584770E-09  1.47411615165735E-02
 cg2d: Sum(rhs),rhsMax =   1.21116698614809E-09  1.47409650784196E-02
 cg2d: Sum(rhs),rhsMax =   1.21123287788460E-09  1.47407684627806E-02
 cg2d: Sum(rhs),rhsMax =   1.21128254648717E-09  1.47405715738884E-02
 cg2d: Sum(rhs),rhsMax =   1.21135165787045E-09  1.47403743222667E-02
 cg2d: Sum(rhs),rhsMax =   1.21140746045523E-09  1.47401766142588E-02
 cg2d: Sum(rhs),rhsMax =   1.21147623877160E-09  1.47399783609195E-02
 cg2d: Sum(rhs),rhsMax =   1.21154149212988E-09  1.47397794746076E-02
 cg2d: Sum(rhs),rhsMax =   1.21159442201257E-09  1.47395798680899E-02
 cg2d: Sum(rhs),rhsMax =   1.21165372179988E-09  1.47393794627707E-02
 cg2d: Sum(rhs),rhsMax =   1.21171959965860E-09  1.47391781745699E-02
 cg2d: Sum(rhs),rhsMax =   1.21179333234522E-09  1.47389759317789E-02
 cg2d: Sum(rhs),rhsMax =   1.21185718404693E-09  1.47387726609097E-02
 cg2d: Sum(rhs),rhsMax =   1.21191354174321E-09  1.47385682957719E-02
 cg2d: Sum(rhs),rhsMax =   1.21197234193016E-09  1.47383627774228E-02
 cg2d: Sum(rhs),rhsMax =   1.21202906044893E-09  1.47381560473069E-02
 cg2d: Sum(rhs),rhsMax =   1.21209503545217E-09  1.47379480559422E-02
 cg2d: Sum(rhs),rhsMax =   1.21216614523689E-09  1.47377387578319E-02
 cg2d: Sum(rhs),rhsMax =   1.21223167615092E-09  1.47375281171829E-02
 cg2d: Sum(rhs),rhsMax =   1.21228718730215E-09  1.47373161011105E-02
 cg2d: Sum(rhs),rhsMax =   1.21235138594855E-09  1.47371026866907E-02
 cg2d: Sum(rhs),rhsMax =   1.21241264250393E-09  1.47368878545152E-02
 cg2d: Sum(rhs),rhsMax =   1.21246269968456E-09  1.47366715935858E-02
 cg2d: Sum(rhs),rhsMax =   1.21251518547805E-09  1.47364539033257E-02
 cg2d: Sum(rhs),rhsMax =   1.21257237584160E-09  1.47362347836925E-02
 cg2d: Sum(rhs),rhsMax =   1.21264336072624E-09  1.47360142473587E-02
 cg2d: Sum(rhs),rhsMax =   1.21269981556704E-09  1.47357923102616E-02
 cg2d: Sum(rhs),rhsMax =   1.21276701181561E-09  1.47355689953557E-02
 cg2d: Sum(rhs),rhsMax =   1.21283573462083E-09  1.47353443346564E-02
 cg2d: Sum(rhs),rhsMax =   1.21289445154105E-09  1.47351183666173E-02
 cg2d: Sum(rhs),rhsMax =   1.21296039878871E-09  1.47348911353374E-02
 cg2d: Sum(rhs),rhsMax =   1.21302821953773E-09  1.47346626938646E-02
 cg2d: Sum(rhs),rhsMax =   1.21308824097000E-09  1.47344330973430E-02
 cg2d: Sum(rhs),rhsMax =   1.21315385515075E-09  1.47342024081955E-02
 cg2d: Sum(rhs),rhsMax =   1.21321848400857E-09  1.47339706969945E-02
 cg2d: Sum(rhs),rhsMax =   1.21329041258278E-09  1.47337380370292E-02
 cg2d: Sum(rhs),rhsMax =   1.21335066993744E-09  1.47335045085259E-02
 cg2d: Sum(rhs),rhsMax =   1.21340149039639E-09  1.47332701910943E-02
 cg2d: Sum(rhs),rhsMax =   1.21345930526040E-09  1.47330351717236E-02
 cg2d: Sum(rhs),rhsMax =   1.21353138649027E-09  1.47327995373792E-02
 cg2d: Sum(rhs),rhsMax =   1.21359138016697E-09  1.47325633790732E-02
 cg2d: Sum(rhs),rhsMax =   1.21365818783747E-09  1.47323267920198E-02
 cg2d: Sum(rhs),rhsMax =   1.21372466244107E-09  1.47320898708956E-02
 cg2d: Sum(rhs),rhsMax =   1.21378675166373E-09  1.47318527113212E-02
 cg2d: Sum(rhs),rhsMax =   1.21384791107459E-09  1.47316154122803E-02
 cg2d: Sum(rhs),rhsMax =   1.21390371365937E-09  1.47313780678916E-02
 cg2d: Sum(rhs),rhsMax =   1.21396197261259E-09  1.47311407754215E-02
 cg2d: Sum(rhs),rhsMax =   1.21402668473714E-09  1.47309036285157E-02
 cg2d: Sum(rhs),rhsMax =   1.21408985642724E-09  1.47306667216976E-02
 cg2d: Sum(rhs),rhsMax =   1.21414493736705E-09  1.47304301446415E-02
 cg2d: Sum(rhs),rhsMax =   1.21420540288852E-09  1.47301939843482E-02
 cg2d: Sum(rhs),rhsMax =   1.21427212729230E-09  1.47299583246645E-02
 cg2d: Sum(rhs),rhsMax =   1.21434111377550E-09  1.47297232461711E-02
 cg2d: Sum(rhs),rhsMax =   1.21441399991706E-09  1.47294888241330E-02
 cg2d: Sum(rhs),rhsMax =   1.21447443768297E-09  1.47292551287660E-02
 cg2d: Sum(rhs),rhsMax =   1.21454452051140E-09  1.47290222244828E-02
 cg2d: Sum(rhs),rhsMax =   1.21459642343780E-09  1.47287901716479E-02
 cg2d: Sum(rhs),rhsMax =   1.21466296743034E-09  1.47285590230694E-02
 cg2d: Sum(rhs),rhsMax =   1.21471907532644E-09  1.47283288240929E-02
 cg2d: Sum(rhs),rhsMax =   1.21478793690954E-09  1.47280996163720E-02
 cg2d: Sum(rhs),rhsMax =   1.21485088655504E-09  1.47278714307500E-02
 cg2d: Sum(rhs),rhsMax =   1.21491580684641E-09  1.47276442931461E-02
 cg2d: Sum(rhs),rhsMax =   1.21498008875953E-09  1.47274182206775E-02
 cg2d: Sum(rhs),rhsMax =   1.21504184491528E-09  1.47271932238609E-02
 cg2d: Sum(rhs),rhsMax =   1.21511863071522E-09  1.47269693042151E-02
 cg2d: Sum(rhs),rhsMax =   1.21518674289778E-09  1.47267464560604E-02
 cg2d: Sum(rhs),rhsMax =   1.21525790819366E-09  1.47265246649690E-02
 cg2d: Sum(rhs),rhsMax =   1.21532953145653E-09  1.47263039099182E-02
 cg2d: Sum(rhs),rhsMax =   1.21539610320465E-09  1.47260841614269E-02
 cg2d: Sum(rhs),rhsMax =   1.21546556153262E-09  1.47258653820232E-02
 cg2d: Sum(rhs),rhsMax =   1.21553689336196E-09  1.47256475269550E-02
 cg2d: Sum(rhs),rhsMax =   1.21559520782633E-09  1.47254305430518E-02
 cg2d: Sum(rhs),rhsMax =   1.21565175981164E-09  1.47252143716279E-02
 cg2d: Sum(rhs),rhsMax =   1.21572728273289E-09  1.47249989462907E-02
 cg2d: Sum(rhs),rhsMax =   1.21579384060322E-09  1.47247841926426E-02
 cg2d: Sum(rhs),rhsMax =   1.21582829915035E-09  1.47245700340885E-02
 cg2d: Sum(rhs),rhsMax =   1.21589138757372E-09  1.47243563827839E-02
 cg2d: Sum(rhs),rhsMax =   1.21596548108283E-09  1.47241431495635E-02
 cg2d: Sum(rhs),rhsMax =   1.21602372615826E-09  1.47239302387571E-02
 cg2d: Sum(rhs),rhsMax =   1.21608166592235E-09  1.47237175506975E-02
 cg2d: Sum(rhs),rhsMax =   1.21614013304239E-09  1.47235049815688E-02
 cg2d: Sum(rhs),rhsMax =   1.21620952198143E-09  1.47232924242392E-02
 Computing Diagnostic #    26 "THETA   " (list#  1) Parms "SMR     MR      ", Count=     144
 Computing Diagnostic #    27 "SALT    " (list#  1) Parms "SMR     MR      ", Count=     144
 Computing Diagnostic #    30 "UVEL    " (list#  1) Parms "UUR     MR      ", Count=     144
             Vector  Mate for "UVEL    " :  Diagnostic #     31 "VVEL    " exists
 Computing Diagnostic #    32 "WVEL    " (list#  1) Parms "WM      LR      ", Count=     144
 Computing Diagnostic #    31 "VVEL    " (list#  1) Parms "VVR     MR      ", Count=     144
             Vector  Mate for "VVEL    " :  Diagnostic #     30 "UVEL    " exists
 Computing Diagnostic #   197 "BRGfwFlx" (list#  2) Parms "SM      MR      ", Count=     144
 Computing Diagnostic #   198 "BRGhtFlx" (list#  2) Parms "SM      MR      ", Count=     144
 Computing Diagnostic #   199 "BRGmltRt" (list#  2) Parms "SM      MR      ", Count=     144
 Computing Diagnostic #   201 "BRG_TauX" (list#  2) Parms "UU      MR      ", Count=    1728
 Computing Diagnostic #   202 "BRG_TauY" (list#  2) Parms "VV      MR      ", Count=    1728
 Computing Diagnostic #   203 "BRGhFacC" (list#  2) Parms "SM      MR      ", Count=    1728
 cg2d: Sum(rhs),rhsMax =   1.21627585780715E-09  1.47230797669077E-02
 cg2d: Sum(rhs),rhsMax =   1.21632562355423E-09  1.47228668985654E-02
 cg2d: Sum(rhs),rhsMax =   1.21640295058789E-09  1.47226537028563E-02
 cg2d: Sum(rhs),rhsMax =   1.21645596373732E-09  1.47224400656618E-02
 cg2d: Sum(rhs),rhsMax =   1.21651765050412E-09  1.47222258716621E-02
 cg2d: Sum(rhs),rhsMax =   1.21657166285427E-09  1.47220110022536E-02
 cg2d: Sum(rhs),rhsMax =   1.21664034402613E-09  1.47217953444530E-02
 cg2d: Sum(rhs),rhsMax =   1.21669950503556E-09  1.47215787819598E-02
 cg2d: Sum(rhs),rhsMax =   1.21675333697446E-09  1.47213612029569E-02
 cg2d: Sum(rhs),rhsMax =   1.21680705789107E-09  1.47211424980141E-02
 cg2d: Sum(rhs),rhsMax =   1.21685815590578E-09  1.47209225577602E-02
 cg2d: Sum(rhs),rhsMax =   1.21693009835777E-09  1.47207012820157E-02
 cg2d: Sum(rhs),rhsMax =   1.21699007815668E-09  1.47204785681885E-02
 cg2d: Sum(rhs),rhsMax =   1.21706363043206E-09  1.47202543215964E-02
 cg2d: Sum(rhs),rhsMax =   1.21712116774031E-09  1.47200284544364E-02
 cg2d: Sum(rhs),rhsMax =   1.21717458334558E-09  1.47198008805044E-02
 cg2d: Sum(rhs),rhsMax =   1.21723602031221E-09  1.47195715202223E-02
 cg2d: Sum(rhs),rhsMax =   1.21728353785766E-09  1.47193403041260E-02
 cg2d: Sum(rhs),rhsMax =   1.21735808933376E-09  1.47191071660161E-02
 cg2d: Sum(rhs),rhsMax =   1.21741600134229E-09  1.47188720486999E-02
 cg2d: Sum(rhs),rhsMax =   1.21746675241230E-09  1.47186348997020E-02
 cg2d: Sum(rhs),rhsMax =   1.21751157766692E-09  1.47183956760786E-02
 cg2d: Sum(rhs),rhsMax =   1.21757516569065E-09  1.47181543446886E-02
 cg2d: Sum(rhs),rhsMax =   1.21763744920234E-09  1.47179108779072E-02
 cg2d: Sum(rhs),rhsMax =   1.21769265504224E-09  1.47176652566772E-02
 cg2d: Sum(rhs),rhsMax =   1.21776280725960E-09  1.47174174721415E-02
 cg2d: Sum(rhs),rhsMax =   1.21782028905670E-09  1.47171675192045E-02
 cg2d: Sum(rhs),rhsMax =   1.21788468199213E-09  1.47169154072966E-02
 cg2d: Sum(rhs),rhsMax =   1.21796409069397E-09  1.47166611513721E-02
 cg2d: Sum(rhs),rhsMax =   1.21801785324394E-09  1.47164047750951E-02
 cg2d: Sum(rhs),rhsMax =   1.21807611219715E-09  1.47161463118597E-02
 cg2d: Sum(rhs),rhsMax =   1.21813609199606E-09  1.47158857980803E-02
 cg2d: Sum(rhs),rhsMax =   1.21819664078426E-09  1.47156232872092E-02
 cg2d: Sum(rhs),rhsMax =   1.21826944365910E-09  1.47153588344548E-02
 cg2d: Sum(rhs),rhsMax =   1.21834803357146E-09  1.47150925019506E-02
 cg2d: Sum(rhs),rhsMax =   1.21840321165578E-09  1.47148243635441E-02
 cg2d: Sum(rhs),rhsMax =   1.21846663314606E-09  1.47145544966230E-02
 cg2d: Sum(rhs),rhsMax =   1.21853274692718E-09  1.47142829859769E-02
 cg2d: Sum(rhs),rhsMax =   1.21859100588040E-09  1.47140099233931E-02
 cg2d: Sum(rhs),rhsMax =   1.21865370572571E-09  1.47137354066550E-02
 cg2d: Sum(rhs),rhsMax =   1.21872534286638E-09  1.47134595377908E-02
 cg2d: Sum(rhs),rhsMax =   1.21878528103192E-09  1.47131824248619E-02
 cg2d: Sum(rhs),rhsMax =   1.21886652160175E-09  1.47129041828731E-02
 cg2d: Sum(rhs),rhsMax =   1.21892100579668E-09  1.47126249245449E-02
 cg2d: Sum(rhs),rhsMax =   1.21899523808366E-09  1.47123447735672E-02
 cg2d: Sum(rhs),rhsMax =   1.21906347516632E-09  1.47120638514980E-02
 cg2d: Sum(rhs),rhsMax =   1.21912679951208E-09  1.47117822857230E-02
 cg2d: Sum(rhs),rhsMax =   1.21919457862774E-09  1.47115002037884E-02
 cg2d: Sum(rhs),rhsMax =   1.21926473084510E-09  1.47112177380390E-02
 cg2d: Sum(rhs),rhsMax =   1.21931550967069E-09  1.47109350180120E-02
 cg2d: Sum(rhs),rhsMax =   1.21938964481316E-09  1.47106521729431E-02
 cg2d: Sum(rhs),rhsMax =   1.21945691045067E-09  1.47103693372631E-02
 cg2d: Sum(rhs),rhsMax =   1.21953196152713E-09  1.47100866419182E-02
 cg2d: Sum(rhs),rhsMax =   1.21961904464563E-09  1.47098042154658E-02
 cg2d: Sum(rhs),rhsMax =   1.21968540822692E-09  1.47095221877339E-02
 cg2d: Sum(rhs),rhsMax =   1.21973908751016E-09  1.47092406866873E-02
 cg2d: Sum(rhs),rhsMax =   1.21980249512266E-09  1.47089598355172E-02
 cg2d: Sum(rhs),rhsMax =   1.21988426304842E-09  1.47086797548086E-02
 cg2d: Sum(rhs),rhsMax =   1.21996343582786E-09  1.47084005648873E-02
 cg2d: Sum(rhs),rhsMax =   1.22003682156979E-09  1.47081223782781E-02
 cg2d: Sum(rhs),rhsMax =   1.22009119474242E-09  1.47078453083978E-02
 cg2d: Sum(rhs),rhsMax =   1.22015909875817E-09  1.47075694578362E-02
 cg2d: Sum(rhs),rhsMax =   1.22023927073833E-09  1.47072949319754E-02
 cg2d: Sum(rhs),rhsMax =   1.22029683580216E-09  1.47070218255425E-02
 cg2d: Sum(rhs),rhsMax =   1.22037537020336E-09  1.47067502296661E-02
 cg2d: Sum(rhs),rhsMax =   1.22044034600588E-09  1.47064802308959E-02
 cg2d: Sum(rhs),rhsMax =   1.22051248274690E-09  1.47062119061586E-02
 cg2d: Sum(rhs),rhsMax =   1.22057894347272E-09  1.47059453304942E-02
 cg2d: Sum(rhs),rhsMax =   1.22063707752584E-09  1.47056805751759E-02
 cg2d: Sum(rhs),rhsMax =   1.22071734665052E-09  1.47054177041501E-02
 cg2d: Sum(rhs),rhsMax =   1.22078464004360E-09  1.47051567724140E-02
 cg2d: Sum(rhs),rhsMax =   1.22085228038138E-09  1.47048978258244E-02
 cg2d: Sum(rhs),rhsMax =   1.22090999810087E-09  1.47046409136299E-02
 cg2d: Sum(rhs),rhsMax =   1.22098396670989E-09  1.47043860732438E-02
 cg2d: Sum(rhs),rhsMax =   1.22104565347669E-09  1.47041333240655E-02
 cg2d: Sum(rhs),rhsMax =   1.22110233036210E-09  1.47038826925522E-02
 cg2d: Sum(rhs),rhsMax =   1.22115859091387E-09  1.47036342007142E-02
 cg2d: Sum(rhs),rhsMax =   1.22122847945327E-09  1.47033878601491E-02
 cg2d: Sum(rhs),rhsMax =   1.22129917290437E-09  1.47031436767050E-02
 cg2d: Sum(rhs),rhsMax =   1.22135691837943E-09  1.47029016498400E-02
 cg2d: Sum(rhs),rhsMax =   1.22142361502764E-09  1.47026617750703E-02
 cg2d: Sum(rhs),rhsMax =   1.22148047232429E-09  1.47024240403516E-02
 cg2d: Sum(rhs),rhsMax =   1.22153603898667E-09  1.47021884295831E-02
 cg2d: Sum(rhs),rhsMax =   1.22160213889000E-09  1.47019549192095E-02
 cg2d: Sum(rhs),rhsMax =   1.22166526894674E-09  1.47017234840041E-02
 cg2d: Sum(rhs),rhsMax =   1.22172602590176E-09  1.47014940919176E-02
 cg2d: Sum(rhs),rhsMax =   1.22179705241976E-09  1.47012667074311E-02
 cg2d: Sum(rhs),rhsMax =   1.22185746243009E-09  1.47010412909039E-02
 cg2d: Sum(rhs),rhsMax =   1.22191819162953E-09  1.47008177969537E-02
 cg2d: Sum(rhs),rhsMax =   1.22198252905381E-09  1.47005961791937E-02
 cg2d: Sum(rhs),rhsMax =   1.22204554808825E-09  1.47003763871866E-02
 cg2d: Sum(rhs),rhsMax =   1.22211325781496E-09  1.47001583656887E-02
 cg2d: Sum(rhs),rhsMax =   1.22219254161671E-09  1.46999420583950E-02
 cg2d: Sum(rhs),rhsMax =   1.22224881604627E-09  1.46997274091112E-02
 cg2d: Sum(rhs),rhsMax =   1.22231899601921E-09  1.46995143540579E-02
 cg2d: Sum(rhs),rhsMax =   1.22239493527410E-09  1.46993028327928E-02
 cg2d: Sum(rhs),rhsMax =   1.22245001621391E-09  1.46990927801753E-02
 cg2d: Sum(rhs),rhsMax =   1.22251231360337E-09  1.46988841313390E-02
 cg2d: Sum(rhs),rhsMax =   1.22257115542368E-09  1.46986768185394E-02
 cg2d: Sum(rhs),rhsMax =   1.22263581203708E-09  1.46984707763269E-02
 cg2d: Sum(rhs),rhsMax =   1.22268790925251E-09  1.46982659357893E-02
 cg2d: Sum(rhs),rhsMax =   1.22274665392830E-09  1.46980622296900E-02
 cg2d: Sum(rhs),rhsMax =   1.22281719472372E-09  1.46978595879493E-02
 cg2d: Sum(rhs),rhsMax =   1.22289599280290E-09  1.46976579452135E-02
 cg2d: Sum(rhs),rhsMax =   1.22296200943950E-09  1.46974572338039E-02
 cg2d: Sum(rhs),rhsMax =   1.22304762151249E-09  1.46972573854912E-02
 cg2d: Sum(rhs),rhsMax =   1.22311590022850E-09  1.46970583365877E-02
 cg2d: Sum(rhs),rhsMax =   1.22317389550375E-09  1.46968600209626E-02
 cg2d: Sum(rhs),rhsMax =   1.22323461082541E-09  1.46966623758422E-02
 cg2d: Sum(rhs),rhsMax =   1.22328698559659E-09  1.46964653366002E-02
 cg2d: Sum(rhs),rhsMax =   1.22337073804601E-09  1.46962688429627E-02
 cg2d: Sum(rhs),rhsMax =   1.22343901676203E-09  1.46960728346751E-02
 cg2d: Sum(rhs),rhsMax =   1.22349924636111E-09  1.46958772538715E-02
 cg2d: Sum(rhs),rhsMax =   1.22356257070688E-09  1.46956820444451E-02
 cg2d: Sum(rhs),rhsMax =   1.22363240373513E-09  1.46954871509395E-02
 cg2d: Sum(rhs),rhsMax =   1.22369023247693E-09  1.46952925193613E-02
 cg2d: Sum(rhs),rhsMax =   1.22374520239443E-09  1.46950980992938E-02
 cg2d: Sum(rhs),rhsMax =   1.22380477973749E-09  1.46949038437254E-02
 cg2d: Sum(rhs),rhsMax =   1.22387797119039E-09  1.46947097052073E-02
 cg2d: Sum(rhs),rhsMax =   1.22394668011783E-09  1.46945156335462E-02
 cg2d: Sum(rhs),rhsMax =   1.22402128710508E-09  1.46943215840729E-02
 cg2d: Sum(rhs),rhsMax =   1.22407632641153E-09  1.46941275142932E-02
 cg2d: Sum(rhs),rhsMax =   1.22414317571540E-09  1.46939333842054E-02
 cg2d: Sum(rhs),rhsMax =   1.22420266979173E-09  1.46937391567375E-02
 cg2d: Sum(rhs),rhsMax =   1.22427681881199E-09  1.46935447934554E-02
 cg2d: Sum(rhs),rhsMax =   1.22433681248868E-09  1.46933502599210E-02
 cg2d: Sum(rhs),rhsMax =   1.22439289262921E-09  1.46931555211596E-02
 cg2d: Sum(rhs),rhsMax =   1.22445868722121E-09  1.46929605447836E-02
 cg2d: Sum(rhs),rhsMax =   1.22452893658309E-09  1.46927653006204E-02
 cg2d: Sum(rhs),rhsMax =   1.22457731455139E-09  1.46925697576490E-02
 cg2d: Sum(rhs),rhsMax =   1.22464000051892E-09  1.46923738905302E-02
 cg2d: Sum(rhs),rhsMax =   1.22471226216003E-09  1.46921776715151E-02
 cg2d: Sum(rhs),rhsMax =   1.22476850883402E-09  1.46919810742560E-02
 cg2d: Sum(rhs),rhsMax =   1.22483310993626E-09  1.46917840762623E-02
 cg2d: Sum(rhs),rhsMax =   1.22489633713752E-09  1.46915866527847E-02
 cg2d: Sum(rhs),rhsMax =   1.22495877330486E-09  1.46913887865217E-02
 cg2d: Sum(rhs),rhsMax =   1.22503336641433E-09  1.46911904613985E-02
 cg2d: Sum(rhs),rhsMax =   1.22508278521671E-09  1.46909916589630E-02
 cg2d: Sum(rhs),rhsMax =   1.22513534039914E-09  1.46907923596165E-02
 cg2d: Sum(rhs),rhsMax =   1.22521327805547E-09  1.46905925475093E-02
 cg2d: Sum(rhs),rhsMax =   1.22527327173216E-09  1.46903922066417E-02
 cg2d: Sum(rhs),rhsMax =   1.22534235535987E-09  1.46901913216070E-02
 cg2d: Sum(rhs),rhsMax =   1.22540448621589E-09  1.46899898793062E-02
 cg2d: Sum(rhs),rhsMax =   1.22546392478107E-09  1.46897878690579E-02
 Computing Diagnostic #    26 "THETA   " (list#  1) Parms "SMR     MR      ", Count=     144
 Computing Diagnostic #    27 "SALT    " (list#  1) Parms "SMR     MR      ", Count=     144
 Computing Diagnostic #    30 "UVEL    " (list#  1) Parms "UUR     MR      ", Count=     144
             Vector  Mate for "UVEL    " :  Diagnostic #     31 "VVEL    " exists
 Computing Diagnostic #    32 "WVEL    " (list#  1) Parms "WM      LR      ", Count=     144
 Computing Diagnostic #    31 "VVEL    " (list#  1) Parms "VVR     MR      ", Count=     144
             Vector  Mate for "VVEL    " :  Diagnostic #     30 "UVEL    " exists
 Computing Diagnostic #   197 "BRGfwFlx" (list#  2) Parms "SM      MR      ", Count=     144
 Computing Diagnostic #   198 "BRGhtFlx" (list#  2) Parms "SM      MR      ", Count=     144
 Computing Diagnostic #   199 "BRGmltRt" (list#  2) Parms "SM      MR      ", Count=     144
 Computing Diagnostic #   201 "BRG_TauX" (list#  2) Parms "UU      MR      ", Count=    1728
 Computing Diagnostic #   202 "BRG_TauY" (list#  2) Parms "VV      MR      ", Count=    1728
 Computing Diagnostic #   203 "BRGhFacC" (list#  2) Parms "SM      MR      ", Count=    1728
 cg2d: Sum(rhs),rhsMax =   1.22551988002151E-09  1.46895852771431E-02
 cg2d: Sum(rhs),rhsMax =   1.22558252435567E-09  1.46893820932016E-02
 cg2d: Sum(rhs),rhsMax =   1.22564441928930E-09  1.46891783123137E-02
 cg2d: Sum(rhs),rhsMax =   1.22570066596328E-09  1.46889739222262E-02
 cg2d: Sum(rhs),rhsMax =   1.22576376826444E-09  1.46887689181246E-02
 cg2d: Sum(rhs),rhsMax =   1.22584173367635E-09  1.46885632972610E-02
 cg2d: Sum(rhs),rhsMax =   1.22589489948144E-09  1.46883570535837E-02
 cg2d: Sum(rhs),rhsMax =   1.22595732177100E-09  1.46881501868290E-02
 cg2d: Sum(rhs),rhsMax =   1.22602444863062E-09  1.46879426956541E-02
 cg2d: Sum(rhs),rhsMax =   1.22610574471160E-09  1.46877345816329E-02
 cg2d: Sum(rhs),rhsMax =   1.22617303810468E-09  1.46875258475613E-02
 cg2d: Sum(rhs),rhsMax =   1.22622909048964E-09  1.46873164995540E-02
 cg2d: Sum(rhs),rhsMax =   1.22629961740728E-09  1.46871065410415E-02
 cg2d: Sum(rhs),rhsMax =   1.22636553689937E-09  1.46868959841524E-02
 cg2d: Sum(rhs),rhsMax =   1.22643920019705E-09  1.46866848382103E-02
 cg2d: Sum(rhs),rhsMax =   1.22649729261681E-09  1.46864731155358E-02
 cg2d: Sum(rhs),rhsMax =   1.22655972878416E-09  1.46862608321552E-02
 cg2d: Sum(rhs),rhsMax =   1.22662317803002E-09  1.46860480028313E-02
 cg2d: Sum(rhs),rhsMax =   1.22667841162549E-09  1.46858346499376E-02
 cg2d: Sum(rhs),rhsMax =   1.22675668234873E-09  1.46856207927929E-02
 cg2d: Sum(rhs),rhsMax =   1.22680617054005E-09  1.46854064568218E-02
 cg2d: Sum(rhs),rhsMax =   1.22688342818478E-09  1.46851916663583E-02
 cg2d: Sum(rhs),rhsMax =   1.22694686355285E-09  1.46849764513556E-02
 cg2d: Sum(rhs),rhsMax =   1.22701955540538E-09  1.46847608419261E-02
 cg2d: Sum(rhs),rhsMax =   1.22707237426578E-09  1.46845448736983E-02
 cg2d: Sum(rhs),rhsMax =   1.22714446937344E-09  1.46843285802640E-02
 cg2d: Sum(rhs),rhsMax =   1.22719880091271E-09  1.46841120027778E-02
 cg2d: Sum(rhs),rhsMax =   1.22726015461261E-09  1.46838951792545E-02
 cg2d: Sum(rhs),rhsMax =   1.22731221019468E-09  1.46836781538166E-02
 cg2d: Sum(rhs),rhsMax =   1.22739186869669E-09  1.46834609712635E-02
 cg2d: Sum(rhs),rhsMax =   1.22746336705948E-09  1.46832436797735E-02
 cg2d: Sum(rhs),rhsMax =   1.22752605302701E-09  1.46830263284821E-02
 cg2d: Sum(rhs),rhsMax =   1.22759667708916E-09  1.46828089682489E-02
 cg2d: Sum(rhs),rhsMax =   1.22764647059181E-09  1.46825916536417E-02
 cg2d: Sum(rhs),rhsMax =   1.22770672794648E-09  1.46823744380396E-02
 cg2d: Sum(rhs),rhsMax =   1.22778372191323E-09  1.46821573794808E-02
 cg2d: Sum(rhs),rhsMax =   1.22784581113589E-09  1.46819405342551E-02
 cg2d: Sum(rhs),rhsMax =   1.22790719259136E-09  1.46817239645886E-02
 cg2d: Sum(rhs),rhsMax =   1.22796355028765E-09  1.46815077276307E-02
 cg2d: Sum(rhs),rhsMax =   1.22802559787694E-09  1.46812918871961E-02
 cg2d: Sum(rhs),rhsMax =   1.22807809754821E-09  1.46810765029475E-02
 cg2d: Sum(rhs),rhsMax =   1.22813842429181E-09  1.46808616389210E-02
 cg2d: Sum(rhs),rhsMax =   1.22819723835654E-09  1.46806473565096E-02
 cg2d: Sum(rhs),rhsMax =   1.22824796167098E-09  1.46804337185990E-02
 cg2d: Sum(rhs),rhsMax =   1.22831200766171E-09  1.46802207888600E-02
 cg2d: Sum(rhs),rhsMax =   1.22837179317159E-09  1.46800086260212E-02
 cg2d: Sum(rhs),rhsMax =   1.22843037131393E-09  1.46797972935155E-02
 cg2d: Sum(rhs),rhsMax =   1.22849018457938E-09  1.46795868509652E-02
 cg2d: Sum(rhs),rhsMax =   1.22854458550758E-09  1.46793773568773E-02
 cg2d: Sum(rhs),rhsMax =   1.22860083218157E-09  1.46791688668041E-02
 cg2d: Sum(rhs),rhsMax =   1.22866768148544E-09  1.46789614385881E-02
 cg2d: Sum(rhs),rhsMax =   1.22873042296412E-09  1.46787551212630E-02
 cg2d: Sum(rhs),rhsMax =   1.22879742492366E-09  1.46785499711247E-02
 cg2d: Sum(rhs),rhsMax =   1.22885122910699E-09  1.46783460320222E-02
 cg2d: Sum(rhs),rhsMax =   1.22891979925654E-09  1.46781433518905E-02
 cg2d: Sum(rhs),rhsMax =   1.22897909904385E-09  1.46779419700632E-02
 cg2d: Sum(rhs),rhsMax =   1.22901826216104E-09  1.46777419273689E-02
 cg2d: Sum(rhs),rhsMax =   1.22907957422758E-09  1.46775432591809E-02
 cg2d: Sum(rhs),rhsMax =   1.22914539657515E-09  1.46773459968844E-02
 cg2d: Sum(rhs),rhsMax =   1.22920336409482E-09  1.46771501661504E-02
 cg2d: Sum(rhs),rhsMax =   1.22927841517129E-09  1.46769557922039E-02
 cg2d: Sum(rhs),rhsMax =   1.22933188628771E-09  1.46767628924379E-02
 cg2d: Sum(rhs),rhsMax =   1.22938098590097E-09  1.46765714831538E-02
 cg2d: Sum(rhs),rhsMax =   1.22945473246538E-09  1.46763815721455E-02
 cg2d: Sum(rhs),rhsMax =   1.22951465675314E-09  1.46761931656457E-02
 cg2d: Sum(rhs),rhsMax =   1.22956399228880E-09  1.46760062639118E-02
 cg2d: Sum(rhs),rhsMax =   1.22963564330725E-09  1.46758208601783E-02
 cg2d: Sum(rhs),rhsMax =   1.22970064686534E-09  1.46756369478274E-02
 cg2d: Sum(rhs),rhsMax =   1.22975823968474E-09  1.46754545094020E-02
 cg2d: Sum(rhs),rhsMax =   1.22982898864699E-09  1.46752735274446E-02
 cg2d: Sum(rhs),rhsMax =   1.22988202955199E-09  1.46750939757348E-02
 cg2d: Sum(rhs),rhsMax =   1.22993297491103E-09  1.46749158254515E-02
 cg2d: Sum(rhs),rhsMax =   1.22999294083215E-09  1.46747390416238E-02
 cg2d: Sum(rhs),rhsMax =   1.23005387819841E-09  1.46745635827252E-02
 cg2d: Sum(rhs),rhsMax =   1.23010263086698E-09  1.46743894056552E-02
 cg2d: Sum(rhs),rhsMax =   1.23014198827320E-09  1.46742164607871E-02
 cg2d: Sum(rhs),rhsMax =   1.23020511832994E-09  1.46740446946216E-02
 cg2d: Sum(rhs),rhsMax =   1.23027944776144E-09  1.46738740472590E-02
 cg2d: Sum(rhs),rhsMax =   1.23033569443542E-09  1.46737044583167E-02
 cg2d: Sum(rhs),rhsMax =   1.23039570198991E-09  1.46735358585838E-02
 cg2d: Sum(rhs),rhsMax =   1.23044965882890E-09  1.46733681786119E-02
 cg2d: Sum(rhs),rhsMax =   1.23052762424081E-09  1.46732013424475E-02
 cg2d: Sum(rhs),rhsMax =   1.23058074841254E-09  1.46730352745895E-02
 cg2d: Sum(rhs),rhsMax =   1.23064218537916E-09  1.46728698958002E-02
 cg2d: Sum(rhs),rhsMax =   1.23070158231098E-09  1.46727051236274E-02
 cg2d: Sum(rhs),rhsMax =   1.23077753544365E-09  1.46725408708963E-02
 cg2d: Sum(rhs),rhsMax =   1.23084975545140E-09  1.46723770525631E-02
 cg2d: Sum(rhs),rhsMax =   1.23091332959735E-09  1.46722135762718E-02
 cg2d: Sum(rhs),rhsMax =   1.23096863258176E-09  1.46720503540457E-02
 cg2d: Sum(rhs),rhsMax =   1.23102435189981E-09  1.46718872906430E-02
 cg2d: Sum(rhs),rhsMax =   1.23109968053203E-09  1.46717242961193E-02
 cg2d: Sum(rhs),rhsMax =   1.23115213856995E-09  1.46715612792035E-02
 cg2d: Sum(rhs),rhsMax =   1.23121440820384E-09  1.46713981448449E-02
 cg2d: Sum(rhs),rhsMax =   1.23127359696884E-09  1.46712348027787E-02
 cg2d: Sum(rhs),rhsMax =   1.23132455620567E-09  1.46710711619535E-02
 cg2d: Sum(rhs),rhsMax =   1.23138120533550E-09  1.46709071327535E-02
 cg2d: Sum(rhs),rhsMax =   1.23143659158664E-09  1.46707426272738E-02
 cg2d: Sum(rhs),rhsMax =   1.23148943820262E-09  1.46705775590401E-02
 cg2d: Sum(rhs),rhsMax =   1.23154737796671E-09  1.46704118447047E-02
 cg2d: Sum(rhs),rhsMax =   1.23160862064431E-09  1.46702454013058E-02
 cg2d: Sum(rhs),rhsMax =   1.23165111443058E-09  1.46700781537300E-02
 cg2d: Sum(rhs),rhsMax =   1.23171976784686E-09  1.46699100240424E-02
 cg2d: Sum(rhs),rhsMax =   1.23177429367516E-09  1.46697409431381E-02
 cg2d: Sum(rhs),rhsMax =   1.23183478695221E-09  1.46695708414719E-02
 cg2d: Sum(rhs),rhsMax =   1.23189015932557E-09  1.46693996567488E-02
 cg2d: Sum(rhs),rhsMax =   1.23196275403359E-09  1.46692273297160E-02
 cg2d: Sum(rhs),rhsMax =   1.23202857638116E-09  1.46690538067919E-02
 cg2d: Sum(rhs),rhsMax =   1.23208743207925E-09  1.46688790381438E-02
 cg2d: Sum(rhs),rhsMax =   1.23214245750791E-09  1.46687029814961E-02
 cg2d: Sum(rhs),rhsMax =   1.23220440795269E-09  1.46685255962173E-02
 cg2d: Sum(rhs),rhsMax =   1.23226211179439E-09  1.46683468489602E-02
 cg2d: Sum(rhs),rhsMax =   1.23231054527384E-09  1.46681667125638E-02
 cg2d: Sum(rhs),rhsMax =   1.23238924620850E-09  1.46679851624879E-02
 cg2d: Sum(rhs),rhsMax =   1.23243173999477E-09  1.46678021846859E-02
 cg2d: Sum(rhs),rhsMax =   1.23249882522103E-09  1.46676177670917E-02
 cg2d: Sum(rhs),rhsMax =   1.23255433637226E-09  1.46674319040919E-02
 cg2d: Sum(rhs),rhsMax =   1.23260995854579E-09  1.46672445980025E-02
 cg2d: Sum(rhs),rhsMax =   1.23267464291477E-09  1.46670558512546E-02
 cg2d: Sum(rhs),rhsMax =   1.23274151997421E-09  1.46668656770507E-02
 cg2d: Sum(rhs),rhsMax =   1.23278993957587E-09  1.46666740943262E-02
 cg2d: Sum(rhs),rhsMax =   1.23285683051311E-09  1.46664811239201E-02
 cg2d: Sum(rhs),rhsMax =   1.23291614417820E-09  1.46662867933515E-02
 cg2d: Sum(rhs),rhsMax =   1.23298578291742E-09  1.46660911374110E-02
 cg2d: Sum(rhs),rhsMax =   1.23304746968422E-09  1.46658941920703E-02
 cg2d: Sum(rhs),rhsMax =   1.23310382738051E-09  1.46656960013228E-02
 cg2d: Sum(rhs),rhsMax =   1.23316898359427E-09  1.46654966112459E-02
 cg2d: Sum(rhs),rhsMax =   1.23323860845570E-09  1.46652960736555E-02
 cg2d: Sum(rhs),rhsMax =   1.23329695067564E-09  1.46650944424902E-02
 cg2d: Sum(rhs),rhsMax =   1.23335446022832E-09  1.46648917776468E-02
 cg2d: Sum(rhs),rhsMax =   1.23342344671151E-09  1.46646881412538E-02
 cg2d: Sum(rhs),rhsMax =   1.23348503633380E-09  1.46644835979478E-02
 cg2d: Sum(rhs),rhsMax =   1.23354540471077E-09  1.46642782162500E-02
 cg2d: Sum(rhs),rhsMax =   1.23361230952579E-09  1.46640720643180E-02
 cg2d: Sum(rhs),rhsMax =   1.23367893678505E-09  1.46638652172016E-02
 cg2d: Sum(rhs),rhsMax =   1.23374846450197E-09  1.46636577475397E-02
 cg2d: Sum(rhs),rhsMax =   1.23379940986101E-09  1.46634497288653E-02
 cg2d: Sum(rhs),rhsMax =   1.23387240702488E-09  1.46632412351576E-02
 cg2d: Sum(rhs),rhsMax =   1.23394465478821E-09  1.46630323425593E-02
 cg2d: Sum(rhs),rhsMax =   1.23399830631588E-09  1.46628231282788E-02
 cg2d: Sum(rhs),rhsMax =   1.23405621832440E-09  1.46626136695713E-02
 cg2d: Sum(rhs),rhsMax =   1.23412569053016E-09  1.46624040436385E-02
 cg2d: Sum(rhs),rhsMax =   1.23418993080993E-09  1.46621943232473E-02
 cg2d: Sum(rhs),rhsMax =   1.23425607234662E-09  1.46619845859435E-02
 cg2d: Sum(rhs),rhsMax =   1.23431198595370E-09  1.46617749033805E-02
 Computing Diagnostic #    26 "THETA   " (list#  1) Parms "SMR     MR      ", Count=     144
 Computing Diagnostic #    27 "SALT    " (list#  1) Parms "SMR     MR      ", Count=     144
 Computing Diagnostic #    30 "UVEL    " (list#  1) Parms "UUR     MR      ", Count=     144
             Vector  Mate for "UVEL    " :  Diagnostic #     31 "VVEL    " exists
 Computing Diagnostic #    32 "WVEL    " (list#  1) Parms "WM      LR      ", Count=     144
 Computing Diagnostic #    31 "VVEL    " (list#  1) Parms "VVR     MR      ", Count=     144
             Vector  Mate for "VVEL    " :  Diagnostic #     30 "UVEL    " exists
 Computing Diagnostic #   197 "BRGfwFlx" (list#  2) Parms "SM      MR      ", Count=     144
 Computing Diagnostic #   198 "BRGhtFlx" (list#  2) Parms "SM      MR      ", Count=     144
 Computing Diagnostic #   199 "BRGmltRt" (list#  2) Parms "SM      MR      ", Count=     144
 Computing Diagnostic #   201 "BRG_TauX" (list#  2) Parms "UU      MR      ", Count=    1728
 Computing Diagnostic #   202 "BRG_TauY" (list#  2) Parms "VV      MR      ", Count=    1728
 Computing Diagnostic #   203 "BRGhFacC" (list#  2) Parms "SM      MR      ", Count=    1728
 cg2d: Sum(rhs),rhsMax =   1.23438013976962E-09  1.46615653462188E-02
 cg2d: Sum(rhs),rhsMax =   1.23442141231056E-09  1.46613559808043E-02
 cg2d: Sum(rhs),rhsMax =   1.23448781752522E-09  1.46611468775469E-02
 cg2d: Sum(rhs),rhsMax =   1.23455484724033E-09  1.46609380974038E-02
 cg2d: Sum(rhs),rhsMax =   1.23461069145847E-09  1.46607297008075E-02
 cg2d: Sum(rhs),rhsMax =   1.23467377988185E-09  1.46605217465123E-02
 cg2d: Sum(rhs),rhsMax =   1.23474931668088E-09  1.46603142852471E-02
 cg2d: Sum(rhs),rhsMax =   1.23481182223717E-09  1.46601073666155E-02
 cg2d: Sum(rhs),rhsMax =   1.23485673075852E-09  1.46599010389552E-02
 cg2d: Sum(rhs),rhsMax =   1.23491857018099E-09  1.46596953428324E-02
 cg2d: Sum(rhs),rhsMax =   1.23498110349285E-09  1.46594903153281E-02
 cg2d: Sum(rhs),rhsMax =   1.23503815507853E-09  1.46592859886658E-02
 cg2d: Sum(rhs),rhsMax =   1.23510125737969E-09  1.46590823904017E-02
 cg2d: Sum(rhs),rhsMax =   1.23517061856315E-09  1.46588795441023E-02
 cg2d: Sum(rhs),rhsMax =   1.23524244999285E-09  1.46586774689566E-02
 cg2d: Sum(rhs),rhsMax =   1.23528125228756E-09  1.46584761785035E-02
 cg2d: Sum(rhs),rhsMax =   1.23533652751640E-09  1.46582756804773E-02
 cg2d: Sum(rhs),rhsMax =   1.23539813101647E-09  1.46580759788861E-02
 cg2d: Sum(rhs),rhsMax =   1.23545697283678E-09  1.46578770727294E-02
 cg2d: Sum(rhs),rhsMax =   1.23550517039384E-09  1.46576789553845E-02
 cg2d: Sum(rhs),rhsMax =   1.23556456732565E-09  1.46574816181244E-02
 cg2d: Sum(rhs),rhsMax =   1.23561863518695E-09  1.46572850445180E-02
 cg2d: Sum(rhs),rhsMax =   1.23567461818297E-09  1.46570892150379E-02
 cg2d: Sum(rhs),rhsMax =   1.23573865029591E-09  1.46568941062594E-02
 cg2d: Sum(rhs),rhsMax =   1.23579556310371E-09  1.46566996892645E-02
 cg2d: Sum(rhs),rhsMax =   1.23586871292325E-09  1.46565059323048E-02
 cg2d: Sum(rhs),rhsMax =   1.23591252509936E-09  1.46563127998513E-02
 cg2d: Sum(rhs),rhsMax =   1.23597129753072E-09  1.46561202519464E-02
 cg2d: Sum(rhs),rhsMax =   1.23603578761067E-09  1.46559282466378E-02
 cg2d: Sum(rhs),rhsMax =   1.23609321389662E-09  1.46557367374998E-02
 cg2d: Sum(rhs),rhsMax =   1.23616525349313E-09  1.46555456758887E-02
 cg2d: Sum(rhs),rhsMax =   1.23621599068535E-09  1.46553550112417E-02
 cg2d: Sum(rhs),rhsMax =   1.23626735237803E-09  1.46551646909159E-02
 cg2d: Sum(rhs),rhsMax =   1.23632641624294E-09  1.46549746590394E-02
 cg2d: Sum(rhs),rhsMax =   1.23638758953160E-09  1.46547848592681E-02
 cg2d: Sum(rhs),rhsMax =   1.23644308680504E-09  1.46545952329425E-02
 cg2d: Sum(rhs),rhsMax =   1.23651699990290E-09  1.46544057216983E-02
 cg2d: Sum(rhs),rhsMax =   1.23658080997124E-09  1.46542162654319E-02
 cg2d: Sum(rhs),rhsMax =   1.23664786744193E-09  1.46540268055899E-02
 cg2d: Sum(rhs),rhsMax =   1.23671353713384E-09  1.46538372809528E-02
 cg2d: Sum(rhs),rhsMax =   1.23678602081956E-09  1.46536476326110E-02
 cg2d: Sum(rhs),rhsMax =   1.23684218422682E-09  1.46534577999141E-02
 cg2d: Sum(rhs),rhsMax =   1.23689571085439E-09  1.46532677265323E-02
 cg2d: Sum(rhs),rhsMax =   1.23695216569519E-09  1.46530773551344E-02
 cg2d: Sum(rhs),rhsMax =   1.23701961174394E-09  1.46528866289407E-02
 cg2d: Sum(rhs),rhsMax =   1.23707481758384E-09  1.46526954956922E-02
 cg2d: Sum(rhs),rhsMax =   1.23712032285006E-09  1.46525039031901E-02
 cg2d: Sum(rhs),rhsMax =   1.23718145450535E-09  1.46523118003275E-02
 cg2d: Sum(rhs),rhsMax =   1.23724716583062E-09  1.46521191410001E-02
 cg2d: Sum(rhs),rhsMax =   1.23731586088027E-09  1.46519258810331E-02
 cg2d: Sum(rhs),rhsMax =   1.23736904056315E-09  1.46517319770810E-02
 cg2d: Sum(rhs),rhsMax =   1.23742213697930E-09  1.46515373936211E-02
 cg2d: Sum(rhs),rhsMax =   1.23747712077460E-09  1.46513420930063E-02
 cg2d: Sum(rhs),rhsMax =   1.23753067515775E-09  1.46511460419062E-02
 cg2d: Sum(rhs),rhsMax =   1.23759037740090E-09  1.46509492137973E-02
 cg2d: Sum(rhs),rhsMax =   1.23765085680017E-09  1.46507515824528E-02
 cg2d: Sum(rhs),rhsMax =   1.23770933779799E-09  1.46505531267401E-02
 cg2d: Sum(rhs),rhsMax =   1.23776655591712E-09  1.46503538280910E-02
 cg2d: Sum(rhs),rhsMax =   1.23782538385964E-09  1.46501536733627E-02
 cg2d: Sum(rhs),rhsMax =   1.23789543893249E-09  1.46499526491034E-02
 cg2d: Sum(rhs),rhsMax =   1.23797642970214E-09  1.46497507512037E-02
 cg2d: Sum(rhs),rhsMax =   1.23803199636452E-09  1.46495479744897E-02
 cg2d: Sum(rhs),rhsMax =   1.23809089369598E-09  1.46493443217736E-02
 cg2d: Sum(rhs),rhsMax =   1.23815542540928E-09  1.46491397940107E-02
 cg2d: Sum(rhs),rhsMax =   1.23821512765243E-09  1.46489344005903E-02
 cg2d: Sum(rhs),rhsMax =   1.23827849363156E-09  1.46487281512721E-02
 cg2d: Sum(rhs),rhsMax =   1.23835376675263E-09  1.46485210602855E-02
 cg2d: Sum(rhs),rhsMax =   1.23841294163984E-09  1.46483131429139E-02
 cg2d: Sum(rhs),rhsMax =   1.23846943811401E-09  1.46481044230943E-02
 cg2d: Sum(rhs),rhsMax =   1.23854483613517E-09  1.46478949209860E-02
 cg2d: Sum(rhs),rhsMax =   1.23861104706080E-09  1.46476846611036E-02
 cg2d: Sum(rhs),rhsMax =   1.23867621715235E-09  1.46474736723819E-02
 cg2d: Sum(rhs),rhsMax =   1.23873125645879E-09  1.46472619861705E-02
 cg2d: Sum(rhs),rhsMax =   1.23878760027729E-09  1.46470496327099E-02
 cg2d: Sum(rhs),rhsMax =   1.23884584535272E-09  1.46468366470866E-02
 cg2d: Sum(rhs),rhsMax =   1.23889205838612E-09  1.46466230629854E-02
 cg2d: Sum(rhs),rhsMax =   1.23893811876385E-09  1.46464089176991E-02
 cg2d: Sum(rhs),rhsMax =   1.23900013859757E-09  1.46461942504880E-02
 cg2d: Sum(rhs),rhsMax =   1.23906135351959E-09  1.46459790986152E-02
 cg2d: Sum(rhs),rhsMax =   1.23912927141312E-09  1.46457635035123E-02
 cg2d: Sum(rhs),rhsMax =   1.23918772465537E-09  1.46455475035949E-02
 cg2d: Sum(rhs),rhsMax =   1.23924097372718E-09  1.46453311402050E-02
 cg2d: Sum(rhs),rhsMax =   1.23930378459480E-09  1.46451144527838E-02
 cg2d: Sum(rhs),rhsMax =   1.23937529683538E-09  1.46448974819237E-02
 cg2d: Sum(rhs),rhsMax =   1.23945001484493E-09  1.46446802674202E-02
 cg2d: Sum(rhs),rhsMax =   1.23950144592655E-09  1.46444628476068E-02
 cg2d: Sum(rhs),rhsMax =   1.23955955222410E-09  1.46442452597844E-02
 cg2d: Sum(rhs),rhsMax =   1.23960591791317E-09  1.46440275431355E-02
 cg2d: Sum(rhs),rhsMax =   1.23966607812331E-09  1.46438097335189E-02
 cg2d: Sum(rhs),rhsMax =   1.23971714838245E-09  1.46435918635661E-02
 cg2d: Sum(rhs),rhsMax =   1.23978648181033E-09  1.46433739681507E-02
 cg2d: Sum(rhs),rhsMax =   1.23985591238274E-09  1.46431561061359E-02
 cg2d: Sum(rhs),rhsMax =   1.23991580891492E-09  1.46429382701606E-02
 cg2d: Sum(rhs),rhsMax =   1.23996672651838E-09  1.46427205444121E-02
 cg2d: Sum(rhs),rhsMax =   1.24003100843151E-09  1.46425029554122E-02
 cg2d: Sum(rhs),rhsMax =   1.24009719160156E-09  1.46422855324963E-02
 cg2d: Sum(rhs),rhsMax =   1.24016166780372E-09  1.46420683060452E-02
 cg2d: Sum(rhs),rhsMax =   1.24022578318339E-09  1.46418513089367E-02
 cg2d: Sum(rhs),rhsMax =   1.24028708137214E-09  1.46416345668129E-02
 cg2d: Sum(rhs),rhsMax =   1.24033373849475E-09  1.46414181023515E-02
 cg2d: Sum(rhs),rhsMax =   1.24040216986643E-09  1.46412019398475E-02
 cg2d: Sum(rhs),rhsMax =   1.24046711791337E-09  1.46409860945928E-02
 cg2d: Sum(rhs),rhsMax =   1.24052622341164E-09  1.46407705820928E-02
 cg2d: Sum(rhs),rhsMax =   1.24060754724820E-09  1.46405554150375E-02
 cg2d: Sum(rhs),rhsMax =   1.24068591511595E-09  1.46403406030739E-02
 cg2d: Sum(rhs),rhsMax =   1.24073910867661E-09  1.46401261508593E-02
 cg2d: Sum(rhs),rhsMax =   1.24080179464414E-09  1.46399120644668E-02
 cg2d: Sum(rhs),rhsMax =   1.24085487718251E-09  1.46396983448358E-02
 cg2d: Sum(rhs),rhsMax =   1.24089731545762E-09  1.46394849876355E-02
 cg2d: Sum(rhs),rhsMax =   1.24095367315391E-09  1.46392719920828E-02
 cg2d: Sum(rhs),rhsMax =   1.24101776077801E-09  1.46390593488645E-02
 cg2d: Sum(rhs),rhsMax =   1.24107858712197E-09  1.46388470518135E-02
 cg2d: Sum(rhs),rhsMax =   1.24113874733212E-09  1.46386350898106E-02
 cg2d: Sum(rhs),rhsMax =   1.24119178823712E-09  1.46384234457913E-02
 cg2d: Sum(rhs),rhsMax =   1.24126540990144E-09  1.46382121099355E-02
 cg2d: Sum(rhs),rhsMax =   1.24132465417759E-09  1.46380010642311E-02
 cg2d: Sum(rhs),rhsMax =   1.24139137858137E-09  1.46377902893969E-02
 cg2d: Sum(rhs),rhsMax =   1.24146475044551E-09  1.46375797689016E-02
 cg2d: Sum(rhs),rhsMax =   1.24153519409642E-09  1.46373694785333E-02
 cg2d: Sum(rhs),rhsMax =   1.24158479331005E-09  1.46371594003851E-02
 cg2d: Sum(rhs),rhsMax =   1.24164493964241E-09  1.46369495096880E-02
 cg2d: Sum(rhs),rhsMax =   1.24171412041463E-09  1.46367397847017E-02
 cg2d: Sum(rhs),rhsMax =   1.24177178262297E-09  1.46365302027145E-02
 cg2d: Sum(rhs),rhsMax =   1.24182668315154E-09  1.46363207407011E-02
 cg2d: Sum(rhs),rhsMax =   1.24187887751148E-09  1.46361113745769E-02
 cg2d: Sum(rhs),rhsMax =   1.24193709483134E-09  1.46359020805346E-02
 cg2d: Sum(rhs),rhsMax =   1.24199109330370E-09  1.46356928356581E-02
 cg2d: Sum(rhs),rhsMax =   1.24205069840233E-09  1.46354836196598E-02
 cg2d: Sum(rhs),rhsMax =   1.24213415941821E-09  1.46352744075320E-02
 cg2d: Sum(rhs),rhsMax =   1.24219215469346E-09  1.46350651808872E-02
 cg2d: Sum(rhs),rhsMax =   1.24225596476180E-09  1.46348559174399E-02
 cg2d: Sum(rhs),rhsMax =   1.24231354370341E-09  1.46346465979229E-02
 cg2d: Sum(rhs),rhsMax =   1.24238906662466E-09  1.46344372052717E-02
 cg2d: Sum(rhs),rhsMax =   1.24245243260379E-09  1.46342277216648E-02
 cg2d: Sum(rhs),rhsMax =   1.24251260669173E-09  1.46340181315421E-02
 cg2d: Sum(rhs),rhsMax =   1.24257182321230E-09  1.46338084204409E-02
 cg2d: Sum(rhs),rhsMax =   1.24263214995590E-09  1.46335985755642E-02
 cg2d: Sum(rhs),rhsMax =   1.24269694534718E-09  1.46333885849885E-02
 cg2d: Sum(rhs),rhsMax =   1.24276927637723E-09  1.46331784395288E-02
 cg2d: Sum(rhs),rhsMax =   1.24283380809054E-09  1.46329681294687E-02
 cg2d: Sum(rhs),rhsMax =   1.24287034830584E-09  1.46327576471069E-02
 cg2d: Sum(rhs),rhsMax =   1.24293593473102E-09  1.46325469874009E-02
 cg2d: Sum(rhs),rhsMax =   1.24299712189746E-09  1.46323361471640E-02
 cg2d: Sum(rhs),rhsMax =   1.24305681026282E-09  1.46321251211379E-02
 Computing Diagnostic #    26 "THETA   " (list#  1) Parms "SMR     MR      ", Count=     144
 Computing Diagnostic #    27 "SALT    " (list#  1) Parms "SMR     MR      ", Count=     144
 Computing Diagnostic #    30 "UVEL    " (list#  1) Parms "UUR     MR      ", Count=     144
             Vector  Mate for "UVEL    " :  Diagnostic #     31 "VVEL    " exists
 Computing Diagnostic #    32 "WVEL    " (list#  1) Parms "WM      LR      ", Count=     144
 Computing Diagnostic #    31 "VVEL    " (list#  1) Parms "VVR     MR      ", Count=     144
             Vector  Mate for "VVEL    " :  Diagnostic #     30 "UVEL    " exists
 Computing Diagnostic #   197 "BRGfwFlx" (list#  2) Parms "SM      MR      ", Count=     144
 Computing Diagnostic #   198 "BRGhtFlx" (list#  2) Parms "SM      MR      ", Count=     144
 Computing Diagnostic #   199 "BRGmltRt" (list#  2) Parms "SM      MR      ", Count=     144
 Computing Diagnostic #   201 "BRG_TauX" (list#  2) Parms "UU      MR      ", Count=    1728
 Computing Diagnostic #   202 "BRG_TauY" (list#  2) Parms "VV      MR      ", Count=    1728
 Computing Diagnostic #   203 "BRGhFacC" (list#  2) Parms "SM      MR      ", Count=    1728
 cg2d: Sum(rhs),rhsMax =   1.24312685145789E-09  1.46319139100673E-02
 cg2d: Sum(rhs),rhsMax =   1.24319217420510E-09  1.46317025159811E-02
 cg2d: Sum(rhs),rhsMax =   1.24326390849028E-09  1.46314909372882E-02
 cg2d: Sum(rhs),rhsMax =   1.24332698303586E-09  1.46312791776823E-02
 cg2d: Sum(rhs),rhsMax =   1.24339485929603E-09  1.46310672394874E-02
 cg2d: Sum(rhs),rhsMax =   1.24346109797724E-09  1.46308551270596E-02
 cg2d: Sum(rhs),rhsMax =   1.24352787789217E-09  1.46306428454749E-02
 cg2d: Sum(rhs),rhsMax =   1.24360774456100E-09  1.46304303993065E-02
 cg2d: Sum(rhs),rhsMax =   1.24367252607449E-09  1.46302177934880E-02
 cg2d: Sum(rhs),rhsMax =   1.24374117949078E-09  1.46300050346495E-02
 cg2d: Sum(rhs),rhsMax =   1.24380347688025E-09  1.46297921311987E-02
 cg2d: Sum(rhs),rhsMax =   1.24386885513861E-09  1.46295790888062E-02
 cg2d: Sum(rhs),rhsMax =   1.24393899347819E-09  1.46293659145364E-02
 cg2d: Sum(rhs),rhsMax =   1.24400138801217E-09  1.46291526138998E-02
 cg2d: Sum(rhs),rhsMax =   1.24406217272277E-09  1.46289391942372E-02
 cg2d: Sum(rhs),rhsMax =   1.24412466440127E-09  1.46287256618739E-02
 cg2d: Sum(rhs),rhsMax =   1.24417387503684E-09  1.46285120225437E-02
 cg2d: Sum(rhs),rhsMax =   1.24423576997046E-09  1.46282982794821E-02
 cg2d: Sum(rhs),rhsMax =   1.24430533932074E-09  1.46280844396268E-02
 cg2d: Sum(rhs),rhsMax =   1.24437303516967E-09  1.46278705037134E-02
 cg2d: Sum(rhs),rhsMax =   1.24443060023349E-09  1.46276564762085E-02
 cg2d: Sum(rhs),rhsMax =   1.24448681915190E-09  1.46274423570114E-02
 cg2d: Sum(rhs),rhsMax =   1.24454581362787E-09  1.46272281468042E-02
 cg2d: Sum(rhs),rhsMax =   1.24459732797622E-09  1.46270138470122E-02
 cg2d: Sum(rhs),rhsMax =   1.24467272599738E-09  1.46267994507315E-02
 cg2d: Sum(rhs),rhsMax =   1.24472646079177E-09  1.46265849578470E-02
 cg2d: Sum(rhs),rhsMax =   1.24479396235166E-09  1.46263703627509E-02
 cg2d: Sum(rhs),rhsMax =   1.24484791919066E-09  1.46261556573904E-02
 cg2d: Sum(rhs),rhsMax =   1.24491197905918E-09  1.46259408353675E-02
 cg2d: Sum(rhs),rhsMax =   1.24497991083050E-09  1.46257258865396E-02
 cg2d: Sum(rhs),rhsMax =   1.24504602461162E-09  1.46255108023624E-02
 cg2d: Sum(rhs),rhsMax =   1.24510686483337E-09  1.46252955694610E-02
 cg2d: Sum(rhs),rhsMax =   1.24517665622825E-09  1.46250801742597E-02
 cg2d: Sum(rhs),rhsMax =   1.24523508171492E-09  1.46248646017503E-02
 cg2d: Sum(rhs),rhsMax =   1.24529034306597E-09  1.46246488351679E-02
 cg2d: Sum(rhs),rhsMax =   1.24535581846885E-09  1.46244328572300E-02
 cg2d: Sum(rhs),rhsMax =   1.24542152979412E-09  1.46242166484433E-02
 cg2d: Sum(rhs),rhsMax =   1.24548348023890E-09  1.46240001901844E-02
 cg2d: Sum(rhs),rhsMax =   1.24554963565338E-09  1.46237834613425E-02
 cg2d: Sum(rhs),rhsMax =   1.24561892744790E-09  1.46235664393133E-02
 cg2d: Sum(rhs),rhsMax =   1.24569435322464E-09  1.46233491032841E-02
 cg2d: Sum(rhs),rhsMax =   1.24575415261230E-09  1.46231314289140E-02
 cg2d: Sum(rhs),rhsMax =   1.24581001070823E-09  1.46229133915009E-02
 cg2d: Sum(rhs),rhsMax =   1.24587590244474E-09  1.46226949679292E-02
 cg2d: Sum(rhs),rhsMax =   1.24594204398143E-09  1.46224761349159E-02
 cg2d: Sum(rhs),rhsMax =   1.24599597306485E-09  1.46222568651026E-02
 cg2d: Sum(rhs),rhsMax =   1.24603735662809E-09  1.46220371370730E-02
 cg2d: Sum(rhs),rhsMax =   1.24608512397373E-09  1.46218169249676E-02
 cg2d: Sum(rhs),rhsMax =   1.24616217345164E-09  1.46215962072470E-02
 cg2d: Sum(rhs),rhsMax =   1.24621865604801E-09  1.46213749492032E-02
 cg2d: Sum(rhs),rhsMax =   1.24629195852322E-09  1.46211531410423E-02
 cg2d: Sum(rhs),rhsMax =   1.24634984277616E-09  1.46209307610443E-02
 cg2d: Sum(rhs),rhsMax =   1.24642239585082E-09  1.46207077848561E-02
 cg2d: Sum(rhs),rhsMax =   1.24647860089144E-09  1.46204841921022E-02
 cg2d: Sum(rhs),rhsMax =   1.24654873923102E-09  1.46202599648916E-02
 cg2d: Sum(rhs),rhsMax =   1.24660669287291E-09  1.46200350875007E-02
 cg2d: Sum(rhs),rhsMax =   1.24666396650319E-09  1.46198095453788E-02
 cg2d: Sum(rhs),rhsMax =   1.24673144030751E-09  1.46195833230341E-02
 cg2d: Sum(rhs),rhsMax =   1.24680446522696E-09  1.46193564116160E-02
 cg2d: Sum(rhs),rhsMax =   1.24686638791616E-09  1.46191287998564E-02
 cg2d: Sum(rhs),rhsMax =   1.24694521375091E-09  1.46189004814756E-02
 cg2d: Sum(rhs),rhsMax =   1.24700942627509E-09  1.46186714521987E-02
 cg2d: Sum(rhs),rhsMax =   1.24707003057445E-09  1.46184417090949E-02
 cg2d: Sum(rhs),rhsMax =   1.24713905869100E-09  1.46182112526733E-02
 cg2d: Sum(rhs),rhsMax =   1.24719552740959E-09  1.46179800859897E-02
 cg2d: Sum(rhs),rhsMax =   1.24724650052421E-09  1.46177482129653E-02
 cg2d: Sum(rhs),rhsMax =   1.24730982486998E-09  1.46175156425762E-02
 cg2d: Sum(rhs),rhsMax =   1.24737178919254E-09  1.46172823834955E-02
 cg2d: Sum(rhs),rhsMax =   1.24743783358472E-09  1.46170484503344E-02
 cg2d: Sum(rhs),rhsMax =   1.24750126895279E-09  1.46168138569384E-02
 cg2d: Sum(rhs),rhsMax =   1.24756663333336E-09  1.46165786231286E-02
 cg2d: Sum(rhs),rhsMax =   1.24764955311552E-09  1.46163427676157E-02
 cg2d: Sum(rhs),rhsMax =   1.24770763165749E-09  1.46161063165027E-02
 cg2d: Sum(rhs),rhsMax =   1.24777412013888E-09  1.46158692946833E-02
 cg2d: Sum(rhs),rhsMax =   1.24783640365056E-09  1.46156317290150E-02
 cg2d: Sum(rhs),rhsMax =   1.24789471811493E-09  1.46153936516082E-02
 cg2d: Sum(rhs),rhsMax =   1.24795095091113E-09  1.46151550956834E-02
 cg2d: Sum(rhs),rhsMax =   1.24801975698308E-09  1.46149160953942E-02
 cg2d: Sum(rhs),rhsMax =   1.24808875734406E-09  1.46146766883930E-02
 cg2d: Sum(rhs),rhsMax =   1.24815964508418E-09  1.46144369129916E-02
 cg2d: Sum(rhs),rhsMax =   1.24821776525952E-09  1.46141968122222E-02
 cg2d: Sum(rhs),rhsMax =   1.24828788972131E-09  1.46139564268933E-02
 cg2d: Sum(rhs),rhsMax =   1.24833639258970E-09  1.46137158014079E-02
 cg2d: Sum(rhs),rhsMax =   1.24841681437005E-09  1.46134749814019E-02
 cg2d: Sum(rhs),rhsMax =   1.24847834848119E-09  1.46132340126687E-02
 cg2d: Sum(rhs),rhsMax =   1.24855459304740E-09  1.46129929438593E-02
 cg2d: Sum(rhs),rhsMax =   1.24860412287209E-09  1.46127518239267E-02
 cg2d: Sum(rhs),rhsMax =   1.24867348405555E-09  1.46125107004346E-02
 cg2d: Sum(rhs),rhsMax =   1.24873884843613E-09  1.46122696236719E-02
 cg2d: Sum(rhs),rhsMax =   1.24880877860889E-09  1.46120286429738E-02
 cg2d: Sum(rhs),rhsMax =   1.24887744590296E-09  1.46117878087561E-02
 cg2d: Sum(rhs),rhsMax =   1.24894940223275E-09  1.46115471707548E-02
 cg2d: Sum(rhs),rhsMax =   1.24901408660172E-09  1.46113067786860E-02
 cg2d: Sum(rhs),rhsMax =   1.24905734366632E-09  1.46110666817754E-02
 cg2d: Sum(rhs),rhsMax =   1.24911399279615E-09  1.46108269277367E-02
 cg2d: Sum(rhs),rhsMax =   1.24917688693049E-09  1.46105875649939E-02
 cg2d: Sum(rhs),rhsMax =   1.24924202926646E-09  1.46103486398801E-02
 cg2d: Sum(rhs),rhsMax =   1.24930278622148E-09  1.46101101973426E-02
 cg2d: Sum(rhs),rhsMax =   1.24936536116671E-09  1.46098722835676E-02
 cg2d: Sum(rhs),rhsMax =   1.24943140555889E-09  1.46096349404586E-02
 cg2d: Sum(rhs),rhsMax =   1.24947917290452E-09  1.46093982079122E-02
 cg2d: Sum(rhs),rhsMax =   1.24954102620478E-09  1.46091621260965E-02
 cg2d: Sum(rhs),rhsMax =   1.24959491365484E-09  1.46089267341233E-02
 cg2d: Sum(rhs),rhsMax =   1.24966750836286E-09  1.46086920660350E-02
 cg2d: Sum(rhs),rhsMax =   1.24973283111007E-09  1.46084581541638E-02
 cg2d: Sum(rhs),rhsMax =   1.24979253335322E-09  1.46082250343976E-02
 cg2d: Sum(rhs),rhsMax =   1.24985868876770E-09  1.46079927306950E-02
 cg2d: Sum(rhs),rhsMax =   1.24993192185396E-09  1.46077612727882E-02
 cg2d: Sum(rhs),rhsMax =   1.25000573780731E-09  1.46075306823227E-02
 cg2d: Sum(rhs),rhsMax =   1.25007876272676E-09  1.46073009830721E-02
 cg2d: Sum(rhs),rhsMax =   1.25013432938914E-09  1.46070721949217E-02
 cg2d: Sum(rhs),rhsMax =   1.25020403751730E-09  1.46068443322773E-02
 cg2d: Sum(rhs),rhsMax =   1.25024901542758E-09  1.46066174114342E-02
 cg2d: Sum(rhs),rhsMax =   1.25033763898053E-09  1.46063914416301E-02
 cg2d: Sum(rhs),rhsMax =   1.25038089604512E-09  1.46061664334236E-02
 cg2d: Sum(rhs),rhsMax =   1.25045510057653E-09  1.46059423917150E-02
 cg2d: Sum(rhs),rhsMax =   1.25052422583760E-09  1.46057193218305E-02
 cg2d: Sum(rhs),rhsMax =   1.25058029210035E-09  1.46054972225240E-02
 cg2d: Sum(rhs),rhsMax =   1.25065921507961E-09  1.46052760956207E-02
 cg2d: Sum(rhs),rhsMax =   1.25071106249486E-09  1.46050559357939E-02
 cg2d: Sum(rhs),rhsMax =   1.25077533053020E-09  1.46048367371156E-02
 cg2d: Sum(rhs),rhsMax =   1.25084448354684E-09  1.46046184898889E-02
 cg2d: Sum(rhs),rhsMax =   1.25091362268570E-09  1.46044011839869E-02
 cg2d: Sum(rhs),rhsMax =   1.25098920111810E-09  1.46041848053277E-02
 cg2d: Sum(rhs),rhsMax =   1.25104614168148E-09  1.46039693426883E-02
 cg2d: Sum(rhs),rhsMax =   1.25111297710756E-09  1.46037547742212E-02
 cg2d: Sum(rhs),rhsMax =   1.25116852989215E-09  1.46035410835032E-02
 cg2d: Sum(rhs),rhsMax =   1.25124761940487E-09  1.46033282500714E-02
 cg2d: Sum(rhs),rhsMax =   1.25130569794685E-09  1.46031162507818E-02
 cg2d: Sum(rhs),rhsMax =   1.25137357420702E-09  1.46029050610623E-02
 cg2d: Sum(rhs),rhsMax =   1.25143179152687E-09  1.46026946560253E-02
 cg2d: Sum(rhs),rhsMax =   1.25148394425345E-09  1.46024850078272E-02
 cg2d: Sum(rhs),rhsMax =   1.25156240926572E-09  1.46022760905632E-02
 cg2d: Sum(rhs),rhsMax =   1.25162420705482E-09  1.46020678738478E-02
 cg2d: Sum(rhs),rhsMax =   1.25168279907495E-09  1.46018603273341E-02
 cg2d: Sum(rhs),rhsMax =   1.25175153575796E-09  1.46016534197330E-02
 cg2d: Sum(rhs),rhsMax =   1.25181484622594E-09  1.46014471203414E-02
 cg2d: Sum(rhs),rhsMax =   1.25186939980981E-09  1.46012413961150E-02
 cg2d: Sum(rhs),rhsMax =   1.25192776978533E-09  1.46010362132709E-02
 cg2d: Sum(rhs),rhsMax =   1.25197993638970E-09  1.46008315408563E-02
 cg2d: Sum(rhs),rhsMax =   1.25202859191376E-09  1.46006273437210E-02
 cg2d: Sum(rhs),rhsMax =   1.25209366486079E-09  1.46004235883551E-02
 cg2d: Sum(rhs),rhsMax =   1.25215345037066E-09  1.46002202403736E-02
 cg2d: Sum(rhs),rhsMax =   1.25221655267183E-09  1.46000172671217E-02
 Computing Diagnostic #    26 "THETA   " (list#  1) Parms "SMR     MR      ", Count=     144
 Computing Diagnostic #    27 "SALT    " (list#  1) Parms "SMR     MR      ", Count=     144
 Computing Diagnostic #    30 "UVEL    " (list#  1) Parms "UUR     MR      ", Count=     144
             Vector  Mate for "UVEL    " :  Diagnostic #     31 "VVEL    " exists
 Computing Diagnostic #    32 "WVEL    " (list#  1) Parms "WM      LR      ", Count=     144
 Computing Diagnostic #    31 "VVEL    " (list#  1) Parms "VVR     MR      ", Count=     144
             Vector  Mate for "VVEL    " :  Diagnostic #     30 "UVEL    " exists
 Computing Diagnostic #   197 "BRGfwFlx" (list#  2) Parms "SM      MR      ", Count=     144
 Computing Diagnostic #   198 "BRGhtFlx" (list#  2) Parms "SM      MR      ", Count=     144
 Computing Diagnostic #   199 "BRGmltRt" (list#  2) Parms "SM      MR      ", Count=     144
 Computing Diagnostic #   201 "BRG_TauX" (list#  2) Parms "UU      MR      ", Count=    1728
 Computing Diagnostic #   202 "BRG_TauY" (list#  2) Parms "VV      MR      ", Count=    1728
 Computing Diagnostic #   203 "BRGhFacC" (list#  2) Parms "SM      MR      ", Count=    1728
 cg2d: Sum(rhs),rhsMax =   1.25226354286134E-09  1.45998146359569E-02
 cg2d: Sum(rhs),rhsMax =   1.25232889336413E-09  1.45996123114068E-02
 cg2d: Sum(rhs),rhsMax =   1.25238726333965E-09  1.45994102619957E-02
 cg2d: Sum(rhs),rhsMax =   1.25245502857751E-09  1.45992084546547E-02
 cg2d: Sum(rhs),rhsMax =   1.25251223281886E-09  1.45990068581982E-02
 cg2d: Sum(rhs),rhsMax =   1.25256871541524E-09  1.45988054406344E-02
 cg2d: Sum(rhs),rhsMax =   1.25263595329717E-09  1.45986041702158E-02
 cg2d: Sum(rhs),rhsMax =   1.25270956108370E-09  1.45984030190432E-02
 cg2d: Sum(rhs),rhsMax =   1.25275369244893E-09  1.45982019574401E-02
 cg2d: Sum(rhs),rhsMax =   1.25281611473849E-09  1.45980009577491E-02
 cg2d: Sum(rhs),rhsMax =   1.25286390983970E-09  1.45977999905659E-02
 cg2d: Sum(rhs),rhsMax =   1.25292048958059E-09  1.45975990311717E-02
 cg2d: Sum(rhs),rhsMax =   1.25296061026514E-09  1.45973980549758E-02
 cg2d: Sum(rhs),rhsMax =   1.25302131170901E-09  1.45971970366589E-02
 cg2d: Sum(rhs),rhsMax =   1.25308867449103E-09  1.45969959544530E-02
 cg2d: Sum(rhs),rhsMax =   1.25314825183409E-09  1.45967947855832E-02
 cg2d: Sum(rhs),rhsMax =   1.25320114008343E-09  1.45965935100547E-02
 cg2d: Sum(rhs),rhsMax =   1.25327827282806E-09  1.45963921088421E-02
 cg2d: Sum(rhs),rhsMax =   1.25333769751546E-09  1.45961905639183E-02
 cg2d: Sum(rhs),rhsMax =   1.25339488787901E-09  1.45959888575026E-02
 cg2d: Sum(rhs),rhsMax =   1.25346347190636E-09  1.45957869755944E-02
 cg2d: Sum(rhs),rhsMax =   1.25352392355005E-09  1.45955849030953E-02
 cg2d: Sum(rhs),rhsMax =   1.25358524949437E-09  1.45953826295629E-02
 cg2d: Sum(rhs),rhsMax =   1.25363971981152E-09  1.45951801406286E-02
 cg2d: Sum(rhs),rhsMax =   1.25371009407349E-09  1.45949774281996E-02
 cg2d: Sum(rhs),rhsMax =   1.25376767301510E-09  1.45947744839135E-02
 cg2d: Sum(rhs),rhsMax =   1.25383041449378E-09  1.45945712988622E-02
 cg2d: Sum(rhs),rhsMax =   1.25388785465752E-09  1.45943678703559E-02
 cg2d: Sum(rhs),rhsMax =   1.25394784833421E-09  1.45941641916111E-02
 cg2d: Sum(rhs),rhsMax =   1.25400256845154E-09  1.45939602608295E-02
 cg2d: Sum(rhs),rhsMax =   1.25406261763938E-09  1.45937560767553E-02
 cg2d: Sum(rhs),rhsMax =   1.25413619767034E-09  1.45935516388375E-02
 cg2d: Sum(rhs),rhsMax =   1.25419806484839E-09  1.45933469486324E-02
 cg2d: Sum(rhs),rhsMax =   1.25426750929858E-09  1.45931420087451E-02
 cg2d: Sum(rhs),rhsMax =   1.25433055608859E-09  1.45929368237456E-02
 cg2d: Sum(rhs),rhsMax =   1.25438964770908E-09  1.45927313981403E-02
 cg2d: Sum(rhs),rhsMax =   1.25443982978979E-09  1.45925257396111E-02
 cg2d: Sum(rhs),rhsMax =   1.25452004340332E-09  1.45923198559259E-02
 cg2d: Sum(rhs),rhsMax =   1.25457842725663E-09  1.45921137567353E-02
 cg2d: Sum(rhs),rhsMax =   1.25462756850325E-09  1.45919074539027E-02
 cg2d: Sum(rhs),rhsMax =   1.25468040124144E-09  1.45917009572672E-02
 cg2d: Sum(rhs),rhsMax =   1.25474983181384E-09  1.45914942809474E-02
 cg2d: Sum(rhs),rhsMax =   1.25479650281424E-09  1.45912874406425E-02
 cg2d: Sum(rhs),rhsMax =   1.25485447033391E-09  1.45910804513441E-02
 cg2d: Sum(rhs),rhsMax =   1.25492147229345E-09  1.45908733301673E-02
 cg2d: Sum(rhs),rhsMax =   1.25497397196472E-09  1.45906660958348E-02
 cg2d: Sum(rhs),rhsMax =   1.25503192560661E-09  1.45904587666976E-02
 cg2d: Sum(rhs),rhsMax =   1.25508922699247E-09  1.45902513656600E-02
 cg2d: Sum(rhs),rhsMax =   1.25516801119385E-09  1.45900439125610E-02
 cg2d: Sum(rhs),rhsMax =   1.25521910920856E-09  1.45898364308684E-02
 cg2d: Sum(rhs),rhsMax =   1.25529789340995E-09  1.45896289427581E-02
 cg2d: Sum(rhs),rhsMax =   1.25533941575107E-09  1.45894214747362E-02
 cg2d: Sum(rhs),rhsMax =   1.25539628692550E-09  1.45892140495021E-02
 cg2d: Sum(rhs),rhsMax =   1.25543776763326E-09  1.45890066966981E-02
 cg2d: Sum(rhs),rhsMax =   1.25548710316892E-09  1.45887994403974E-02
 cg2d: Sum(rhs),rhsMax =   1.25556441632479E-09  1.45885923085194E-02
 cg2d: Sum(rhs),rhsMax =   1.25561273878194E-09  1.45883853297333E-02
 cg2d: Sum(rhs),rhsMax =   1.25567647946134E-09  1.45881785318291E-02
 cg2d: Sum(rhs),rhsMax =   1.25574549370011E-09  1.45879719446839E-02
 cg2d: Sum(rhs),rhsMax =   1.25580036647310E-09  1.45877655955491E-02
 cg2d: Sum(rhs),rhsMax =   1.25586145649503E-09  1.45875595150065E-02
 cg2d: Sum(rhs),rhsMax =   1.25591891053656E-09  1.45873537329460E-02
 cg2d: Sum(rhs),rhsMax =   1.25597657274490E-09  1.45871482754107E-02
 cg2d: Sum(rhs),rhsMax =   1.25603769052240E-09  1.45869431759980E-02
 cg2d: Sum(rhs),rhsMax =   1.25609975198948E-09  1.45867384599937E-02
 cg2d: Sum(rhs),rhsMax =   1.25615284840563E-09  1.45865341572824E-02
 cg2d: Sum(rhs),rhsMax =   1.25622340307885E-09  1.45863302946216E-02
 cg2d: Sum(rhs),rhsMax =   1.25627752645130E-09  1.45861269010632E-02
 cg2d: Sum(rhs),rhsMax =   1.25635779557598E-09  1.45859240021553E-02
 cg2d: Sum(rhs),rhsMax =   1.25641483328387E-09  1.45857216226401E-02
 cg2d: Sum(rhs),rhsMax =   1.25646373860810E-09  1.45855197876411E-02
 cg2d: Sum(rhs),rhsMax =   1.25653071281207E-09  1.45853185219385E-02
 cg2d: Sum(rhs),rhsMax =   1.25659094241115E-09  1.45851178462795E-02
 cg2d: Sum(rhs),rhsMax =   1.25665312877832E-09  1.45849177809559E-02
 cg2d: Sum(rhs),rhsMax =   1.25670754358431E-09  1.45847183471953E-02
 cg2d: Sum(rhs),rhsMax =   1.25676469231450E-09  1.45845195599045E-02
 cg2d: Sum(rhs),rhsMax =   1.25683577434366E-09  1.45843214375850E-02
 cg2d: Sum(rhs),rhsMax =   1.25689102181692E-09  1.45841239912891E-02
 cg2d: Sum(rhs),rhsMax =   1.25695702457573E-09  1.45839272344103E-02
 cg2d: Sum(rhs),rhsMax =   1.25701918318732E-09  1.45837311770392E-02
 cg2d: Sum(rhs),rhsMax =   1.25707515230555E-09  1.45835358264850E-02
 cg2d: Sum(rhs),rhsMax =   1.25713885135159E-09  1.45833411883989E-02
 cg2d: Sum(rhs),rhsMax =   1.25719269716829E-09  1.45831472644484E-02
 cg2d: Sum(rhs),rhsMax =   1.25726090649536E-09  1.45829540570510E-02
 cg2d: Sum(rhs),rhsMax =   1.25731113020944E-09  1.45827615633214E-02
 cg2d: Sum(rhs),rhsMax =   1.25736596134907E-09  1.45825697791491E-02
 cg2d: Sum(rhs),rhsMax =   1.25744059609190E-09  1.45823786968155E-02
 cg2d: Sum(rhs),rhsMax =   1.25749688439925E-09  1.45821883078317E-02
 cg2d: Sum(rhs),rhsMax =   1.25756439983693E-09  1.45819985991765E-02
 cg2d: Sum(rhs),rhsMax =   1.25761834279814E-09  1.45818095569025E-02
 cg2d: Sum(rhs),rhsMax =   1.25768455372377E-09  1.45816211610184E-02
 cg2d: Sum(rhs),rhsMax =   1.25775329040678E-09  1.45814333942151E-02
 cg2d: Sum(rhs),rhsMax =   1.25780214021987E-09  1.45812462321282E-02
 cg2d: Sum(rhs),rhsMax =   1.25787386062726E-09  1.45810596506449E-02
 cg2d: Sum(rhs),rhsMax =   1.25793701843957E-09  1.45808736196343E-02
 cg2d: Sum(rhs),rhsMax =   1.25800793393527E-09  1.45806881116921E-02
 cg2d: Sum(rhs),rhsMax =   1.25804826278664E-09  1.45805030931350E-02
 cg2d: Sum(rhs),rhsMax =   1.25811211448834E-09  1.45803185262383E-02
 cg2d: Sum(rhs),rhsMax =   1.25817020690810E-09  1.45801343777734E-02
 cg2d: Sum(rhs),rhsMax =   1.25824560492926E-09  1.45799506068628E-02
 cg2d: Sum(rhs),rhsMax =   1.25829836827851E-09  1.45797671717542E-02
 cg2d: Sum(rhs),rhsMax =   1.25836910336297E-09  1.45795840311967E-02
 cg2d: Sum(rhs),rhsMax =   1.25843963028061E-09  1.45794011374788E-02
 cg2d: Sum(rhs),rhsMax =   1.25848230447811E-09  1.45792184467205E-02
 cg2d: Sum(rhs),rhsMax =   1.25854229815481E-09  1.45790359100570E-02
 cg2d: Sum(rhs),rhsMax =   1.25860247224274E-09  1.45788534792040E-02
 cg2d: Sum(rhs),rhsMax =   1.25866207734138E-09  1.45786711046379E-02
 cg2d: Sum(rhs),rhsMax =   1.25871882361572E-09  1.45784887348784E-02
 cg2d: Sum(rhs),rhsMax =   1.25877253065454E-09  1.45783063199992E-02
 cg2d: Sum(rhs),rhsMax =   1.25883369006541E-09  1.45781238061262E-02
 cg2d: Sum(rhs),rhsMax =   1.25889934587953E-09  1.45779411436370E-02
 cg2d: Sum(rhs),rhsMax =   1.25895760483274E-09  1.45777582778652E-02
 cg2d: Sum(rhs),rhsMax =   1.25901182534971E-09  1.45775751596192E-02
 cg2d: Sum(rhs),rhsMax =   1.25907821668658E-09  1.45773917373776E-02
 cg2d: Sum(rhs),rhsMax =   1.25914874360422E-09  1.45772079575190E-02
 cg2d: Sum(rhs),rhsMax =   1.25920700255744E-09  1.45770237740490E-02
 cg2d: Sum(rhs),rhsMax =   1.25926953586930E-09  1.45768391384399E-02
 cg2d: Sum(rhs),rhsMax =   1.25933534433909E-09  1.45766540019811E-02
 cg2d: Sum(rhs),rhsMax =   1.25939836337352E-09  1.45764683198127E-02
 cg2d: Sum(rhs),rhsMax =   1.25946585105563E-09  1.45762820469354E-02
 cg2d: Sum(rhs),rhsMax =   1.25950989915413E-09  1.45760951415769E-02
 cg2d: Sum(rhs),rhsMax =   1.25957337615556E-09  1.45759075641945E-02
 cg2d: Sum(rhs),rhsMax =   1.25963270369844E-09  1.45757192756877E-02
 cg2d: Sum(rhs),rhsMax =   1.25969180919672E-09  1.45755302393249E-02
 cg2d: Sum(rhs),rhsMax =   1.25976780396275E-09  1.45753404220851E-02
 cg2d: Sum(rhs),rhsMax =   1.25982860255114E-09  1.45751497938459E-02
 cg2d: Sum(rhs),rhsMax =   1.25987803523131E-09  1.45749583265652E-02
 cg2d: Sum(rhs),rhsMax =   1.25993805666358E-09  1.45747659934590E-02
 cg2d: Sum(rhs),rhsMax =   1.25998897426705E-09  1.45745727736016E-02
 cg2d: Sum(rhs),rhsMax =   1.26003733835756E-09  1.45743786468699E-02
 cg2d: Sum(rhs),rhsMax =   1.26010085699235E-09  1.45741835974822E-02
 cg2d: Sum(rhs),rhsMax =   1.26016248824801E-09  1.45739876135946E-02
 cg2d: Sum(rhs),rhsMax =   1.26021706958745E-09  1.45737906837811E-02
 cg2d: Sum(rhs),rhsMax =   1.26028579239268E-09  1.45735928040231E-02
 cg2d: Sum(rhs),rhsMax =   1.26035566705429E-09  1.45733939698030E-02
 cg2d: Sum(rhs),rhsMax =   1.26041274639555E-09  1.45731941840379E-02
 cg2d: Sum(rhs),rhsMax =   1.26045843207301E-09  1.45729934481833E-02
 cg2d: Sum(rhs),rhsMax =   1.26052758508965E-09  1.45727917714754E-02
 cg2d: Sum(rhs),rhsMax =   1.26058428973064E-09  1.45725891641124E-02
 cg2d: Sum(rhs),rhsMax =   1.26063987027081E-09  1.45723856404914E-02
 cg2d: Sum(rhs),rhsMax =   1.26071615647039E-09  1.45721812174320E-02
 cg2d: Sum(rhs),rhsMax =   1.26079295614812E-09  1.45719759160154E-02
 cg2d: Sum(rhs),rhsMax =   1.26084698237605E-09  1.45717697587993E-02
 cg2d: Sum(rhs),rhsMax =   1.26091966035080E-09  1.45715627746332E-02
(PID.TID 0000.0001)      cg2d_init_res =   5.16299845892971E-05
(PID.TID 0000.0001)      cg2d_iters(min,last) =      -1      38
(PID.TID 0000.0001)      cg2d_last_res =   5.05230723848255E-14
(PID.TID 0000.0001) // =======================================================
(PID.TID 0000.0001) // Begin MONITOR dynamic field statistics
(PID.TID 0000.0001) // =======================================================
(PID.TID 0000.0001) %MON time_tsnumber                =                 26784
(PID.TID 0000.0001) %MON time_secondsf                =   6.6960000000000E+05
(PID.TID 0000.0001) %MON dynstat_eta_max              =   4.7658750031329E-03
(PID.TID 0000.0001) %MON dynstat_eta_min              =  -2.3747794798285E-03
(PID.TID 0000.0001) %MON dynstat_eta_mean             =  -1.2304199182411E-13
(PID.TID 0000.0001) %MON dynstat_eta_sd               =   2.4025728078572E-03
(PID.TID 0000.0001) %MON dynstat_eta_del2             =   1.9466164125433E-05
(PID.TID 0000.0001) %MON dynstat_uvel_max             =   4.3994057104065E-02
(PID.TID 0000.0001) %MON dynstat_uvel_min             =  -4.5004850432290E-02
(PID.TID 0000.0001) %MON dynstat_uvel_mean            =   5.0225686086401E-09
(PID.TID 0000.0001) %MON dynstat_uvel_sd              =   6.6559923599502E-03
(PID.TID 0000.0001) %MON dynstat_uvel_del2            =   1.0136098743759E-04
(PID.TID 0000.0001) %MON dynstat_vvel_max             =   2.3554584827685E-02
(PID.TID 0000.0001) %MON dynstat_vvel_min             =  -3.4754720440590E-02
(PID.TID 0000.0001) %MON dynstat_vvel_mean            =  -8.0919745925799E-03
(PID.TID 0000.0001) %MON dynstat_vvel_sd              =   1.1588748080402E-02
(PID.TID 0000.0001) %MON dynstat_vvel_del2            =   9.1156067172773E-05
(PID.TID 0000.0001) %MON dynstat_wvel_max             =   1.3684739024574E-03
(PID.TID 0000.0001) %MON dynstat_wvel_min             =  -1.1367527485793E-03
(PID.TID 0000.0001) %MON dynstat_wvel_mean            =  -1.4749312944602E-21
(PID.TID 0000.0001) %MON dynstat_wvel_sd              =   1.2590821382335E-04
(PID.TID 0000.0001) %MON dynstat_wvel_del2            =   6.4359051790081E-06
(PID.TID 0000.0001) %MON dynstat_theta_max            =   2.6931451612903E+00
(PID.TID 0000.0001) %MON dynstat_theta_min            =  -7.2871732324477E-01
(PID.TID 0000.0001) %MON dynstat_theta_mean           =   2.2195834142754E+00
(PID.TID 0000.0001) %MON dynstat_theta_sd             =   5.3197269456744E-01
(PID.TID 0000.0001) %MON dynstat_theta_del2           =   1.6658284541968E-03
(PID.TID 0000.0001) %MON dynstat_salt_max             =   3.4699999999999E+01
(PID.TID 0000.0001) %MON dynstat_salt_min             =   3.3051324133494E+01
(PID.TID 0000.0001) %MON dynstat_salt_mean            =   3.4363988256380E+01
(PID.TID 0000.0001) %MON dynstat_salt_sd              =   3.2228814858023E-01
(PID.TID 0000.0001) %MON dynstat_salt_del2            =   1.9155983667488E-04
(PID.TID 0000.0001) %MON advcfl_uvel_max              =   2.2502425216145E-03
(PID.TID 0000.0001) %MON advcfl_vvel_max              =   1.7377360220295E-03
(PID.TID 0000.0001) %MON advcfl_wvel_max              =   6.6088277418275E-04
(PID.TID 0000.0001) %MON advcfl_W_hf_max              =   1.4094506986968E-03
(PID.TID 0000.0001) %MON pe_b_mean                    =   4.8161254104597E-08
(PID.TID 0000.0001) %MON ke_max                       =   9.9008183203755E-04
(PID.TID 0000.0001) %MON ke_mean                      =   1.1207705839248E-04
(PID.TID 0000.0001) %MON ke_vol                       =   3.2921708585402E+10
(PID.TID 0000.0001) // =======================================================
(PID.TID 0000.0001) // End MONITOR dynamic field statistics
(PID.TID 0000.0001) // =======================================================
(PID.TID 0000.0001) // =======================================================
(PID.TID 0000.0001) // Begin OBCS MONITOR field statistics
(PID.TID 0000.0001) // =======================================================
(PID.TID 0000.0001) %MON obc_E_uVel_max               =   0.0000000000000E+00
(PID.TID 0000.0001) %MON obc_E_uVel_min               =   0.0000000000000E+00
(PID.TID 0000.0001) %MON obc_E_uVel_mean              =   0.0000000000000E+00
(PID.TID 0000.0001) %MON obc_E_uVel_sd                =   0.0000000000000E+00
(PID.TID 0000.0001) %MON obc_E_uVel_Int               =   0.0000000000000E+00
(PID.TID 0000.0001) %MON obc_N_vVel_max               =  -3.6115799844846E-05
(PID.TID 0000.0001) %MON obc_N_vVel_min               =  -3.0000000000000E-02
(PID.TID 0000.0001) %MON obc_N_vVel_mean              =  -1.3225455303334E-02
(PID.TID 0000.0001) %MON obc_N_vVel_sd                =   1.1350864292742E-02
(PID.TID 0000.0001) %MON obc_N_vVel_Int               =  -5.9514548865004E+04
(PID.TID 0000.0001) %MON obc_S_vVel_max               =  -3.6115799844846E-05
(PID.TID 0000.0001) %MON obc_S_vVel_min               =  -3.0000000000000E-02
(PID.TID 0000.0001) %MON obc_S_vVel_mean              =  -1.3225455303334E-02
(PID.TID 0000.0001) %MON obc_S_vVel_sd                =   1.1350864292742E-02
(PID.TID 0000.0001) %MON obc_S_vVel_Int               =  -5.9514548865004E+04
(PID.TID 0000.0001) // =======================================================
(PID.TID 0000.0001) // End OBCS MONITOR field statistics
(PID.TID 0000.0001) // =======================================================
 Computing Diagnostic #    26 "THETA   " (list#  1) Parms "SMR     MR      ", Count=     144
 Computing Diagnostic #    27 "SALT    " (list#  1) Parms "SMR     MR      ", Count=     144
 Computing Diagnostic #    30 "UVEL    " (list#  1) Parms "UUR     MR      ", Count=     144
             Vector  Mate for "UVEL    " :  Diagnostic #     31 "VVEL    " exists
 Computing Diagnostic #    32 "WVEL    " (list#  1) Parms "WM      LR      ", Count=     144
 Computing Diagnostic #    31 "VVEL    " (list#  1) Parms "VVR     MR      ", Count=     144
             Vector  Mate for "VVEL    " :  Diagnostic #     30 "UVEL    " exists
 Computing Diagnostic #   197 "BRGfwFlx" (list#  2) Parms "SM      MR      ", Count=     144
 Computing Diagnostic #   198 "BRGhtFlx" (list#  2) Parms "SM      MR      ", Count=     144
 Computing Diagnostic #   199 "BRGmltRt" (list#  2) Parms "SM      MR      ", Count=     144
 Computing Diagnostic #   201 "BRG_TauX" (list#  2) Parms "UU      MR      ", Count=    1728
 Computing Diagnostic #   202 "BRG_TauY" (list#  2) Parms "VV      MR      ", Count=    1728
 Computing Diagnostic #   203 "BRGhFacC" (list#  2) Parms "SM      MR      ", Count=    1728
 cg2d: Sum(rhs),rhsMax =   1.26098792518903E-09  1.45713549911645E-02
 cg2d: Sum(rhs),rhsMax =   1.26104189590581E-09  1.45711464395247E-02
 cg2d: Sum(rhs),rhsMax =   1.26109966913646E-09  1.45709371565403E-02
 cg2d: Sum(rhs),rhsMax =   1.26116830867495E-09  1.45707271783482E-02
 cg2d: Sum(rhs),rhsMax =   1.26122087773517E-09  1.45705165425960E-02
 cg2d: Sum(rhs),rhsMax =   1.26127923383290E-09  1.45703052911727E-02
 cg2d: Sum(rhs),rhsMax =   1.26135016320639E-09  1.45700934663677E-02
 cg2d: Sum(rhs),rhsMax =   1.26141511125333E-09  1.45698811099577E-02
 cg2d: Sum(rhs),rhsMax =   1.26148601287124E-09  1.45696682701815E-02
 cg2d: Sum(rhs),rhsMax =   1.26153965052112E-09  1.45694549924659E-02
 cg2d: Sum(rhs),rhsMax =   1.26159321878205E-09  1.45692413240422E-02
 cg2d: Sum(rhs),rhsMax =   1.26163846037031E-09  1.45690273120785E-02
 cg2d: Sum(rhs),rhsMax =   1.26169873160276E-09  1.45688130081772E-02
 cg2d: Sum(rhs),rhsMax =   1.26177220061141E-09  1.45685984579552E-02
 cg2d: Sum(rhs),rhsMax =   1.26184526716422E-09  1.45683837121182E-02
 cg2d: Sum(rhs),rhsMax =   1.26191289362421E-09  1.45681688183754E-02
 cg2d: Sum(rhs),rhsMax =   1.26196687821878E-09  1.45679538258815E-02
 cg2d: Sum(rhs),rhsMax =   1.26202948091958E-09  1.45677387809397E-02
 cg2d: Sum(rhs),rhsMax =   1.26208146711271E-09  1.45675237304245E-02
 cg2d: Sum(rhs),rhsMax =   1.26215218831938E-09  1.45673087181317E-02
 cg2d: Sum(rhs),rhsMax =   1.26221337548582E-09  1.45670937899813E-02
 cg2d: Sum(rhs),rhsMax =   1.26227629737574E-09  1.45668789845688E-02
 cg2d: Sum(rhs),rhsMax =   1.26235190356372E-09  1.45666643421984E-02
 cg2d: Sum(rhs),rhsMax =   1.26241729569987E-09  1.45664499006108E-02
 cg2d: Sum(rhs),rhsMax =   1.26248209109114E-09  1.45662356973408E-02
 cg2d: Sum(rhs),rhsMax =   1.26254749710508E-09  1.45660217643041E-02
 cg2d: Sum(rhs),rhsMax =   1.26260799038214E-09  1.45658081310966E-02
 cg2d: Sum(rhs),rhsMax =   1.26267900302235E-09  1.45655948254482E-02
 cg2d: Sum(rhs),rhsMax =   1.26273506928509E-09  1.45653818686749E-02
 cg2d: Sum(rhs),rhsMax =   1.26279466050594E-09  1.45651692851062E-02
 cg2d: Sum(rhs),rhsMax =   1.26286045509794E-09  1.45649570905000E-02
 cg2d: Sum(rhs),rhsMax =   1.26293346613959E-09  1.45647452989209E-02
 cg2d: Sum(rhs),rhsMax =   1.26299874725344E-09  1.45645339217510E-02
 cg2d: Sum(rhs),rhsMax =   1.26306912151541E-09  1.45643229657966E-02
 cg2d: Sum(rhs),rhsMax =   1.26312466042222E-09  1.45641124357334E-02
 cg2d: Sum(rhs),rhsMax =   1.26318118465196E-09  1.45639023305090E-02
 cg2d: Sum(rhs),rhsMax =   1.26324165017344E-09  1.45636926480639E-02
 cg2d: Sum(rhs),rhsMax =   1.26330153282783E-09  1.45634833803464E-02
 cg2d: Sum(rhs),rhsMax =   1.26336227590507E-09  1.45632745157402E-02
 cg2d: Sum(rhs),rhsMax =   1.26342032669147E-09  1.45630660424862E-02
 cg2d: Sum(rhs),rhsMax =   1.26349238016576E-09  1.45628579408453E-02
 cg2d: Sum(rhs),rhsMax =   1.26354894602887E-09  1.45626501906167E-02
 cg2d: Sum(rhs),rhsMax =   1.26360991115071E-09  1.45624427668174E-02
 cg2d: Sum(rhs),rhsMax =   1.26368125685783E-09  1.45622356418960E-02
 cg2d: Sum(rhs),rhsMax =   1.26372977360401E-09  1.45620287851321E-02
 cg2d: Sum(rhs),rhsMax =   1.26380486631383E-09  1.45618221639440E-02
 cg2d: Sum(rhs),rhsMax =   1.26386763554809E-09  1.45616157374020E-02
 cg2d: Sum(rhs),rhsMax =   1.26394485155945E-09  1.45614094670799E-02
 cg2d: Sum(rhs),rhsMax =   1.26399968269908E-09  1.45612033117249E-02
 cg2d: Sum(rhs),rhsMax =   1.26405573508404E-09  1.45609972293130E-02
 cg2d: Sum(rhs),rhsMax =   1.26411123235748E-09  1.45607911733114E-02
 cg2d: Sum(rhs),rhsMax =   1.26416581369693E-09  1.45605850972356E-02
 cg2d: Sum(rhs),rhsMax =   1.26421220714157E-09  1.45603789548325E-02
 cg2d: Sum(rhs),rhsMax =   1.26427601720991E-09  1.45601726962113E-02
 cg2d: Sum(rhs),rhsMax =   1.26433551128624E-09  1.45599662721370E-02
 cg2d: Sum(rhs),rhsMax =   1.26439385350618E-09  1.45597596322679E-02
 cg2d: Sum(rhs),rhsMax =   1.26445917625340E-09  1.45595527286848E-02
 cg2d: Sum(rhs),rhsMax =   1.26452141813171E-09  1.45593455105068E-02
 cg2d: Sum(rhs),rhsMax =   1.26458452043288E-09  1.45591379312788E-02
 cg2d: Sum(rhs),rhsMax =   1.26464731742271E-09  1.45589299408852E-02
 cg2d: Sum(rhs),rhsMax =   1.26469931749362E-09  1.45587214917516E-02
 cg2d: Sum(rhs),rhsMax =   1.26475536987858E-09  1.45585125384603E-02
 cg2d: Sum(rhs),rhsMax =   1.26482431472841E-09  1.45583030381788E-02
 cg2d: Sum(rhs),rhsMax =   1.26489085872095E-09  1.45580929474868E-02
 cg2d: Sum(rhs),rhsMax =   1.26494574537173E-09  1.45578822262492E-02
 cg2d: Sum(rhs),rhsMax =   1.26501291386472E-09  1.45576708381383E-02
 cg2d: Sum(rhs),rhsMax =   1.26507593289915E-09  1.45574587463970E-02
 cg2d: Sum(rhs),rhsMax =   1.26513402531891E-09  1.45572459213331E-02
 cg2d: Sum(rhs),rhsMax =   1.26518562293398E-09  1.45570323334906E-02
 cg2d: Sum(rhs),rhsMax =   1.26524873911293E-09  1.45568179574457E-02
 cg2d: Sum(rhs),rhsMax =   1.26531843336330E-09  1.45566027698842E-02
 cg2d: Sum(rhs),rhsMax =   1.26538385325503E-09  1.45563867539048E-02
 cg2d: Sum(rhs),rhsMax =   1.26544945355800E-09  1.45561698964094E-02
 cg2d: Sum(rhs),rhsMax =   1.26551406853803E-09  1.45559521859631E-02
 cg2d: Sum(rhs),rhsMax =   1.26557139767947E-09  1.45557336158229E-02
 cg2d: Sum(rhs),rhsMax =   1.26563032276650E-09  1.45555141831493E-02
 cg2d: Sum(rhs),rhsMax =   1.26569486835759E-09  1.45552938934231E-02
 cg2d: Sum(rhs),rhsMax =   1.26576228665076E-09  1.45550727505024E-02
 cg2d: Sum(rhs),rhsMax =   1.26583041271111E-09  1.45548507640991E-02
 cg2d: Sum(rhs),rhsMax =   1.26587809679002E-09  1.45546279530915E-02
 cg2d: Sum(rhs),rhsMax =   1.26594851268536E-09  1.45544043312336E-02
 cg2d: Sum(rhs),rhsMax =   1.26600541161537E-09  1.45541799246891E-02
 cg2d: Sum(rhs),rhsMax =   1.26607546668822E-09  1.45539547598026E-02
 cg2d: Sum(rhs),rhsMax =   1.26614121964685E-09  1.45537288670112E-02
 cg2d: Sum(rhs),rhsMax =   1.26619983942255E-09  1.45535022829576E-02
 cg2d: Sum(rhs),rhsMax =   1.26626020779952E-09  1.45532750455468E-02
 cg2d: Sum(rhs),rhsMax =   1.26632894448253E-09  1.45530471959792E-02
 cg2d: Sum(rhs),rhsMax =   1.26640690989444E-09  1.45528187824013E-02
 cg2d: Sum(rhs),rhsMax =   1.26646683418219E-09  1.45525898509667E-02
 cg2d: Sum(rhs),rhsMax =   1.26653111609532E-09  1.45523604557187E-02
 cg2d: Sum(rhs),rhsMax =   1.26660040788984E-09  1.45521306503513E-02
 cg2d: Sum(rhs),rhsMax =   1.26667037969597E-09  1.45519004924422E-02
 cg2d: Sum(rhs),rhsMax =   1.26673728451099E-09  1.45516700419414E-02
 cg2d: Sum(rhs),rhsMax =   1.26680023415648E-09  1.45514393578898E-02
 cg2d: Sum(rhs),rhsMax =   1.26686973411783E-09  1.45512085062972E-02
 cg2d: Sum(rhs),rhsMax =   1.26692610569190E-09  1.45509775485970E-02
 cg2d: Sum(rhs),rhsMax =   1.26699457869694E-09  1.45507465512974E-02
 cg2d: Sum(rhs),rhsMax =   1.26705479441824E-09  1.45505155809870E-02
 cg2d: Sum(rhs),rhsMax =   1.26713338433060E-09  1.45502847023776E-02
 cg2d: Sum(rhs),rhsMax =   1.26719115756124E-09  1.45500539822947E-02
 cg2d: Sum(rhs),rhsMax =   1.26726119875631E-09  1.45498234862944E-02
 cg2d: Sum(rhs),rhsMax =   1.26732460636880E-09  1.45495932803489E-02
 cg2d: Sum(rhs),rhsMax =   1.26738111672076E-09  1.45493634282385E-02
 cg2d: Sum(rhs),rhsMax =   1.26744710560178E-09  1.45491339935307E-02
 cg2d: Sum(rhs),rhsMax =   1.26751394102786E-09  1.45489050357899E-02
 cg2d: Sum(rhs),rhsMax =   1.26758453733444E-09  1.45486766163853E-02
 cg2d: Sum(rhs),rhsMax =   1.26765002661511E-09  1.45484487905679E-02
 cg2d: Sum(rhs),rhsMax =   1.26770444142110E-09  1.45482216132510E-02
 cg2d: Sum(rhs),rhsMax =   1.26776573960985E-09  1.45479951355043E-02
 cg2d: Sum(rhs),rhsMax =   1.26781075915350E-09  1.45477694072349E-02
 cg2d: Sum(rhs),rhsMax =   1.26786948995150E-09  1.45475444720001E-02
 cg2d: Sum(rhs),rhsMax =   1.26793260613045E-09  1.45473203710032E-02
 cg2d: Sum(rhs),rhsMax =   1.26800546451644E-09  1.45470971435405E-02
 cg2d: Sum(rhs),rhsMax =   1.26807729594614E-09  1.45468748215099E-02
 cg2d: Sum(rhs),rhsMax =   1.26813183565222E-09  1.45466534333173E-02
 cg2d: Sum(rhs),rhsMax =   1.26819552082047E-09  1.45464330043740E-02
 cg2d: Sum(rhs),rhsMax =   1.26825241975048E-09  1.45462135554855E-02
 cg2d: Sum(rhs),rhsMax =   1.26831067870370E-09  1.45459951018468E-02
 cg2d: Sum(rhs),rhsMax =   1.26836419145349E-09  1.45457776551462E-02
 cg2d: Sum(rhs),rhsMax =   1.26842769621049E-09  1.45455612202185E-02
 cg2d: Sum(rhs),rhsMax =   1.26850115134136E-09  1.45453457960866E-02
 cg2d: Sum(rhs),rhsMax =   1.26857692406279E-09  1.45451313822416E-02
 cg2d: Sum(rhs),rhsMax =   1.26864727056919E-09  1.45449179688341E-02
 cg2d: Sum(rhs),rhsMax =   1.26871148309338E-09  1.45447055425805E-02
 cg2d: Sum(rhs),rhsMax =   1.26879187711815E-09  1.45444940857366E-02
 cg2d: Sum(rhs),rhsMax =   1.26887128581998E-09  1.45442835729178E-02
 cg2d: Sum(rhs),rhsMax =   1.26894629526308E-09  1.45440739793420E-02
 cg2d: Sum(rhs),rhsMax =   1.26899579733220E-09  1.45438652718877E-02
 cg2d: Sum(rhs),rhsMax =   1.26905481956374E-09  1.45436574134388E-02
 cg2d: Sum(rhs),rhsMax =   1.26911614550806E-09  1.45434503645026E-02
 cg2d: Sum(rhs),rhsMax =   1.26919336151943E-09  1.45432440819313E-02
 cg2d: Sum(rhs),rhsMax =   1.26926374965919E-09  1.45430385154017E-02
 cg2d: Sum(rhs),rhsMax =   1.26932514499245E-09  1.45428336139731E-02
 cg2d: Sum(rhs),rhsMax =   1.26937739486355E-09  1.45426293241145E-02
 cg2d: Sum(rhs),rhsMax =   1.26944707523613E-09  1.45424255878992E-02
 cg2d: Sum(rhs),rhsMax =   1.26951563150790E-09  1.45422223437225E-02
 cg2d: Sum(rhs),rhsMax =   1.26956739565642E-09  1.45420195297619E-02
 cg2d: Sum(rhs),rhsMax =   1.26963725644025E-09  1.45418170830252E-02
 cg2d: Sum(rhs),rhsMax =   1.26970753355771E-09  1.45416149347040E-02
 cg2d: Sum(rhs),rhsMax =   1.26976885950203E-09  1.45414130179924E-02
 cg2d: Sum(rhs),rhsMax =   1.26983880355258E-09  1.45412112646537E-02
 cg2d: Sum(rhs),rhsMax =   1.26990852555853E-09  1.45410096041082E-02
 cg2d: Sum(rhs),rhsMax =   1.26995521043671E-09  1.45408079681195E-02
 cg2d: Sum(rhs),rhsMax =   1.27001925642745E-09  1.45406062853694E-02
 Computing Diagnostic #    26 "THETA   " (list#  1) Parms "SMR     MR      ", Count=     144
 Computing Diagnostic #    27 "SALT    " (list#  1) Parms "SMR     MR      ", Count=     144
 Computing Diagnostic #    30 "UVEL    " (list#  1) Parms "UUR     MR      ", Count=     144
             Vector  Mate for "UVEL    " :  Diagnostic #     31 "VVEL    " exists
 Computing Diagnostic #    32 "WVEL    " (list#  1) Parms "WM      LR      ", Count=     144
 Computing Diagnostic #    31 "VVEL    " (list#  1) Parms "VVR     MR      ", Count=     144
             Vector  Mate for "VVEL    " :  Diagnostic #     30 "UVEL    " exists
 Computing Diagnostic #   197 "BRGfwFlx" (list#  2) Parms "SM      MR      ", Count=     144
 Computing Diagnostic #   198 "BRGhtFlx" (list#  2) Parms "SM      MR      ", Count=     144
 Computing Diagnostic #   199 "BRGmltRt" (list#  2) Parms "SM      MR      ", Count=     144
 Computing Diagnostic #   201 "BRG_TauX" (list#  2) Parms "UU      MR      ", Count=    1728
 Computing Diagnostic #   202 "BRG_TauY" (list#  2) Parms "VV      MR      ", Count=    1728
 Computing Diagnostic #   203 "BRGhFacC" (list#  2) Parms "SM      MR      ", Count=    1728
 cg2d: Sum(rhs),rhsMax =   1.27008545347529E-09  1.45404044881993E-02
 cg2d: Sum(rhs),rhsMax =   1.27014385120638E-09  1.45402025060718E-02
 cg2d: Sum(rhs),rhsMax =   1.27019515738791E-09  1.45400002727245E-02
 cg2d: Sum(rhs),rhsMax =   1.27025923113422E-09  1.45397977196560E-02
 cg2d: Sum(rhs),rhsMax =   1.27033293606527E-09  1.45395947843349E-02
 cg2d: Sum(rhs),rhsMax =   1.27038510266964E-09  1.45393914039270E-02
 cg2d: Sum(rhs),rhsMax =   1.27044871844895E-09  1.45391875177232E-02
 cg2d: Sum(rhs),rhsMax =   1.27051520693033E-09  1.45389830673530E-02
 cg2d: Sum(rhs),rhsMax =   1.27056767884604E-09  1.45387779991486E-02
 cg2d: Sum(rhs),rhsMax =   1.27062609045492E-09  1.45385722607882E-02
 cg2d: Sum(rhs),rhsMax =   1.27069646471689E-09  1.45383658046153E-02
 cg2d: Sum(rhs),rhsMax =   1.27074528677440E-09  1.45381585852016E-02
 cg2d: Sum(rhs),rhsMax =   1.27080050649209E-09  1.45379505624852E-02
 cg2d: Sum(rhs),rhsMax =   1.27085671153271E-09  1.45377417003437E-02
 cg2d: Sum(rhs),rhsMax =   1.27091519253053E-09  1.45375319652082E-02
 cg2d: Sum(rhs),rhsMax =   1.27097261881648E-09  1.45373213285327E-02
 cg2d: Sum(rhs),rhsMax =   1.27103189084821E-09  1.45371097680463E-02
 cg2d: Sum(rhs),rhsMax =   1.27109693603966E-09  1.45368972644750E-02
 cg2d: Sum(rhs),rhsMax =   1.27116946135875E-09  1.45366838025915E-02
 cg2d: Sum(rhs),rhsMax =   1.27123173099264E-09  1.45364693735031E-02
 cg2d: Sum(rhs),rhsMax =   1.27129687332861E-09  1.45362539736186E-02
 cg2d: Sum(rhs),rhsMax =   1.27135639516052E-09  1.45360375992078E-02
 cg2d: Sum(rhs),rhsMax =   1.27142807393454E-09  1.45358202567790E-02
 cg2d: Sum(rhs),rhsMax =   1.27149100970225E-09  1.45356019581947E-02
 cg2d: Sum(rhs),rhsMax =   1.27156429829967E-09  1.45353827133886E-02
 cg2d: Sum(rhs),rhsMax =   1.27163220231541E-09  1.45351625429908E-02
 cg2d: Sum(rhs),rhsMax =   1.27169767771829E-09  1.45349414694814E-02
 cg2d: Sum(rhs),rhsMax =   1.27175568687132E-09  1.45347195213571E-02
 cg2d: Sum(rhs),rhsMax =   1.27181626341510E-09  1.45344967293686E-02
 cg2d: Sum(rhs),rhsMax =   1.27187158027731E-09  1.45342731300479E-02
 cg2d: Sum(rhs),rhsMax =   1.27192918697450E-09  1.45340487610395E-02
 cg2d: Sum(rhs),rhsMax =   1.27199480115525E-09  1.45338236667692E-02
 cg2d: Sum(rhs),rhsMax =   1.27205186661872E-09  1.45335978933297E-02
 cg2d: Sum(rhs),rhsMax =   1.27211306766295E-09  1.45333714926257E-02
 cg2d: Sum(rhs),rhsMax =   1.27217154866077E-09  1.45331445157211E-02
 cg2d: Sum(rhs),rhsMax =   1.27222467283250E-09  1.45329170182042E-02
 cg2d: Sum(rhs),rhsMax =   1.27227714474820E-09  1.45326890590760E-02
 cg2d: Sum(rhs),rhsMax =   1.27233279467731E-09  1.45324606985546E-02
 cg2d: Sum(rhs),rhsMax =   1.27238627967152E-09  1.45322319979617E-02
 cg2d: Sum(rhs),rhsMax =   1.27245250447494E-09  1.45320030224544E-02
 cg2d: Sum(rhs),rhsMax =   1.27251120751737E-09  1.45317738353702E-02
 cg2d: Sum(rhs),rhsMax =   1.27257245019496E-09  1.45315445059256E-02
 cg2d: Sum(rhs),rhsMax =   1.27262922422489E-09  1.45313150971722E-02
 cg2d: Sum(rhs),rhsMax =   1.27268730276686E-09  1.45310856801775E-02
 cg2d: Sum(rhs),rhsMax =   1.27275029404572E-09  1.45308563206562E-02
 cg2d: Sum(rhs),rhsMax =   1.27280107287131E-09  1.45306274278104E-02
 cg2d: Sum(rhs),rhsMax =   1.27286392537229E-09  1.45303990955910E-02
 cg2d: Sum(rhs),rhsMax =   1.27291825691156E-09  1.45301718113258E-02
 cg2d: Sum(rhs),rhsMax =   1.27297329621801E-09  1.45299459525903E-02
 cg2d: Sum(rhs),rhsMax =   1.27303076413732E-09  1.45297218042854E-02
 cg2d: Sum(rhs),rhsMax =   1.27310431641270E-09  1.45294996729781E-02
 cg2d: Sum(rhs),rhsMax =   1.27316707176917E-09  1.45292798592024E-02
 cg2d: Sum(rhs),rhsMax =   1.27322716259037E-09  1.45290626385855E-02
 cg2d: Sum(rhs),rhsMax =   1.27327597077009E-09  1.45288482612501E-02
 cg2d: Sum(rhs),rhsMax =   1.27333658894724E-09  1.45286369514803E-02
 cg2d: Sum(rhs),rhsMax =   1.27340302191747E-09  1.45284289036978E-02
 cg2d: Sum(rhs),rhsMax =   1.27348699641150E-09  1.45282242833749E-02
 cg2d: Sum(rhs),rhsMax =   1.27352869916386E-09  1.45280232211573E-02
 cg2d: Sum(rhs),rhsMax =   1.27360329227333E-09  1.45278258156151E-02
 cg2d: Sum(rhs),rhsMax =   1.27365788749056E-09  1.45276321303029E-02
 cg2d: Sum(rhs),rhsMax =   1.27372493108346E-09  1.45274436258507E-02
 cg2d: Sum(rhs),rhsMax =   1.27377673686535E-09  1.45272588964900E-02
 cg2d: Sum(rhs),rhsMax =   1.27384486292570E-09  1.45270778098536E-02
 cg2d: Sum(rhs),rhsMax =   1.27390695214835E-09  1.45269002898979E-02
 cg2d: Sum(rhs),rhsMax =   1.27395641258410E-09  1.45267262019642E-02
 cg2d: Sum(rhs),rhsMax =   1.27401757199497E-09  1.45265420726952E-02
 cg2d: Sum(rhs),rhsMax =   1.27407590033712E-09  1.45263611281174E-02
 cg2d: Sum(rhs),rhsMax =   1.27413884998262E-09  1.45261832469092E-02
 cg2d: Sum(rhs),rhsMax =   1.27420618500906E-09  1.45260081224014E-02
 cg2d: Sum(rhs),rhsMax =   1.27426487417370E-09  1.45258355149750E-02
 cg2d: Sum(rhs),rhsMax =   1.27431698526692E-09  1.45256651328125E-02
 cg2d: Sum(rhs),rhsMax =   1.27437697894361E-09  1.45254966504609E-02
 cg2d: Sum(rhs),rhsMax =   1.27444280129119E-09  1.45253297146081E-02
 cg2d: Sum(rhs),rhsMax =   1.27451323106431E-09  1.45251639513308E-02
 cg2d: Sum(rhs),rhsMax =   1.27457178145107E-09  1.45249989617265E-02
 cg2d: Sum(rhs),rhsMax =   1.27461954879671E-09  1.45248343275586E-02
 cg2d: Sum(rhs),rhsMax =   1.27467456034758E-09  1.45246696146797E-02
 cg2d: Sum(rhs),rhsMax =   1.27472647715177E-09  1.45245043771536E-02
 cg2d: Sum(rhs),rhsMax =   1.27478887168575E-09  1.45243381556686E-02
 cg2d: Sum(rhs),rhsMax =   1.27485282053197E-09  1.45241704872311E-02
 cg2d: Sum(rhs),rhsMax =   1.27491663060031E-09  1.45240009024400E-02
 cg2d: Sum(rhs),rhsMax =   1.27497208624039E-09  1.45238289333363E-02
 cg2d: Sum(rhs),rhsMax =   1.27503084479397E-09  1.45236541163958E-02
 cg2d: Sum(rhs),rhsMax =   1.27508205383098E-09  1.45234759944581E-02
 cg2d: Sum(rhs),rhsMax =   1.27513415104641E-09  1.45232941162276E-02
 cg2d: Sum(rhs),rhsMax =   1.27520727311037E-09  1.45231080530961E-02
 cg2d: Sum(rhs),rhsMax =   1.27526528226340E-09  1.45229173877867E-02
 cg2d: Sum(rhs),rhsMax =   1.27532738536384E-09  1.45227217253589E-02
 cg2d: Sum(rhs),rhsMax =   1.27540265848491E-09  1.45225206938522E-02
 cg2d: Sum(rhs),rhsMax =   1.27546953554436E-09  1.45223139469172E-02
 cg2d: Sum(rhs),rhsMax =   1.27553011208814E-09  1.45221011712825E-02
 cg2d: Sum(rhs),rhsMax =   1.27559472706817E-09  1.45218820829282E-02
 cg2d: Sum(rhs),rhsMax =   1.27566145147195E-09  1.45216564344340E-02
 cg2d: Sum(rhs),rhsMax =   1.27572022390332E-09  1.45214240149482E-02
 cg2d: Sum(rhs),rhsMax =   1.27578615727320E-09  1.45211846530328E-02
 cg2d: Sum(rhs),rhsMax =   1.27583989206759E-09  1.45209382177343E-02
 cg2d: Sum(rhs),rhsMax =   1.27590846221715E-09  1.45206846228667E-02
 cg2d: Sum(rhs),rhsMax =   1.27596692933718E-09  1.45204238226747E-02
 cg2d: Sum(rhs),rhsMax =   1.27602295396656E-09  1.45201558209183E-02
 cg2d: Sum(rhs),rhsMax =   1.27608358602149E-09  1.45198806648416E-02
 cg2d: Sum(rhs),rhsMax =   1.27617566514360E-09  1.45195984460586E-02
 cg2d: Sum(rhs),rhsMax =   1.27624455448228E-09  1.45193093071129E-02
 cg2d: Sum(rhs),rhsMax =   1.27629826152109E-09  1.45190134347653E-02
 cg2d: Sum(rhs),rhsMax =   1.27637959923543E-09  1.45187110625668E-02
 cg2d: Sum(rhs),rhsMax =   1.27644600445009E-09  1.45184024690672E-02
 cg2d: Sum(rhs),rhsMax =   1.27652416415103E-09  1.45180879744887E-02
 cg2d: Sum(rhs),rhsMax =   1.27661195503670E-09  1.45177679443273E-02
 cg2d: Sum(rhs),rhsMax =   1.27669233518368E-09  1.45174427870113E-02
 cg2d: Sum(rhs),rhsMax =   1.27675701955265E-09  1.45171129471075E-02
 cg2d: Sum(rhs),rhsMax =   1.27682794892614E-09  1.45167789081236E-02
 cg2d: Sum(rhs),rhsMax =   1.27689224471705E-09  1.45164411883320E-02
 cg2d: Sum(rhs),rhsMax =   1.27695672091921E-09  1.45161003392658E-02
 cg2d: Sum(rhs),rhsMax =   1.27702132202145E-09  1.45157569376972E-02
 cg2d: Sum(rhs),rhsMax =   1.27709670616483E-09  1.45154115922143E-02
 cg2d: Sum(rhs),rhsMax =   1.27717425524310E-09  1.45150649317782E-02
 cg2d: Sum(rhs),rhsMax =   1.27725099940967E-09  1.45147176034596E-02
 cg2d: Sum(rhs),rhsMax =   1.27732038834871E-09  1.45143702736248E-02
 cg2d: Sum(rhs),rhsMax =   1.27740408528698E-09  1.45140236181406E-02
 cg2d: Sum(rhs),rhsMax =   1.27747670775058E-09  1.45136783244692E-02
 cg2d: Sum(rhs),rhsMax =   1.27753403689201E-09  1.45133350811548E-02
 cg2d: Sum(rhs),rhsMax =   1.27759881840550E-09  1.45129945803169E-02
 cg2d: Sum(rhs),rhsMax =   1.27767992019745E-09  1.45126575104189E-02
 cg2d: Sum(rhs),rhsMax =   1.27774217595356E-09  1.45123245506400E-02
 cg2d: Sum(rhs),rhsMax =   1.27781862868659E-09  1.45119963723752E-02
 cg2d: Sum(rhs),rhsMax =   1.27788067627588E-09  1.45116736283999E-02
 cg2d: Sum(rhs),rhsMax =   1.27795610205261E-09  1.45113569555705E-02
 cg2d: Sum(rhs),rhsMax =   1.27803154170714E-09  1.45110469657978E-02
 cg2d: Sum(rhs),rhsMax =   1.27809496319742E-09  1.45107442454742E-02
 cg2d: Sum(rhs),rhsMax =   1.27818265693858E-09  1.45104493522313E-02
 cg2d: Sum(rhs),rhsMax =   1.27823826523432E-09  1.45101628071920E-02
 cg2d: Sum(rhs),rhsMax =   1.27830937501905E-09  1.45098850984596E-02
 cg2d: Sum(rhs),rhsMax =   1.27837365693217E-09  1.45096166736538E-02
 cg2d: Sum(rhs),rhsMax =   1.27843759190061E-09  1.45093579377800E-02
 cg2d: Sum(rhs),rhsMax =   1.27850370568172E-09  1.45091092490000E-02
 cg2d: Sum(rhs),rhsMax =   1.27856945864036E-09  1.45088709236499E-02
 cg2d: Sum(rhs),rhsMax =   1.27862731513773E-09  1.45086432234989E-02
 cg2d: Sum(rhs),rhsMax =   1.27869324850760E-09  1.45084263627448E-02
 cg2d: Sum(rhs),rhsMax =   1.27875053601567E-09  1.45082205022042E-02
 cg2d: Sum(rhs),rhsMax =   1.27882218703412E-09  1.45080257460647E-02
 cg2d: Sum(rhs),rhsMax =   1.27888867551551E-09  1.45078421522035E-02
 cg2d: Sum(rhs),rhsMax =   1.27895741219852E-09  1.45076697155040E-02
 cg2d: Sum(rhs),rhsMax =   1.27901916835427E-09  1.45075083804197E-02
 cg2d: Sum(rhs),rhsMax =   1.27908565683565E-09  1.45073580316696E-02
 cg2d: Sum(rhs),rhsMax =   1.27915356085140E-09  1.45072185040756E-02
 Computing Diagnostic #    26 "THETA   " (list#  1) Parms "SMR     MR      ", Count=     144
 Computing Diagnostic #    27 "SALT    " (list#  1) Parms "SMR     MR      ", Count=     144
 Computing Diagnostic #    30 "UVEL    " (list#  1) Parms "UUR     MR      ", Count=     144
             Vector  Mate for "UVEL    " :  Diagnostic #     31 "VVEL    " exists
 Computing Diagnostic #    32 "WVEL    " (list#  1) Parms "WM      LR      ", Count=     144
 Computing Diagnostic #    31 "VVEL    " (list#  1) Parms "VVR     MR      ", Count=     144
             Vector  Mate for "VVEL    " :  Diagnostic #     30 "UVEL    " exists
 Computing Diagnostic #   197 "BRGfwFlx" (list#  2) Parms "SM      MR      ", Count=     144
 Computing Diagnostic #   198 "BRGhtFlx" (list#  2) Parms "SM      MR      ", Count=     144
 Computing Diagnostic #   199 "BRGmltRt" (list#  2) Parms "SM      MR      ", Count=     144
 Computing Diagnostic #   201 "BRG_TauX" (list#  2) Parms "UU      MR      ", Count=    1728
 Computing Diagnostic #   202 "BRG_TauY" (list#  2) Parms "VV      MR      ", Count=    1728
 Computing Diagnostic #   203 "BRGhFacC" (list#  2) Parms "SM      MR      ", Count=    1728
 cg2d: Sum(rhs),rhsMax =   1.27921880033188E-09  1.45070895767454E-02
 cg2d: Sum(rhs),rhsMax =   1.27926237658560E-09  1.45069709744833E-02
 cg2d: Sum(rhs),rhsMax =   1.27931730486974E-09  1.45068623717517E-02
 cg2d: Sum(rhs),rhsMax =   1.27936264360251E-09  1.45067633928802E-02
 cg2d: Sum(rhs),rhsMax =   1.27942278993487E-09  1.45066736122745E-02
 cg2d: Sum(rhs),rhsMax =   1.27947791250804E-09  1.45065925608536E-02
 cg2d: Sum(rhs),rhsMax =   1.27952465289738E-09  1.45065197244984E-02
 cg2d: Sum(rhs),rhsMax =   1.27958703355358E-09  1.45064545486074E-02
 cg2d: Sum(rhs),rhsMax =   1.27964087937027E-09  1.45063964411405E-02
 cg2d: Sum(rhs),rhsMax =   1.27968961816105E-09  1.45063447724833E-02
 cg2d: Sum(rhs),rhsMax =   1.27974711383594E-09  1.45062988861320E-02
 cg2d: Sum(rhs),rhsMax =   1.27980162578645E-09  1.45062580958769E-02
 cg2d: Sum(rhs),rhsMax =   1.27985293196797E-09  1.45062216883878E-02
 cg2d: Sum(rhs),rhsMax =   1.27989573106557E-09  1.45061889351931E-02
 cg2d: Sum(rhs),rhsMax =   1.27993962650841E-09  1.45061590855638E-02
 cg2d: Sum(rhs),rhsMax =   1.27999645604948E-09  1.45061313814821E-02
 cg2d: Sum(rhs),rhsMax =   1.28004197519349E-09  1.45061050548928E-02
 cg2d: Sum(rhs),rhsMax =   1.28009396138662E-09  1.45060793326925E-02
 cg2d: Sum(rhs),rhsMax =   1.28014389366715E-09  1.45060534382636E-02
 cg2d: Sum(rhs),rhsMax =   1.28019206346863E-09  1.45060266054121E-02
 cg2d: Sum(rhs),rhsMax =   1.28024027490348E-09  1.45059980732668E-02
 cg2d: Sum(rhs),rhsMax =   1.28027069501435E-09  1.45059670958996E-02
 cg2d: Sum(rhs),rhsMax =   1.28032785762233E-09  1.45059329416938E-02
 cg2d: Sum(rhs),rhsMax =   1.28038012137122E-09  1.45058949004296E-02
 cg2d: Sum(rhs),rhsMax =   1.28041774405396E-09  1.45058522892549E-02
 cg2d: Sum(rhs),rhsMax =   1.28047149272614E-09  1.45058044467715E-02
 cg2d: Sum(rhs),rhsMax =   1.28051950987196E-09  1.45057507488582E-02
 cg2d: Sum(rhs),rhsMax =   1.28057198178766E-09  1.45056906057954E-02
 cg2d: Sum(rhs),rhsMax =   1.28063308568738E-09  1.45056234632515E-02
 cg2d: Sum(rhs),rhsMax =   1.28068645965929E-09  1.45055488081682E-02
 cg2d: Sum(rhs),rhsMax =   1.28074992278293E-09  1.45054661695084E-02
 cg2d: Sum(rhs),rhsMax =   1.28079856442920E-09  1.45053751271666E-02
 cg2d: Sum(rhs),rhsMax =   1.28085345107998E-09  1.45052753064990E-02
 cg2d: Sum(rhs),rhsMax =   1.28089805428999E-09  1.45051663816830E-02
 cg2d: Sum(rhs),rhsMax =   1.28095677121021E-09  1.45050480837582E-02
 cg2d: Sum(rhs),rhsMax =   1.28101124152735E-09  1.45049201910819E-02
 cg2d: Sum(rhs),rhsMax =   1.28105459573646E-09  1.45047825376362E-02
 cg2d: Sum(rhs),rhsMax =   1.28111291020083E-09  1.45046350146162E-02
 cg2d: Sum(rhs),rhsMax =   1.28116751929586E-09  1.45044775663861E-02
 cg2d: Sum(rhs),rhsMax =   1.28122480680393E-09  1.45043101945983E-02
 cg2d: Sum(rhs),rhsMax =   1.28127844445380E-09  1.45041329519256E-02
 cg2d: Sum(rhs),rhsMax =   1.28132740528919E-09  1.45039459501331E-02
 cg2d: Sum(rhs),rhsMax =   1.28139783506231E-09  1.45037493533150E-02
 cg2d: Sum(rhs),rhsMax =   1.28146217248659E-09  1.45035433783137E-02
 cg2d: Sum(rhs),rhsMax =   1.28152174982965E-09  1.45033282961914E-02
 cg2d: Sum(rhs),rhsMax =   1.28157841283727E-09  1.45031044240470E-02
 cg2d: Sum(rhs),rhsMax =   1.28165025814475E-09  1.45028721274739E-02
 cg2d: Sum(rhs),rhsMax =   1.28171548374745E-09  1.45026318205791E-02
 cg2d: Sum(rhs),rhsMax =   1.28178277714053E-09  1.45023839594100E-02
 cg2d: Sum(rhs),rhsMax =   1.28184154957189E-09  1.45021290400602E-02
 cg2d: Sum(rhs),rhsMax =   1.28192390036475E-09  1.45018675969799E-02
 cg2d: Sum(rhs),rhsMax =   1.28200494664554E-09  1.45016002002618E-02
 cg2d: Sum(rhs),rhsMax =   1.28205460137032E-09  1.45013274513463E-02
 cg2d: Sum(rhs),rhsMax =   1.28212290784191E-09  1.45010499783008E-02
 cg2d: Sum(rhs),rhsMax =   1.28218664852131E-09  1.45007684357039E-02
 cg2d: Sum(rhs),rhsMax =   1.28225877138455E-09  1.45004834995154E-02
 cg2d: Sum(rhs),rhsMax =   1.28232516272142E-09  1.45001958620837E-02
 cg2d: Sum(rhs),rhsMax =   1.28240161545445E-09  1.44999062289698E-02
 cg2d: Sum(rhs),rhsMax =   1.28244467823002E-09  1.44996153155838E-02
 cg2d: Sum(rhs),rhsMax =   1.28250574049638E-09  1.44993238455244E-02
 cg2d: Sum(rhs),rhsMax =   1.28258254017410E-09  1.44990325426537E-02
 cg2d: Sum(rhs),rhsMax =   1.28265738308375E-09  1.44987421279130E-02
 cg2d: Sum(rhs),rhsMax =   1.28272673038943E-09  1.44984533190573E-02
 cg2d: Sum(rhs),rhsMax =   1.28279928346409E-09  1.44981668197730E-02
 cg2d: Sum(rhs),rhsMax =   1.28286126166444E-09  1.44978833277583E-02
 cg2d: Sum(rhs),rhsMax =   1.28293009549196E-09  1.44976035160307E-02
 cg2d: Sum(rhs),rhsMax =   1.28298879853439E-09  1.44973280422978E-02
 cg2d: Sum(rhs),rhsMax =   1.28304653013167E-09  1.44970575397980E-02
 cg2d: Sum(rhs),rhsMax =   1.28311658520452E-09  1.44967926127382E-02
 cg2d: Sum(rhs),rhsMax =   1.28319010972433E-09  1.44965338370687E-02
 cg2d: Sum(rhs),rhsMax =   1.28325261528062E-09  1.44962817568813E-02
 cg2d: Sum(rhs),rhsMax =   1.28332712512336E-09  1.44960368774672E-02
 cg2d: Sum(rhs),rhsMax =   1.28340901794921E-09  1.44957996697653E-02
 cg2d: Sum(rhs),rhsMax =   1.28345897798532E-09  1.44955705632067E-02
 cg2d: Sum(rhs),rhsMax =   1.28352951878075E-09  1.44953499448745E-02
 cg2d: Sum(rhs),rhsMax =   1.28359230189279E-09  1.44951381579231E-02
 cg2d: Sum(rhs),rhsMax =   1.28363895901540E-09  1.44949355001560E-02
 cg2d: Sum(rhs),rhsMax =   1.28369745389101E-09  1.44947422257328E-02
 cg2d: Sum(rhs),rhsMax =   1.28376148600395E-09  1.44945585373334E-02
 cg2d: Sum(rhs),rhsMax =   1.28380903130498E-09  1.44943845903721E-02
 cg2d: Sum(rhs),rhsMax =   1.28387003806019E-09  1.44942204935534E-02
 cg2d: Sum(rhs),rhsMax =   1.28392517451115E-09  1.44940663050499E-02
 cg2d: Sum(rhs),rhsMax =   1.28397767418242E-09  1.44939220354808E-02
 cg2d: Sum(rhs),rhsMax =   1.28403418453438E-09  1.44937876479679E-02
 cg2d: Sum(rhs),rhsMax =   1.28407540156417E-09  1.44936630547299E-02
 cg2d: Sum(rhs),rhsMax =   1.28412067090800E-09  1.44935481246303E-02
 cg2d: Sum(rhs),rhsMax =   1.28417174116713E-09  1.44934426789131E-02
 cg2d: Sum(rhs),rhsMax =   1.28423091605434E-09  1.44933464960795E-02
 cg2d: Sum(rhs),rhsMax =   1.28427754542138E-09  1.44932593094236E-02
 cg2d: Sum(rhs),rhsMax =   1.28434159141211E-09  1.44931808140684E-02
 cg2d: Sum(rhs),rhsMax =   1.28440531821372E-09  1.44931106644031E-02
 cg2d: Sum(rhs),rhsMax =   1.28445083735773E-09  1.44930484779525E-02
 cg2d: Sum(rhs),rhsMax =   1.28449564873456E-09  1.44929938388743E-02
 cg2d: Sum(rhs),rhsMax =   1.28453993275546E-09  1.44929462974389E-02
 cg2d: Sum(rhs),rhsMax =   1.28458495229911E-09  1.44929053768168E-02
 cg2d: Sum(rhs),rhsMax =   1.28462041004695E-09  1.44928705701957E-02
 cg2d: Sum(rhs),rhsMax =   1.28467508853092E-09  1.44928413514366E-02
 cg2d: Sum(rhs),rhsMax =   1.28473509608540E-09  1.44928171705597E-02
 cg2d: Sum(rhs),rhsMax =   1.28476645988584E-09  1.44927974603324E-02
 cg2d: Sum(rhs),rhsMax =   1.28481714156692E-09  1.44927816377719E-02
 cg2d: Sum(rhs),rhsMax =   1.28485914963061E-09  1.44927691109534E-02
 cg2d: Sum(rhs),rhsMax =   1.28489986706004E-09  1.44927592750327E-02
 cg2d: Sum(rhs),rhsMax =   1.28495739049050E-09  1.44927515250696E-02
 cg2d: Sum(rhs),rhsMax =   1.28498954532485E-09  1.44927452508914E-02
 cg2d: Sum(rhs),rhsMax =   1.28503671592561E-09  1.44927398409873E-02
 cg2d: Sum(rhs),rhsMax =   1.28508033381269E-09  1.44927346910859E-02
 cg2d: Sum(rhs),rhsMax =   1.28512170349815E-09  1.44927292024585E-02
 cg2d: Sum(rhs),rhsMax =   1.28517395336925E-09  1.44927227857993E-02
 cg2d: Sum(rhs),rhsMax =   1.28523466869090E-09  1.44927148638567E-02
 cg2d: Sum(rhs),rhsMax =   1.28528247766990E-09  1.44927048737891E-02
 cg2d: Sum(rhs),rhsMax =   1.28533118870511E-09  1.44926922713484E-02
 cg2d: Sum(rhs),rhsMax =   1.28536516152966E-09  1.44926765309790E-02
 cg2d: Sum(rhs),rhsMax =   1.28540973698410E-09  1.44926571503718E-02
 cg2d: Sum(rhs),rhsMax =   1.28546789879280E-09  1.44926336490151E-02
 cg2d: Sum(rhs),rhsMax =   1.28550499411961E-09  1.44926055747490E-02
 cg2d: Sum(rhs),rhsMax =   1.28555312228773E-09  1.44925725017119E-02
 cg2d: Sum(rhs),rhsMax =   1.28561279677530E-09  1.44925340339429E-02
 cg2d: Sum(rhs),rhsMax =   1.28565945389791E-09  1.44924898040322E-02
 cg2d: Sum(rhs),rhsMax =   1.28571459034887E-09  1.44924394775052E-02
 cg2d: Sum(rhs),rhsMax =   1.28575353142146E-09  1.44923827536248E-02
 cg2d: Sum(rhs),rhsMax =   1.28579596969658E-09  1.44923193630995E-02
 cg2d: Sum(rhs),rhsMax =   1.28584977387991E-09  1.44922490696504E-02
 cg2d: Sum(rhs),rhsMax =   1.28589716652527E-09  1.44921716722345E-02
 cg2d: Sum(rhs),rhsMax =   1.28595434301104E-09  1.44920870040268E-02
 cg2d: Sum(rhs),rhsMax =   1.28600063931117E-09  1.44919949316091E-02
 cg2d: Sum(rhs),rhsMax =   1.28606170157752E-09  1.44918953580349E-02
 cg2d: Sum(rhs),rhsMax =   1.28611406247092E-09  1.44917882149341E-02
 cg2d: Sum(rhs),rhsMax =   1.28616067796017E-09  1.44916734697955E-02
 cg2d: Sum(rhs),rhsMax =   1.28622770767528E-09  1.44915511203774E-02
 cg2d: Sum(rhs),rhsMax =   1.28626945206101E-09  1.44914211983656E-02
 cg2d: Sum(rhs),rhsMax =   1.28634192186894E-09  1.44912837603983E-02
 cg2d: Sum(rhs),rhsMax =   1.28638379115475E-09  1.44911388947770E-02
 cg2d: Sum(rhs),rhsMax =   1.28645367969416E-09  1.44909867180767E-02
 cg2d: Sum(rhs),rhsMax =   1.28650701203270E-09  1.44908273669942E-02
 cg2d: Sum(rhs),rhsMax =   1.28656815756578E-09  1.44906610070871E-02
 cg2d: Sum(rhs),rhsMax =   1.28662326626117E-09  1.44904878248224E-02
 cg2d: Sum(rhs),rhsMax =   1.28667658472192E-09  1.44903080254660E-02
 cg2d: Sum(rhs),rhsMax =   1.28672840438160E-09  1.44901218342906E-02
 cg2d: Sum(rhs),rhsMax =   1.28679834843215E-09  1.44899294903162E-02
 cg2d: Sum(rhs),rhsMax =   1.28685405387241E-09  1.44897312492076E-02
 cg2d: Sum(rhs),rhsMax =   1.28691939049741E-09  1.44895273795385E-02
 cg2d: Sum(rhs),rhsMax =   1.28697616452733E-09  1.44893181565678E-02
 cg2d: Sum(rhs),rhsMax =   1.28703964152876E-09  1.44891038683355E-02
 cg2d: Sum(rhs),rhsMax =   1.28709140567729E-09  1.44888848033434E-02
 Computing Diagnostic #    26 "THETA   " (list#  1) Parms "SMR     MR      ", Count=     144
 Computing Diagnostic #    27 "SALT    " (list#  1) Parms "SMR     MR      ", Count=     144
 Computing Diagnostic #    30 "UVEL    " (list#  1) Parms "UUR     MR      ", Count=     144
             Vector  Mate for "UVEL    " :  Diagnostic #     31 "VVEL    " exists
 Computing Diagnostic #    32 "WVEL    " (list#  1) Parms "WM      LR      ", Count=     144
 Computing Diagnostic #    31 "VVEL    " (list#  1) Parms "VVR     MR      ", Count=     144
             Vector  Mate for "VVEL    " :  Diagnostic #     30 "UVEL    " exists
 Computing Diagnostic #   197 "BRGfwFlx" (list#  2) Parms "SM      MR      ", Count=     144
 Computing Diagnostic #   198 "BRGhtFlx" (list#  2) Parms "SM      MR      ", Count=     144
 Computing Diagnostic #   199 "BRGmltRt" (list#  2) Parms "SM      MR      ", Count=     144
 Computing Diagnostic #   201 "BRG_TauX" (list#  2) Parms "UU      MR      ", Count=    1728
 Computing Diagnostic #   202 "BRG_TauY" (list#  2) Parms "VV      MR      ", Count=    1728
 Computing Diagnostic #   203 "BRGhFacC" (list#  2) Parms "SM      MR      ", Count=    1728
 cg2d: Sum(rhs),rhsMax =   1.28715904601506E-09  1.44886612557442E-02
 cg2d: Sum(rhs),rhsMax =   1.28723733061609E-09  1.44884335265137E-02
 cg2d: Sum(rhs),rhsMax =   1.28728937232037E-09  1.44882019098226E-02
 cg2d: Sum(rhs),rhsMax =   1.28734527204966E-09  1.44879667007996E-02
 cg2d: Sum(rhs),rhsMax =   1.28742072558197E-09  1.44877281901899E-02
 cg2d: Sum(rhs),rhsMax =   1.28747112970728E-09  1.44874866647375E-02
 cg2d: Sum(rhs),rhsMax =   1.28754154560262E-09  1.44872423993054E-02
 cg2d: Sum(rhs),rhsMax =   1.28759888862184E-09  1.44869956667435E-02
 cg2d: Sum(rhs),rhsMax =   1.28767373153149E-09  1.44867467221694E-02
 cg2d: Sum(rhs),rhsMax =   1.28773355867473E-09  1.44864958147036E-02
 cg2d: Sum(rhs),rhsMax =   1.28778804286966E-09  1.44862431766719E-02
 cg2d: Sum(rhs),rhsMax =   1.28785557218514E-09  1.44859890274015E-02
 cg2d: Sum(rhs),rhsMax =   1.28792371212327E-09  1.44857335719478E-02
 cg2d: Sum(rhs),rhsMax =   1.28797389420399E-09  1.44854769982276E-02
 cg2d: Sum(rhs),rhsMax =   1.28804376886560E-09  1.44852194782999E-02
 cg2d: Sum(rhs),rhsMax =   1.28810455357620E-09  1.44849611652049E-02
 cg2d: Sum(rhs),rhsMax =   1.28816171618418E-09  1.44847021974215E-02
 cg2d: Sum(rhs),rhsMax =   1.28823533784850E-09  1.44844426920231E-02
 cg2d: Sum(rhs),rhsMax =   1.28831462165024E-09  1.44841827497036E-02
 cg2d: Sum(rhs),rhsMax =   1.28838108237606E-09  1.44839224532420E-02
 cg2d: Sum(rhs),rhsMax =   1.28845652203058E-09  1.44836618666114E-02
 cg2d: Sum(rhs),rhsMax =   1.28850990988028E-09  1.44834010359247E-02
 cg2d: Sum(rhs),rhsMax =   1.28858083925376E-09  1.44831399924584E-02
 cg2d: Sum(rhs),rhsMax =   1.28864700854603E-09  1.44828787426027E-02
 cg2d: Sum(rhs),rhsMax =   1.28872225391152E-09  1.44826172876990E-02
 cg2d: Sum(rhs),rhsMax =   1.28878126226528E-09  1.44823556064278E-02
 cg2d: Sum(rhs),rhsMax =   1.28885246919452E-09  1.44820936646412E-02
 cg2d: Sum(rhs),rhsMax =   1.28892341244580E-09  1.44818314130443E-02
 cg2d: Sum(rhs),rhsMax =   1.28897582885035E-09  1.44815687133417E-02
 cg2d: Sum(rhs),rhsMax =   1.28904593943435E-09  1.44813054908028E-02
 cg2d: Sum(rhs),rhsMax =   1.28911425978373E-09  1.44810417440581E-02
 cg2d: Sum(rhs),rhsMax =   1.28918418995649E-09  1.44807773916372E-02
 cg2d: Sum(rhs),rhsMax =   1.28925284337278E-09  1.44805123102508E-02
 cg2d: Sum(rhs),rhsMax =   1.28931111620378E-09  1.44802464364679E-02
 cg2d: Sum(rhs),rhsMax =   1.28937889531944E-09  1.44799796341958E-02
 cg2d: Sum(rhs),rhsMax =   1.28943423993721E-09  1.44797117784849E-02
 cg2d: Sum(rhs),rhsMax =   1.28949016742208E-09  1.44794427601051E-02
 cg2d: Sum(rhs),rhsMax =   1.28956009759484E-09  1.44791724670535E-02
 cg2d: Sum(rhs),rhsMax =   1.28962210355077E-09  1.44789007773647E-02
 cg2d: Sum(rhs),rhsMax =   1.28968079271541E-09  1.44786275787250E-02
 cg2d: Sum(rhs),rhsMax =   1.28974879387567E-09  1.44783527569176E-02
 cg2d: Sum(rhs),rhsMax =   1.28981550440166E-09  1.44780762048088E-02
 cg2d: Sum(rhs),rhsMax =   1.28987309722106E-09  1.44777978177826E-02
 cg2d: Sum(rhs),rhsMax =   1.28995795989351E-09  1.44775175010219E-02
 cg2d: Sum(rhs),rhsMax =   1.29002490634189E-09  1.44772351646778E-02
 cg2d: Sum(rhs),rhsMax =   1.29010217786441E-09  1.44769507300296E-02
 cg2d: Sum(rhs),rhsMax =   1.29017797834141E-09  1.44766641248143E-02
 cg2d: Sum(rhs),rhsMax =   1.29024059492000E-09  1.44763752917231E-02
 cg2d: Sum(rhs),rhsMax =   1.29030440498834E-09  1.44760841815724E-02
 cg2d: Sum(rhs),rhsMax =   1.29037013019140E-09  1.44757907607203E-02
 cg2d: Sum(rhs),rhsMax =   1.29044205876561E-09  1.44754950047625E-02
 cg2d: Sum(rhs),rhsMax =   1.29051616615250E-09  1.44751969050407E-02
 cg2d: Sum(rhs),rhsMax =   1.29058305708973E-09  1.44748964652340E-02
 cg2d: Sum(rhs),rhsMax =   1.29065629017600E-09  1.44745937036468E-02
 cg2d: Sum(rhs),rhsMax =   1.29074038957011E-09  1.44742886533105E-02
 cg2d: Sum(rhs),rhsMax =   1.29081920152707E-09  1.44739813608837E-02
 cg2d: Sum(rhs),rhsMax =   1.29089197664634E-09  1.44736718866476E-02
 cg2d: Sum(rhs),rhsMax =   1.29097434131697E-09  1.44733603050143E-02
 cg2d: Sum(rhs),rhsMax =   1.29104750501430E-09  1.44730467049004E-02
 cg2d: Sum(rhs),rhsMax =   1.29111080160449E-09  1.44727311891290E-02
 cg2d: Sum(rhs),rhsMax =   1.29117973257653E-09  1.44724138714340E-02
 cg2d: Sum(rhs),rhsMax =   1.29125617143178E-09  1.44720948811923E-02
 cg2d: Sum(rhs),rhsMax =   1.29131785819858E-09  1.44717743566675E-02
 cg2d: Sum(rhs),rhsMax =   1.29138336135703E-09  1.44714524506335E-02
 cg2d: Sum(rhs),rhsMax =   1.29145412419707E-09  1.44711293205231E-02
 cg2d: Sum(rhs),rhsMax =   1.29153468475529E-09  1.44708051414329E-02
 cg2d: Sum(rhs),rhsMax =   1.29160990236521E-09  1.44704800913008E-02
 cg2d: Sum(rhs),rhsMax =   1.29167815332565E-09  1.44701543558400E-02
 cg2d: Sum(rhs),rhsMax =   1.29175450891417E-09  1.44698281307564E-02
 cg2d: Sum(rhs),rhsMax =   1.29182836650088E-09  1.44695016152004E-02
 cg2d: Sum(rhs),rhsMax =   1.29190294573256E-09  1.44691750136528E-02
 cg2d: Sum(rhs),rhsMax =   1.29198413079123E-09  1.44688485315388E-02
 cg2d: Sum(rhs),rhsMax =   1.29204964782748E-09  1.44685223809104E-02
 cg2d: Sum(rhs),rhsMax =   1.29210965538196E-09  1.44681967696699E-02
 cg2d: Sum(rhs),rhsMax =   1.29219114575196E-09  1.44678719101100E-02
 cg2d: Sum(rhs),rhsMax =   1.29226983280883E-09  1.44675480105981E-02
 cg2d: Sum(rhs),rhsMax =   1.29234065116002E-09  1.44672252761909E-02
 cg2d: Sum(rhs),rhsMax =   1.29242096191806E-09  1.44669039120383E-02
 cg2d: Sum(rhs),rhsMax =   1.29249534686071E-09  1.44665841155743E-02
 cg2d: Sum(rhs),rhsMax =   1.29255971204056E-09  1.44662660775747E-02
 cg2d: Sum(rhs),rhsMax =   1.29263004466917E-09  1.44659499840872E-02
 cg2d: Sum(rhs),rhsMax =   1.29269821236289E-09  1.44656360140086E-02
 cg2d: Sum(rhs),rhsMax =   1.29276676863466E-09  1.44653243326968E-02
 cg2d: Sum(rhs),rhsMax =   1.29285535055423E-09  1.44650151026988E-02
 cg2d: Sum(rhs),rhsMax =   1.29290866901499E-09  1.44647084675537E-02
 cg2d: Sum(rhs),rhsMax =   1.29298725892735E-09  1.44644045676829E-02
 cg2d: Sum(rhs),rhsMax =   1.29306229612602E-09  1.44641035257558E-02
 cg2d: Sum(rhs),rhsMax =   1.29312011099003E-09  1.44638054563186E-02
 cg2d: Sum(rhs),rhsMax =   1.29318684927160E-09  1.44635104570313E-02
 cg2d: Sum(rhs),rhsMax =   1.29327155928838E-09  1.44632186125254E-02
 cg2d: Sum(rhs),rhsMax =   1.29334104537193E-09  1.44629299951671E-02
 cg2d: Sum(rhs),rhsMax =   1.29341333476862E-09  1.44626446641308E-02
 cg2d: Sum(rhs),rhsMax =   1.29347300925620E-09  1.44623626587735E-02
 cg2d: Sum(rhs),rhsMax =   1.29355018363420E-09  1.44620840119596E-02
 cg2d: Sum(rhs),rhsMax =   1.29361996115129E-09  1.44618087357722E-02
 cg2d: Sum(rhs),rhsMax =   1.29368932233476E-09  1.44615368288304E-02
 cg2d: Sum(rhs),rhsMax =   1.29376898083677E-09  1.44612682799279E-02
 cg2d: Sum(rhs),rhsMax =   1.29383445623965E-09  1.44610030590160E-02
 cg2d: Sum(rhs),rhsMax =   1.29389454706086E-09  1.44607411246464E-02
 cg2d: Sum(rhs),rhsMax =   1.29397462189651E-09  1.44604824205189E-02
 cg2d: Sum(rhs),rhsMax =   1.29402635828946E-09  1.44602268810792E-02
 cg2d: Sum(rhs),rhsMax =   1.29409120919188E-09  1.44599744260505E-02
 cg2d: Sum(rhs),rhsMax =   1.29416258265458E-09  1.44597249638534E-02
 cg2d: Sum(rhs),rhsMax =   1.29424290729041E-09  1.44594783925890E-02
 cg2d: Sum(rhs),rhsMax =   1.29430724471469E-09  1.44592346012041E-02
 cg2d: Sum(rhs),rhsMax =   1.29436195095423E-09  1.44589934674979E-02
 cg2d: Sum(rhs),rhsMax =   1.29443916696559E-09  1.44587548623262E-02
 cg2d: Sum(rhs),rhsMax =   1.29450557218025E-09  1.44585186490303E-02
 cg2d: Sum(rhs),rhsMax =   1.29458296860285E-09  1.44582846832527E-02
 cg2d: Sum(rhs),rhsMax =   1.29464286513503E-09  1.44580528174534E-02
 cg2d: Sum(rhs),rhsMax =   1.29471666721059E-09  1.44578228967853E-02
 cg2d: Sum(rhs),rhsMax =   1.29478765209523E-09  1.44575947636657E-02
 cg2d: Sum(rhs),rhsMax =   1.29485747124569E-09  1.44573682587216E-02
 cg2d: Sum(rhs),rhsMax =   1.29491130318460E-09  1.44571432205070E-02
 cg2d: Sum(rhs),rhsMax =   1.29498615997203E-09  1.44569194853778E-02
 cg2d: Sum(rhs),rhsMax =   1.29505596524471E-09  1.44566968933105E-02
 cg2d: Sum(rhs),rhsMax =   1.29510879798289E-09  1.44564752813557E-02
 cg2d: Sum(rhs),rhsMax =   1.29517731262130E-09  1.44562544949978E-02
 cg2d: Sum(rhs),rhsMax =   1.29524277414639E-09  1.44560343749485E-02
 cg2d: Sum(rhs),rhsMax =   1.29529752201929E-09  1.44558147720810E-02
 cg2d: Sum(rhs),rhsMax =   1.29537122695034E-09  1.44555955392284E-02
 cg2d: Sum(rhs),rhsMax =   1.29544069915610E-09  1.44553765363382E-02
 cg2d: Sum(rhs),rhsMax =   1.29550595251438E-09  1.44551576292725E-02
 cg2d: Sum(rhs),rhsMax =   1.29556503025707E-09  1.44549386911075E-02
 cg2d: Sum(rhs),rhsMax =   1.29563416939593E-09  1.44547196022796E-02
 cg2d: Sum(rhs),rhsMax =   1.29569714679700E-09  1.44545002513899E-02
 cg2d: Sum(rhs),rhsMax =   1.29575587759501E-09  1.44542805375310E-02
 cg2d: Sum(rhs),rhsMax =   1.29581329000317E-09  1.44540603666330E-02
 cg2d: Sum(rhs),rhsMax =   1.29587131303399E-09  1.44538396575626E-02
 cg2d: Sum(rhs),rhsMax =   1.29592764297470E-09  1.44536183123139E-02
 cg2d: Sum(rhs),rhsMax =   1.29599775355871E-09  1.44533962396627E-02
 cg2d: Sum(rhs),rhsMax =   1.29606918253256E-09  1.44531733884081E-02
 cg2d: Sum(rhs),rhsMax =   1.29612016952496E-09  1.44529497175334E-02
 cg2d: Sum(rhs),rhsMax =   1.29617477861999E-09  1.44527251989653E-02
 cg2d: Sum(rhs),rhsMax =   1.29624730393907E-09  1.44524998126741E-02
 cg2d: Sum(rhs),rhsMax =   1.29630109424461E-09  1.44522735521048E-02
 cg2d: Sum(rhs),rhsMax =   1.29636110179909E-09  1.44520464193054E-02
 cg2d: Sum(rhs),rhsMax =   1.29641720969520E-09  1.44518184290446E-02
 cg2d: Sum(rhs),rhsMax =   1.29649029012580E-09  1.44515896038655E-02
 cg2d: Sum(rhs),rhsMax =   1.29653417169084E-09  1.44513599777782E-02
 cg2d: Sum(rhs),rhsMax =   1.29660290837386E-09  1.44511295941810E-02
 cg2d: Sum(rhs),rhsMax =   1.29666630210856E-09  1.44508985052565E-02
 cg2d: Sum(rhs),rhsMax =   1.29673267956765E-09  1.44506667690904E-02
 cg2d: Sum(rhs),rhsMax =   1.29679302018904E-09  1.44504344565636E-02
 Computing Diagnostic #    26 "THETA   " (list#  1) Parms "SMR     MR      ", Count=     144
 Computing Diagnostic #    27 "SALT    " (list#  1) Parms "SMR     MR      ", Count=     144
 Computing Diagnostic #    30 "UVEL    " (list#  1) Parms "UUR     MR      ", Count=     144
             Vector  Mate for "UVEL    " :  Diagnostic #     31 "VVEL    " exists
 Computing Diagnostic #    32 "WVEL    " (list#  1) Parms "WM      LR      ", Count=     144
 Computing Diagnostic #    31 "VVEL    " (list#  1) Parms "VVR     MR      ", Count=     144
             Vector  Mate for "VVEL    " :  Diagnostic #     30 "UVEL    " exists
 Computing Diagnostic #   197 "BRGfwFlx" (list#  2) Parms "SM      MR      ", Count=     144
 Computing Diagnostic #   198 "BRGhtFlx" (list#  2) Parms "SM      MR      ", Count=     144
 Computing Diagnostic #   199 "BRGmltRt" (list#  2) Parms "SM      MR      ", Count=     144
 Computing Diagnostic #   201 "BRG_TauX" (list#  2) Parms "UU      MR      ", Count=    1728
 Computing Diagnostic #   202 "BRG_TauY" (list#  2) Parms "VV      MR      ", Count=    1728
 Computing Diagnostic #   203 "BRGhFacC" (list#  2) Parms "SM      MR      ", Count=    1728
 cg2d: Sum(rhs),rhsMax =   1.29685859273643E-09  1.44502016414336E-02
 cg2d: Sum(rhs),rhsMax =   1.29692358241673E-09  1.44499684054935E-02
 cg2d: Sum(rhs),rhsMax =   1.29699680162521E-09  1.44497348362127E-02
 cg2d: Sum(rhs),rhsMax =   1.29705957085946E-09  1.44495010276072E-02
 cg2d: Sum(rhs),rhsMax =   1.29712429686180E-09  1.44492670765155E-02
 cg2d: Sum(rhs),rhsMax =   1.29718240315935E-09  1.44490330838297E-02
 cg2d: Sum(rhs),rhsMax =   1.29723859432218E-09  1.44487991543065E-02
 cg2d: Sum(rhs),rhsMax =   1.29729424425129E-09  1.44485653926530E-02
 cg2d: Sum(rhs),rhsMax =   1.29736078824383E-09  1.44483319081861E-02
 cg2d: Sum(rhs),rhsMax =   1.29740994336824E-09  1.44480988086045E-02
 cg2d: Sum(rhs),rhsMax =   1.29748425892195E-09  1.44478662023148E-02
 cg2d: Sum(rhs),rhsMax =   1.29754557098849E-09  1.44476341967295E-02
 cg2d: Sum(rhs),rhsMax =   1.29761461298283E-09  1.44474028979139E-02
 cg2d: Sum(rhs),rhsMax =   1.29766880574422E-09  1.44471724103394E-02
 cg2d: Sum(rhs),rhsMax =   1.29772034784814E-09  1.44469428345081E-02
 cg2d: Sum(rhs),rhsMax =   1.29778809920822E-09  1.44467142674921E-02
 cg2d: Sum(rhs),rhsMax =   1.29785300562180E-09  1.44464868038206E-02
 cg2d: Sum(rhs),rhsMax =   1.29792164516029E-09  1.44462605323822E-02
 cg2d: Sum(rhs),rhsMax =   1.29798159720362E-09  1.44460355350515E-02
 cg2d: Sum(rhs),rhsMax =   1.29804461623806E-09  1.44458118930342E-02
 cg2d: Sum(rhs),rhsMax =   1.29810667770514E-09  1.44455896777224E-02
 cg2d: Sum(rhs),rhsMax =   1.29817440130964E-09  1.44453689539353E-02
 cg2d: Sum(rhs),rhsMax =   1.29825347694457E-09  1.44451497810078E-02
 cg2d: Sum(rhs),rhsMax =   1.29829220985034E-09  1.44449322110699E-02
 cg2d: Sum(rhs),rhsMax =   1.29835467377326E-09  1.44447162899883E-02
 cg2d: Sum(rhs),rhsMax =   1.29841672136255E-09  1.44445020548875E-02
 cg2d: Sum(rhs),rhsMax =   1.29846694507663E-09  1.44442895359270E-02
 cg2d: Sum(rhs),rhsMax =   1.29854244024230E-09  1.44440787553908E-02
 cg2d: Sum(rhs),rhsMax =   1.29860269759696E-09  1.44438697281087E-02
 cg2d: Sum(rhs),rhsMax =   1.29867053222377E-09  1.44436624623420E-02
 cg2d: Sum(rhs),rhsMax =   1.29872175513857E-09  1.44434569586448E-02
 cg2d: Sum(rhs),rhsMax =   1.29877786303467E-09  1.44432532086480E-02
 cg2d: Sum(rhs),rhsMax =   1.29883638566586E-09  1.44430511995431E-02
 cg2d: Sum(rhs),rhsMax =   1.29888473587858E-09  1.44428509108520E-02
 cg2d: Sum(rhs),rhsMax =   1.29894248135365E-09  1.44426523148892E-02
 cg2d: Sum(rhs),rhsMax =   1.29899366263508E-09  1.44424553780383E-02
 cg2d: Sum(rhs),rhsMax =   1.29905829149290E-09  1.44422600604935E-02
 cg2d: Sum(rhs),rhsMax =   1.29911177648712E-09  1.44420663182287E-02
 cg2d: Sum(rhs),rhsMax =   1.29916848112810E-09  1.44418741012884E-02
 cg2d: Sum(rhs),rhsMax =   1.29922017588768E-09  1.44416833551737E-02
 cg2d: Sum(rhs),rhsMax =   1.29928603986862E-09  1.44414940226152E-02
 cg2d: Sum(rhs),rhsMax =   1.29934768500206E-09  1.44413060388632E-02
 cg2d: Sum(rhs),rhsMax =   1.29941228610431E-09  1.44411193420149E-02
 cg2d: Sum(rhs),rhsMax =   1.29947502758299E-09  1.44409338612674E-02
 cg2d: Sum(rhs),rhsMax =   1.29953033056740E-09  1.44407495297903E-02
 cg2d: Sum(rhs),rhsMax =   1.29959719374906E-09  1.44405662742375E-02
 cg2d: Sum(rhs),rhsMax =   1.29965695150336E-09  1.44403840240247E-02
 cg2d: Sum(rhs),rhsMax =   1.29972713147630E-09  1.44402027050961E-02
 cg2d: Sum(rhs),rhsMax =   1.29979470242514E-09  1.44400222459941E-02
 cg2d: Sum(rhs),rhsMax =   1.29984800700811E-09  1.44398425742818E-02
 cg2d: Sum(rhs),rhsMax =   1.29990530839397E-09  1.44396636189346E-02
 cg2d: Sum(rhs),rhsMax =   1.29996946540700E-09  1.44394853101083E-02
 cg2d: Sum(rhs),rhsMax =   1.30002902887227E-09  1.44393075813746E-02
 cg2d: Sum(rhs),rhsMax =   1.30009500387551E-09  1.44391303667913E-02
 cg2d: Sum(rhs),rhsMax =   1.30015767596525E-09  1.44389536052293E-02
 cg2d: Sum(rhs),rhsMax =   1.30022380362416E-09  1.44387772368487E-02
 cg2d: Sum(rhs),rhsMax =   1.30028693368089E-09  1.44386012062621E-02
 cg2d: Sum(rhs),rhsMax =   1.30034874534779E-09  1.44384254630215E-02
 cg2d: Sum(rhs),rhsMax =   1.30042226986760E-09  1.44382499586307E-02
 cg2d: Sum(rhs),rhsMax =   1.30048563584673E-09  1.44380746504744E-02
 cg2d: Sum(rhs),rhsMax =   1.30054803038071E-09  1.44378995008857E-02
 cg2d: Sum(rhs),rhsMax =   1.30060259784237E-09  1.44377244748198E-02
 cg2d: Sum(rhs),rhsMax =   1.30065630488119E-09  1.44375495445017E-02
 cg2d: Sum(rhs),rhsMax =   1.30072813631088E-09  1.44373746857273E-02
 cg2d: Sum(rhs),rhsMax =   1.30079003124450E-09  1.44371998798742E-02
 cg2d: Sum(rhs),rhsMax =   1.30084504279537E-09  1.44370251123292E-02
 cg2d: Sum(rhs),rhsMax =   1.30090480054967E-09  1.44368503743353E-02
 cg2d: Sum(rhs),rhsMax =   1.30096920736289E-09  1.44366756627811E-02
 cg2d: Sum(rhs),rhsMax =   1.30103620932243E-09  1.44365009772578E-02
 cg2d: Sum(rhs),rhsMax =   1.30108890328273E-09  1.44363263228669E-02
 cg2d: Sum(rhs),rhsMax =   1.30116413477044E-09  1.44361517106478E-02
 cg2d: Sum(rhs),rhsMax =   1.30121113883774E-09  1.44359771543825E-02
 cg2d: Sum(rhs),rhsMax =   1.30127657260726E-09  1.44358026695696E-02
 cg2d: Sum(rhs),rhsMax =   1.30133659403953E-09  1.44356282801693E-02
 cg2d: Sum(rhs),rhsMax =   1.30140319354322E-09  1.44354540101387E-02
 cg2d: Sum(rhs),rhsMax =   1.30146850241264E-09  1.44352798859034E-02
 cg2d: Sum(rhs),rhsMax =   1.30152147392870E-09  1.44351059383278E-02
 cg2d: Sum(rhs),rhsMax =   1.30159324984724E-09  1.44349322025909E-02
 cg2d: Sum(rhs),rhsMax =   1.30165252187897E-09  1.44347587155609E-02
 cg2d: Sum(rhs),rhsMax =   1.30171309842275E-09  1.44345855112226E-02
 cg2d: Sum(rhs),rhsMax =   1.30178924584445E-09  1.44344126282218E-02
 cg2d: Sum(rhs),rhsMax =   1.30183644420079E-09  1.44342401036386E-02
 cg2d: Sum(rhs),rhsMax =   1.30189357905319E-09  1.44340679777880E-02
 cg2d: Sum(rhs),rhsMax =   1.30195741687711E-09  1.44338962866300E-02
 cg2d: Sum(rhs),rhsMax =   1.30200104864198E-09  1.44337250701376E-02
 cg2d: Sum(rhs),rhsMax =   1.30206265214206E-09  1.44335543650340E-02
 cg2d: Sum(rhs),rhsMax =   1.30212138294006E-09  1.44333842077136E-02
 cg2d: Sum(rhs),rhsMax =   1.30218398564086E-09  1.44332146340967E-02
 cg2d: Sum(rhs),rhsMax =   1.30223890004721E-09  1.44330456759386E-02
 cg2d: Sum(rhs),rhsMax =   1.30230859429759E-09  1.44328773650080E-02
 cg2d: Sum(rhs),rhsMax =   1.30237151618751E-09  1.44327097281653E-02
 cg2d: Sum(rhs),rhsMax =   1.30242888696230E-09  1.44325427897498E-02
 cg2d: Sum(rhs),rhsMax =   1.30248885288342E-09  1.44323765724310E-02
 cg2d: Sum(rhs),rhsMax =   1.30254824981524E-09  1.44322110924339E-02
 cg2d: Sum(rhs),rhsMax =   1.30261555708611E-09  1.44320463666255E-02
 cg2d: Sum(rhs),rhsMax =   1.30267746589752E-09  1.44318824016957E-02
 cg2d: Sum(rhs),rhsMax =   1.30274584175805E-09  1.44317192067084E-02
 cg2d: Sum(rhs),rhsMax =   1.30279828591817E-09  1.44315567820499E-02
 cg2d: Sum(rhs),rhsMax =   1.30285297827992E-09  1.44313951248351E-02
 cg2d: Sum(rhs),rhsMax =   1.30290907229824E-09  1.44312342283443E-02
 cg2d: Sum(rhs),rhsMax =   1.30295207956266E-09  1.44310740807056E-02
 cg2d: Sum(rhs),rhsMax =   1.30300677192441E-09  1.44309146666232E-02
 cg2d: Sum(rhs),rhsMax =   1.30307299672783E-09  1.44307559641385E-02
 cg2d: Sum(rhs),rhsMax =   1.30313840274177E-09  1.44305979500798E-02
 cg2d: Sum(rhs),rhsMax =   1.30319260938094E-09  1.44304405934524E-02
 cg2d: Sum(rhs),rhsMax =   1.30324881442156E-09  1.44302838610099E-02
 cg2d: Sum(rhs),rhsMax =   1.30329810832386E-09  1.44301277153227E-02
 cg2d: Sum(rhs),rhsMax =   1.30335242598534E-09  1.44299721142892E-02
 cg2d: Sum(rhs),rhsMax =   1.30340419013386E-09  1.44298170102345E-02
 cg2d: Sum(rhs),rhsMax =   1.30345854942870E-09  1.44296623568696E-02
 cg2d: Sum(rhs),rhsMax =   1.30352702243375E-09  1.44295080996389E-02
 cg2d: Sum(rhs),rhsMax =   1.30358526750918E-09  1.44293541843890E-02
 cg2d: Sum(rhs),rhsMax =   1.30364877226619E-09  1.44292005508296E-02
 cg2d: Sum(rhs),rhsMax =   1.30370446382866E-09  1.44290471398877E-02
 cg2d: Sum(rhs),rhsMax =   1.30375243934111E-09  1.44288938861691E-02
 cg2d: Sum(rhs),rhsMax =   1.30382174501342E-09  1.44287407274570E-02
 cg2d: Sum(rhs),rhsMax =   1.30389256336461E-09  1.44285875974728E-02
 cg2d: Sum(rhs),rhsMax =   1.30394318953453E-09  1.44284344266943E-02
 cg2d: Sum(rhs),rhsMax =   1.30399022135741E-09  1.44282811484171E-02
 cg2d: Sum(rhs),rhsMax =   1.30404650966476E-09  1.44281276924067E-02
 cg2d: Sum(rhs),rhsMax =   1.30408313314678E-09  1.44279739933787E-02
 cg2d: Sum(rhs),rhsMax =   1.30415492294311E-09  1.44278199794797E-02
 cg2d: Sum(rhs),rhsMax =   1.30421043409434E-09  1.44276655853281E-02
 cg2d: Sum(rhs),rhsMax =   1.30429182731984E-09  1.44275107444364E-02
 cg2d: Sum(rhs),rhsMax =   1.30434825440506E-09  1.44273553916381E-02
 cg2d: Sum(rhs),rhsMax =   1.30441203671783E-09  1.44271994627023E-02
 cg2d: Sum(rhs),rhsMax =   1.30448715718323E-09  1.44270428973923E-02
 cg2d: Sum(rhs),rhsMax =   1.30453900459848E-09  1.44268856380375E-02
 cg2d: Sum(rhs),rhsMax =   1.30461470793097E-09  1.44267276240631E-02
 cg2d: Sum(rhs),rhsMax =   1.30467828207692E-09  1.44265688067433E-02
 cg2d: Sum(rhs),rhsMax =   1.30473536141817E-09  1.44264091366184E-02
 cg2d: Sum(rhs),rhsMax =   1.30479030358011E-09  1.44262485652096E-02
 cg2d: Sum(rhs),rhsMax =   1.30486224603210E-09  1.44260870508014E-02
 cg2d: Sum(rhs),rhsMax =   1.30492276706473E-09  1.44259245540295E-02
 cg2d: Sum(rhs),rhsMax =   1.30499518136151E-09  1.44257610431176E-02
 cg2d: Sum(rhs),rhsMax =   1.30506060125324E-09  1.44255964816030E-02
 cg2d: Sum(rhs),rhsMax =   1.30512274598704E-09  1.44254308507349E-02
 cg2d: Sum(rhs),rhsMax =   1.30518051921769E-09  1.44252641338686E-02
 cg2d: Sum(rhs),rhsMax =   1.30525128205772E-09  1.44250962987701E-02
 cg2d: Sum(rhs),rhsMax =   1.30529666242385E-09  1.44249273367222E-02
 cg2d: Sum(rhs),rhsMax =   1.30535031395151E-09  1.44247572425654E-02
 cg2d: Sum(rhs),rhsMax =   1.30541091825087E-09  1.44245860138176E-02
 cg2d: Sum(rhs),rhsMax =   1.30547329890707E-09  1.44244136502643E-02
 cg2d: Sum(rhs),rhsMax =   1.30552678390128E-09  1.44242401573589E-02
 Computing Diagnostic #    26 "THETA   " (list#  1) Parms "SMR     MR      ", Count=     144
 Computing Diagnostic #    27 "SALT    " (list#  1) Parms "SMR     MR      ", Count=     144
 Computing Diagnostic #    30 "UVEL    " (list#  1) Parms "UUR     MR      ", Count=     144
             Vector  Mate for "UVEL    " :  Diagnostic #     31 "VVEL    " exists
 Computing Diagnostic #    32 "WVEL    " (list#  1) Parms "WM      LR      ", Count=     144
 Computing Diagnostic #    31 "VVEL    " (list#  1) Parms "VVR     MR      ", Count=     144
             Vector  Mate for "VVEL    " :  Diagnostic #     30 "UVEL    " exists
 Computing Diagnostic #   197 "BRGfwFlx" (list#  2) Parms "SM      MR      ", Count=     144
 Computing Diagnostic #   198 "BRGhtFlx" (list#  2) Parms "SM      MR      ", Count=     144
 Computing Diagnostic #   199 "BRGmltRt" (list#  2) Parms "SM      MR      ", Count=     144
 Computing Diagnostic #   201 "BRG_TauX" (list#  2) Parms "UU      MR      ", Count=    1728
 Computing Diagnostic #   202 "BRG_TauY" (list#  2) Parms "VV      MR      ", Count=    1728
 Computing Diagnostic #   203 "BRGhFacC" (list#  2) Parms "SM      MR      ", Count=    1728
 cg2d: Sum(rhs),rhsMax =   1.30558977518014E-09  1.44240655445554E-02
 cg2d: Sum(rhs),rhsMax =   1.30564330180771E-09  1.44238898666809E-02
 cg2d: Sum(rhs),rhsMax =   1.30570644574224E-09  1.44237131190363E-02
 cg2d: Sum(rhs),rhsMax =   1.30577378076868E-09  1.44235354008157E-02
 cg2d: Sum(rhs),rhsMax =   1.30583824309305E-09  1.44233567561563E-02
 cg2d: Sum(rhs),rhsMax =   1.30589386526658E-09  1.44231772339921E-02
 cg2d: Sum(rhs),rhsMax =   1.30595514957754E-09  1.44229968924062E-02
 cg2d: Sum(rhs),rhsMax =   1.30602731407414E-09  1.44228157921339E-02
 cg2d: Sum(rhs),rhsMax =   1.30608561466072E-09  1.44226339913185E-02
 cg2d: Sum(rhs),rhsMax =   1.30614949411800E-09  1.44224515496834E-02
 cg2d: Sum(rhs),rhsMax =   1.30619685900779E-09  1.44222685285038E-02
 cg2d: Sum(rhs),rhsMax =   1.30625017746855E-09  1.44220849857747E-02
 cg2d: Sum(rhs),rhsMax =   1.30630714578750E-09  1.44219009806388E-02
 cg2d: Sum(rhs),rhsMax =   1.30637496653652E-09  1.44217165723390E-02
 cg2d: Sum(rhs),rhsMax =   1.30644323137474E-09  1.44215318179151E-02
 cg2d: Sum(rhs),rhsMax =   1.30650126828336E-09  1.44213467738975E-02
 cg2d: Sum(rhs),rhsMax =   1.30656697960863E-09  1.44211614919534E-02
 cg2d: Sum(rhs),rhsMax =   1.30663142805520E-09  1.44209760238579E-02
 cg2d: Sum(rhs),rhsMax =   1.30669451647858E-09  1.44207904199329E-02
 cg2d: Sum(rhs),rhsMax =   1.30676124088236E-09  1.44206047256832E-02
 cg2d: Sum(rhs),rhsMax =   1.30681701571156E-09  1.44204189860601E-02
 cg2d: Sum(rhs),rhsMax =   1.30688534993872E-09  1.44202332402064E-02
 cg2d: Sum(rhs),rhsMax =   1.30694643996065E-09  1.44200475266048E-02
 cg2d: Sum(rhs),rhsMax =   1.30700525402538E-09  1.44198618795873E-02
 cg2d: Sum(rhs),rhsMax =   1.30707709933287E-09  1.44196763313930E-02
 cg2d: Sum(rhs),rhsMax =   1.30713347090694E-09  1.44194909080332E-02
 cg2d: Sum(rhs),rhsMax =   1.30720168023402E-09  1.44193056352182E-02
 cg2d: Sum(rhs),rhsMax =   1.30725781588570E-09  1.44191205346459E-02
 cg2d: Sum(rhs),rhsMax =   1.30732621950180E-09  1.44189356228983E-02
 cg2d: Sum(rhs),rhsMax =   1.30737590198216E-09  1.44187509125589E-02
 cg2d: Sum(rhs),rhsMax =   1.30742966453212E-09  1.44185664175545E-02
 cg2d: Sum(rhs),rhsMax =   1.30750105187261E-09  1.44183821451651E-02
 cg2d: Sum(rhs),rhsMax =   1.30756155902745E-09  1.44181980966993E-02
 cg2d: Sum(rhs),rhsMax =   1.30761469707696E-09  1.44180142768370E-02
 cg2d: Sum(rhs),rhsMax =   1.30767739692228E-09  1.44178306820232E-02
 cg2d: Sum(rhs),rhsMax =   1.30774170659098E-09  1.44176473090428E-02
 cg2d: Sum(rhs),rhsMax =   1.30781342699837E-09  1.44174641493969E-02
 cg2d: Sum(rhs),rhsMax =   1.30787630725493E-09  1.44172811950857E-02
 cg2d: Sum(rhs),rhsMax =   1.30794282349189E-09  1.44170984361066E-02
 cg2d: Sum(rhs),rhsMax =   1.30799748809807E-09  1.44169158554008E-02
 cg2d: Sum(rhs),rhsMax =   1.30806566966957E-09  1.44167334415727E-02
 cg2d: Sum(rhs),rhsMax =   1.30811977916423E-09  1.44165511761453E-02
 cg2d: Sum(rhs),rhsMax =   1.30816746324314E-09  1.44163690424528E-02
 cg2d: Sum(rhs),rhsMax =   1.30821888044697E-09  1.44161870226888E-02
 cg2d: Sum(rhs),rhsMax =   1.30828509137260E-09  1.44160050974482E-02
 cg2d: Sum(rhs),rhsMax =   1.30835563216802E-09  1.44158232458305E-02
 cg2d: Sum(rhs),rhsMax =   1.30840803469479E-09  1.44156414503200E-02
 cg2d: Sum(rhs),rhsMax =   1.30848482049473E-09  1.44154597065808E-02
 cg2d: Sum(rhs),rhsMax =   1.30852270685544E-09  1.44152779824423E-02
 cg2d: Sum(rhs),rhsMax =   1.30859938163308E-09  1.44150962486076E-02
 cg2d: Sum(rhs),rhsMax =   1.30866112391104E-09  1.44149144911686E-02
 cg2d: Sum(rhs),rhsMax =   1.30871995185355E-09  1.44147326990415E-02
 cg2d: Sum(rhs),rhsMax =   1.30878011206370E-09  1.44145508567410E-02
 cg2d: Sum(rhs),rhsMax =   1.30884700300093E-09  1.44143689543001E-02
 cg2d: Sum(rhs),rhsMax =   1.30891114613618E-09  1.44141869798765E-02
 cg2d: Sum(rhs),rhsMax =   1.30897188921342E-09  1.44140049229650E-02
 cg2d: Sum(rhs),rhsMax =   1.30903393680271E-09  1.44138227787303E-02
 cg2d: Sum(rhs),rhsMax =   1.30909134921087E-09  1.44136405421456E-02
 cg2d: Sum(rhs),rhsMax =   1.30916637253176E-09  1.44134582098368E-02
 cg2d: Sum(rhs),rhsMax =   1.30922345187301E-09  1.44132757830901E-02
 cg2d: Sum(rhs),rhsMax =   1.30929493635801E-09  1.44130932632695E-02
 cg2d: Sum(rhs),rhsMax =   1.30934763031831E-09  1.44129106565533E-02
 cg2d: Sum(rhs),rhsMax =   1.30941149589781E-09  1.44127279706963E-02
 cg2d: Sum(rhs),rhsMax =   1.30948357712768E-09  1.44125452160978E-02
 cg2d: Sum(rhs),rhsMax =   1.30954801169647E-09  1.44123624086050E-02
 cg2d: Sum(rhs),rhsMax =   1.30960572941596E-09  1.44121795637602E-02
 cg2d: Sum(rhs),rhsMax =   1.30966193445659E-09  1.44119967021565E-02
 cg2d: Sum(rhs),rhsMax =   1.30972449552402E-09  1.44118138455694E-02
 cg2d: Sum(rhs),rhsMax =   1.30978711210261E-09  1.44116310191047E-02
 cg2d: Sum(rhs),rhsMax =   1.30984882662499E-09  1.44114482518650E-02
 cg2d: Sum(rhs),rhsMax =   1.30990672475573E-09  1.44112655723984E-02
 cg2d: Sum(rhs),rhsMax =   1.30995574110226E-09  1.44110830141600E-02
 cg2d: Sum(rhs),rhsMax =   1.31002073078257E-09  1.44109006102815E-02
 cg2d: Sum(rhs),rhsMax =   1.31007045489628E-09  1.44107183974415E-02
 cg2d: Sum(rhs),rhsMax =   1.31012962978350E-09  1.44105364138108E-02
 cg2d: Sum(rhs),rhsMax =   1.31019806115518E-09  1.44103546995078E-02
 cg2d: Sum(rhs),rhsMax =   1.31025426619580E-09  1.44101732922510E-02
 cg2d: Sum(rhs),rhsMax =   1.31031629990730E-09  1.44099922378074E-02
 cg2d: Sum(rhs),rhsMax =   1.31038052630927E-09  1.44098115775844E-02
 cg2d: Sum(rhs),rhsMax =   1.31043627338290E-09  1.44096313549070E-02
 cg2d: Sum(rhs),rhsMax =   1.31048756568664E-09  1.44094516139970E-02
 cg2d: Sum(rhs),rhsMax =   1.31055645502531E-09  1.44092723982316E-02
 cg2d: Sum(rhs),rhsMax =   1.31060917674120E-09  1.44090937535388E-02
 cg2d: Sum(rhs),rhsMax =   1.31066968389604E-09  1.44089157224903E-02
 cg2d: Sum(rhs),rhsMax =   1.31073055187336E-09  1.44087383482972E-02
 cg2d: Sum(rhs),rhsMax =   1.31078282950003E-09  1.44085616737970E-02
 cg2d: Sum(rhs),rhsMax =   1.31085019228205E-09  1.44083857409712E-02
 cg2d: Sum(rhs),rhsMax =   1.31091339172773E-09  1.44082105885925E-02
 cg2d: Sum(rhs),rhsMax =   1.31097388500478E-09  1.44080362563418E-02
 cg2d: Sum(rhs),rhsMax =   1.31104645195723E-09  1.44078627809286E-02
 cg2d: Sum(rhs),rhsMax =   1.31111579926291E-09  1.44076901961103E-02
 cg2d: Sum(rhs),rhsMax =   1.31117404433834E-09  1.44075185361390E-02
 cg2d: Sum(rhs),rhsMax =   1.31122591950916E-09  1.44073478309116E-02
 cg2d: Sum(rhs),rhsMax =   1.31128427560689E-09  1.44071781066227E-02
 cg2d: Sum(rhs),rhsMax =   1.31134240966002E-09  1.44070093895020E-02
 cg2d: Sum(rhs),rhsMax =   1.31139653303247E-09  1.44068417016312E-02
 cg2d: Sum(rhs),rhsMax =   1.31145169723901E-09  1.44066750625904E-02
 cg2d: Sum(rhs),rhsMax =   1.31151411952857E-09  1.44065094868457E-02
 cg2d: Sum(rhs),rhsMax =   1.31158746363713E-09  1.44063449897936E-02
 cg2d: Sum(rhs),rhsMax =   1.31165268923983E-09  1.44061815796355E-02
 cg2d: Sum(rhs),rhsMax =   1.31170926898072E-09  1.44060192633526E-02
 cg2d: Sum(rhs),rhsMax =   1.31176712547809E-09  1.44058580424282E-02
 cg2d: Sum(rhs),rhsMax =   1.31183351681496E-09  1.44056979188274E-02
 cg2d: Sum(rhs),rhsMax =   1.31190386332136E-09  1.44055388873678E-02
 cg2d: Sum(rhs),rhsMax =   1.31195719565991E-09  1.44053809415992E-02
 cg2d: Sum(rhs),rhsMax =   1.31202743114400E-09  1.44052240693961E-02
 cg2d: Sum(rhs),rhsMax =   1.31210110831947E-09  1.44050682583246E-02
 cg2d: Sum(rhs),rhsMax =   1.31215383003536E-09  1.44049134906559E-02
 cg2d: Sum(rhs),rhsMax =   1.31222130383968E-09  1.44047597458040E-02
 cg2d: Sum(rhs),rhsMax =   1.31226209065805E-09  1.44046070019749E-02
 cg2d: Sum(rhs),rhsMax =   1.31233253430896E-09  1.44044552311437E-02
 cg2d: Sum(rhs),rhsMax =   1.31237805345297E-09  1.44043044060231E-02
 cg2d: Sum(rhs),rhsMax =   1.31245102286126E-09  1.44041544937460E-02
 cg2d: Sum(rhs),rhsMax =   1.31250046941922E-09  1.44040054618528E-02
 cg2d: Sum(rhs),rhsMax =   1.31255199764535E-09  1.44038572732383E-02
 cg2d: Sum(rhs),rhsMax =   1.31259868252354E-09  1.44037098888044E-02
 cg2d: Sum(rhs),rhsMax =   1.31266301994781E-09  1.44035632698298E-02
 cg2d: Sum(rhs),rhsMax =   1.31271093994911E-09  1.44034173719040E-02
 cg2d: Sum(rhs),rhsMax =   1.31278084236630E-09  1.44032721527755E-02
 cg2d: Sum(rhs),rhsMax =   1.31284236259965E-09  1.44031275673728E-02
 cg2d: Sum(rhs),rhsMax =   1.31290400773310E-09  1.44029835694123E-02
 cg2d: Sum(rhs),rhsMax =   1.31297436811728E-09  1.44028401101925E-02
 cg2d: Sum(rhs),rhsMax =   1.31302922701249E-09  1.44026971433419E-02
 cg2d: Sum(rhs),rhsMax =   1.31308430795229E-09  1.44025546207941E-02
 cg2d: Sum(rhs),rhsMax =   1.31313857010262E-09  1.44024124930364E-02
 cg2d: Sum(rhs),rhsMax =   1.31319716212275E-09  1.44022707109664E-02
 cg2d: Sum(rhs),rhsMax =   1.31324774665931E-09  1.44021292271327E-02
 cg2d: Sum(rhs),rhsMax =   1.31329641606115E-09  1.44019879923539E-02
 cg2d: Sum(rhs),rhsMax =   1.31336311270935E-09  1.44018469594548E-02
 cg2d: Sum(rhs),rhsMax =   1.31341183762235E-09  1.44017060813122E-02
 cg2d: Sum(rhs),rhsMax =   1.31348185106184E-09  1.44015653119666E-02
 cg2d: Sum(rhs),rhsMax =   1.31352061172318E-09  1.44014246066610E-02
 cg2d: Sum(rhs),rhsMax =   1.31357169586011E-09  1.44012839195539E-02
 cg2d: Sum(rhs),rhsMax =   1.31362243305233E-09  1.44011432102974E-02
 cg2d: Sum(rhs),rhsMax =   1.31367444700103E-09  1.44010024376381E-02
 cg2d: Sum(rhs),rhsMax =   1.31373324718798E-09  1.44008615624090E-02
 cg2d: Sum(rhs),rhsMax =   1.31379529477726E-09  1.44007205472675E-02
 cg2d: Sum(rhs),rhsMax =   1.31385821666719E-09  1.44005793553011E-02
 cg2d: Sum(rhs),rhsMax =   1.31390090474248E-09  1.44004379549414E-02
 cg2d: Sum(rhs),rhsMax =   1.31395792857258E-09  1.44002963137201E-02
 cg2d: Sum(rhs),rhsMax =   1.31402387582025E-09  1.44001544026302E-02
 cg2d: Sum(rhs),rhsMax =   1.31407792980376E-09  1.44000121944988E-02
 cg2d: Sum(rhs),rhsMax =   1.31413681325743E-09  1.43998696638636E-02
 cg2d: Sum(rhs),rhsMax =   1.31419518323295E-09  1.43997267890020E-02
(PID.TID 0000.0001)      cg2d_init_res =   5.74637894107314E-05
(PID.TID 0000.0001)      cg2d_iters(min,last) =      -1      38
(PID.TID 0000.0001)      cg2d_last_res =   7.69254743163864E-14
(PID.TID 0000.0001) // =======================================================
(PID.TID 0000.0001) // Begin MONITOR dynamic field statistics
(PID.TID 0000.0001) // =======================================================
(PID.TID 0000.0001) %MON time_tsnumber                =                 27648
(PID.TID 0000.0001) %MON time_secondsf                =   6.9120000000000E+05
(PID.TID 0000.0001) %MON dynstat_eta_max              =   4.7351101228117E-03
(PID.TID 0000.0001) %MON dynstat_eta_min              =  -2.3603873892005E-03
(PID.TID 0000.0001) %MON dynstat_eta_mean             =  -1.2672883996538E-13
(PID.TID 0000.0001) %MON dynstat_eta_sd               =   2.3855873533412E-03
(PID.TID 0000.0001) %MON dynstat_eta_del2             =   1.9291476254092E-05
(PID.TID 0000.0001) %MON dynstat_uvel_max             =   4.3870755850166E-02
(PID.TID 0000.0001) %MON dynstat_uvel_min             =  -4.5162798898411E-02
(PID.TID 0000.0001) %MON dynstat_uvel_mean            =   4.7903359228569E-09
(PID.TID 0000.0001) %MON dynstat_uvel_sd              =   6.6713439042517E-03
(PID.TID 0000.0001) %MON dynstat_uvel_del2            =   1.0137787643593E-04
(PID.TID 0000.0001) %MON dynstat_vvel_max             =   2.3624934879057E-02
(PID.TID 0000.0001) %MON dynstat_vvel_min             =  -3.4941010463326E-02
(PID.TID 0000.0001) %MON dynstat_vvel_mean            =  -8.0919745967684E-03
(PID.TID 0000.0001) %MON dynstat_vvel_sd              =   1.1595057689160E-02
(PID.TID 0000.0001) %MON dynstat_vvel_del2            =   9.1197657685215E-05
(PID.TID 0000.0001) %MON dynstat_wvel_max             =   1.3700462974333E-03
(PID.TID 0000.0001) %MON dynstat_wvel_min             =  -1.1434821783615E-03
(PID.TID 0000.0001) %MON dynstat_wvel_mean            =  -2.8579307982585E-22
(PID.TID 0000.0001) %MON dynstat_wvel_sd              =   1.2617399980797E-04
(PID.TID 0000.0001) %MON dynstat_wvel_del2            =   6.4566130354961E-06
(PID.TID 0000.0001) %MON dynstat_theta_max            =   2.6931451612903E+00
(PID.TID 0000.0001) %MON dynstat_theta_min            =  -7.3954008430774E-01
(PID.TID 0000.0001) %MON dynstat_theta_mean           =   2.2192210564434E+00
(PID.TID 0000.0001) %MON dynstat_theta_sd             =   5.3313781695943E-01
(PID.TID 0000.0001) %MON dynstat_theta_del2           =   1.6771520797657E-03
(PID.TID 0000.0001) %MON dynstat_salt_max             =   3.4699999999999E+01
(PID.TID 0000.0001) %MON dynstat_salt_min             =   3.3053854213710E+01
(PID.TID 0000.0001) %MON dynstat_salt_mean            =   3.4363978356943E+01
(PID.TID 0000.0001) %MON dynstat_salt_sd              =   3.2226493238468E-01
(PID.TID 0000.0001) %MON dynstat_salt_del2            =   1.9150099914348E-04
(PID.TID 0000.0001) %MON advcfl_uvel_max              =   2.2581399449205E-03
(PID.TID 0000.0001) %MON advcfl_vvel_max              =   1.7470505231663E-03
(PID.TID 0000.0001) %MON advcfl_wvel_max              =   6.6077613555822E-04
(PID.TID 0000.0001) %MON advcfl_W_hf_max              =   1.4110701765645E-03
(PID.TID 0000.0001) %MON pe_b_mean                    =   4.7482690575254E-08
(PID.TID 0000.0001) %MON ke_max                       =   9.9897943405053E-04
(PID.TID 0000.0001) %MON ke_mean                      =   1.1225235876945E-04
(PID.TID 0000.0001) %MON ke_vol                       =   3.2921708585402E+10
(PID.TID 0000.0001) // =======================================================
(PID.TID 0000.0001) // End MONITOR dynamic field statistics
(PID.TID 0000.0001) // =======================================================
(PID.TID 0000.0001) // =======================================================
(PID.TID 0000.0001) // Begin OBCS MONITOR field statistics
(PID.TID 0000.0001) // =======================================================
(PID.TID 0000.0001) %MON obc_E_uVel_max               =   0.0000000000000E+00
(PID.TID 0000.0001) %MON obc_E_uVel_min               =   0.0000000000000E+00
(PID.TID 0000.0001) %MON obc_E_uVel_mean              =   0.0000000000000E+00
(PID.TID 0000.0001) %MON obc_E_uVel_sd                =   0.0000000000000E+00
(PID.TID 0000.0001) %MON obc_E_uVel_Int               =   0.0000000000000E+00
(PID.TID 0000.0001) %MON obc_N_vVel_max               =  -3.6115799844846E-05
(PID.TID 0000.0001) %MON obc_N_vVel_min               =  -3.0000000000000E-02
(PID.TID 0000.0001) %MON obc_N_vVel_mean              =  -1.3225455303334E-02
(PID.TID 0000.0001) %MON obc_N_vVel_sd                =   1.1350864292742E-02
(PID.TID 0000.0001) %MON obc_N_vVel_Int               =  -5.9514548865004E+04
(PID.TID 0000.0001) %MON obc_S_vVel_max               =  -3.6115799844846E-05
(PID.TID 0000.0001) %MON obc_S_vVel_min               =  -3.0000000000000E-02
(PID.TID 0000.0001) %MON obc_S_vVel_mean              =  -1.3225455303334E-02
(PID.TID 0000.0001) %MON obc_S_vVel_sd                =   1.1350864292742E-02
(PID.TID 0000.0001) %MON obc_S_vVel_Int               =  -5.9514548865004E+04
(PID.TID 0000.0001) // =======================================================
(PID.TID 0000.0001) // End OBCS MONITOR field statistics
(PID.TID 0000.0001) // =======================================================
 Computing Diagnostic #    26 "THETA   " (list#  1) Parms "SMR     MR      ", Count=     144
 Computing Diagnostic #    27 "SALT    " (list#  1) Parms "SMR     MR      ", Count=     144
 Computing Diagnostic #    30 "UVEL    " (list#  1) Parms "UUR     MR      ", Count=     144
             Vector  Mate for "UVEL    " :  Diagnostic #     31 "VVEL    " exists
 Computing Diagnostic #    32 "WVEL    " (list#  1) Parms "WM      LR      ", Count=     144
 Computing Diagnostic #    31 "VVEL    " (list#  1) Parms "VVR     MR      ", Count=     144
             Vector  Mate for "VVEL    " :  Diagnostic #     30 "UVEL    " exists
 Computing Diagnostic #   197 "BRGfwFlx" (list#  2) Parms "SM      MR      ", Count=     144
 Computing Diagnostic #   198 "BRGhtFlx" (list#  2) Parms "SM      MR      ", Count=     144
 Computing Diagnostic #   199 "BRGmltRt" (list#  2) Parms "SM      MR      ", Count=     144
 Computing Diagnostic #   201 "BRG_TauX" (list#  2) Parms "UU      MR      ", Count=    1728
 Computing Diagnostic #   202 "BRG_TauY" (list#  2) Parms "VV      MR      ", Count=    1728
 Computing Diagnostic #   203 "BRGhFacC" (list#  2) Parms "SM      MR      ", Count=    1728
(PID.TID 0000.0001) %CHECKPOINT     27648 0000027648
 cg2d: Sum(rhs),rhsMax =   1.31426181049221E-09  1.43995835492552E-02
 cg2d: Sum(rhs),rhsMax =   1.31432106864615E-09  1.43994399260223E-02
 cg2d: Sum(rhs),rhsMax =   1.31438525341476E-09  1.43992959047310E-02
 cg2d: Sum(rhs),rhsMax =   1.31444397033498E-09  1.43991514718213E-02
 cg2d: Sum(rhs),rhsMax =   1.31452435048196E-09  1.43990066137819E-02
 cg2d: Sum(rhs),rhsMax =   1.31456596996760E-09  1.43988613305051E-02
 cg2d: Sum(rhs),rhsMax =   1.31461690144885E-09  1.43987155909333E-02
 cg2d: Sum(rhs),rhsMax =   1.31468648467692E-09  1.43985442657575E-02
 cg2d: Sum(rhs),rhsMax =   1.31475363929212E-09  1.43982323343381E-02
 cg2d: Sum(rhs),rhsMax =   1.31481527054778E-09  1.43979191056849E-02
 cg2d: Sum(rhs),rhsMax =   1.31490246468857E-09  1.43976054855924E-02
 cg2d: Sum(rhs),rhsMax =   1.31498616162684E-09  1.43972909025253E-02
 cg2d: Sum(rhs),rhsMax =   1.31504904188340E-09  1.43969757709311E-02
 cg2d: Sum(rhs),rhsMax =   1.31510863310424E-09  1.43966602206260E-02
 cg2d: Sum(rhs),rhsMax =   1.31517843837692E-09  1.43963443462063E-02
 cg2d: Sum(rhs),rhsMax =   1.31525949853550E-09  1.43960282410011E-02
 cg2d: Sum(rhs),rhsMax =   1.31533058056466E-09  1.43957120161540E-02
 cg2d: Sum(rhs),rhsMax =   1.31541373626920E-09  1.43953957824412E-02
 cg2d: Sum(rhs),rhsMax =   1.31549683646259E-09  1.43950796411946E-02
 cg2d: Sum(rhs),rhsMax =   1.31555975835251E-09  1.43947636947253E-02
 cg2d: Sum(rhs),rhsMax =   1.31563888949859E-09  1.43944480427526E-02
 cg2d: Sum(rhs),rhsMax =   1.31571196992919E-09  1.43941327826035E-02
 cg2d: Sum(rhs),rhsMax =   1.31578793693965E-09  1.43938180082454E-02
 cg2d: Sum(rhs),rhsMax =   1.31586584684040E-09  1.43935038091504E-02
 cg2d: Sum(rhs),rhsMax =   1.31595205565826E-09  1.43931902679802E-02
 cg2d: Sum(rhs),rhsMax =   1.31601481101473E-09  1.43928774710696E-02
 cg2d: Sum(rhs),rhsMax =   1.31609483033923E-09  1.43925654994763E-02
 cg2d: Sum(rhs),rhsMax =   1.31617235166193E-09  1.43922544176146E-02
 cg2d: Sum(rhs),rhsMax =   1.31625391142087E-09  1.43919442961138E-02
 cg2d: Sum(rhs),rhsMax =   1.31631884559003E-09  1.43916351991032E-02
 cg2d: Sum(rhs),rhsMax =   1.31640526257470E-09  1.43913271845067E-02
 cg2d: Sum(rhs),rhsMax =   1.31648293655307E-09  1.43910203046456E-02
 cg2d: Sum(rhs),rhsMax =   1.31656462121210E-09  1.43907146048687E-02
 cg2d: Sum(rhs),rhsMax =   1.31663162317164E-09  1.43904101283251E-02
 cg2d: Sum(rhs),rhsMax =   1.31671940017952E-09  1.43901069087389E-02
 cg2d: Sum(rhs),rhsMax =   1.31677592440926E-09  1.43898049760234E-02
 cg2d: Sum(rhs),rhsMax =   1.31685284898708E-09  1.43895043566165E-02
 cg2d: Sum(rhs),rhsMax =   1.31693139726607E-09  1.43892050697024E-02
 cg2d: Sum(rhs),rhsMax =   1.31701102801252E-09  1.43889071273670E-02
 cg2d: Sum(rhs),rhsMax =   1.31707682260451E-09  1.43886105394115E-02
 cg2d: Sum(rhs),rhsMax =   1.31714560092089E-09  1.43883153074653E-02
 cg2d: Sum(rhs),rhsMax =   1.31721748786173E-09  1.43880214304217E-02
 cg2d: Sum(rhs),rhsMax =   1.31728493391048E-09  1.43877289028587E-02
 cg2d: Sum(rhs),rhsMax =   1.31736492547940E-09  1.43874377122942E-02
 cg2d: Sum(rhs),rhsMax =   1.31743287112851E-09  1.43871478418925E-02
 cg2d: Sum(rhs),rhsMax =   1.31750275966791E-09  1.43868592748075E-02
 cg2d: Sum(rhs),rhsMax =   1.31758713661778E-09  1.43865719848822E-02
 cg2d: Sum(rhs),rhsMax =   1.31765459654432E-09  1.43862859465488E-02
 cg2d: Sum(rhs),rhsMax =   1.31773654488132E-09  1.43860011281725E-02
 cg2d: Sum(rhs),rhsMax =   1.31781226209160E-09  1.43857174973873E-02
 cg2d: Sum(rhs),rhsMax =   1.31788724377913E-09  1.43854350179793E-02
 cg2d: Sum(rhs),rhsMax =   1.31796429325703E-09  1.43851536508460E-02
 cg2d: Sum(rhs),rhsMax =   1.31802702085793E-09  1.43848733573254E-02
 cg2d: Sum(rhs),rhsMax =   1.31810094783358E-09  1.43845940934630E-02
 cg2d: Sum(rhs),rhsMax =   1.31817917692345E-09  1.43843158171012E-02
 cg2d: Sum(rhs),rhsMax =   1.31824771931743E-09  1.43840384826995E-02
 cg2d: Sum(rhs),rhsMax =   1.31830804606103E-09  1.43837620457290E-02
 cg2d: Sum(rhs),rhsMax =   1.31838086281366E-09  1.43834864621968E-02
 cg2d: Sum(rhs),rhsMax =   1.31845652451279E-09  1.43832116820062E-02
 cg2d: Sum(rhs),rhsMax =   1.31852315177206E-09  1.43829376632766E-02
 cg2d: Sum(rhs),rhsMax =   1.31858626795101E-09  1.43826643599430E-02
 cg2d: Sum(rhs),rhsMax =   1.31865848795876E-09  1.43823917270194E-02
 cg2d: Sum(rhs),rhsMax =   1.31873290065698E-09  1.43821197220678E-02
 cg2d: Sum(rhs),rhsMax =   1.31879177023286E-09  1.43818483020549E-02
 cg2d: Sum(rhs),rhsMax =   1.31885706522450E-09  1.43815774266764E-02
 cg2d: Sum(rhs),rhsMax =   1.31892924359889E-09  1.43813070558394E-02
 cg2d: Sum(rhs),rhsMax =   1.31900118605088E-09  1.43810371548066E-02
 cg2d: Sum(rhs),rhsMax =   1.31906940925575E-09  1.43807676861852E-02
 cg2d: Sum(rhs),rhsMax =   1.31912905598774E-09  1.43804986171823E-02
 cg2d: Sum(rhs),rhsMax =   1.31919730694818E-09  1.43802299166250E-02
 cg2d: Sum(rhs),rhsMax =   1.31926547464190E-09  1.43799615564398E-02
 cg2d: Sum(rhs),rhsMax =   1.31933401703588E-09  1.43796935099543E-02
 cg2d: Sum(rhs),rhsMax =   1.31940698644417E-09  1.43794257531147E-02
 cg2d: Sum(rhs),rhsMax =   1.31947346104777E-09  1.43791587689724E-02
 cg2d: Sum(rhs),rhsMax =   1.31953548088148E-09  1.43788928123241E-02
 cg2d: Sum(rhs),rhsMax =   1.31960022076161E-09  1.43786278731475E-02
 cg2d: Sum(rhs),rhsMax =   1.31967484162665E-09  1.43783639424108E-02
 cg2d: Sum(rhs),rhsMax =   1.31975241846050E-09  1.43781010155700E-02
 cg2d: Sum(rhs),rhsMax =   1.31981479911669E-09  1.43778390892223E-02
 cg2d: Sum(rhs),rhsMax =   1.31987756835095E-09  1.43775781600619E-02
 cg2d: Sum(rhs),rhsMax =   1.31993840857270E-09  1.43773182280231E-02
 cg2d: Sum(rhs),rhsMax =   1.32001452823882E-09  1.43770592915891E-02
 cg2d: Sum(rhs),rhsMax =   1.32008283471041E-09  1.43768013531674E-02
 cg2d: Sum(rhs),rhsMax =   1.32015602616331E-09  1.43765444137234E-02
 cg2d: Sum(rhs),rhsMax =   1.32022842658230E-09  1.43762884783156E-02
 cg2d: Sum(rhs),rhsMax =   1.32032153266071E-09  1.43760335494758E-02
 cg2d: Sum(rhs),rhsMax =   1.32038001365853E-09  1.43757796313966E-02
 cg2d: Sum(rhs),rhsMax =   1.32044372658235E-09  1.43755267284742E-02
 cg2d: Sum(rhs),rhsMax =   1.32050941015205E-09  1.43752748472018E-02
 cg2d: Sum(rhs),rhsMax =   1.32057545454423E-09  1.43750239885130E-02
 cg2d: Sum(rhs),rhsMax =   1.32063973645735E-09  1.43747741584793E-02
 cg2d: Sum(rhs),rhsMax =   1.32069745417684E-09  1.43745253595782E-02
 cg2d: Sum(rhs),rhsMax =   1.32075436698464E-09  1.43742775979408E-02
 cg2d: Sum(rhs),rhsMax =   1.32082246528942E-09  1.43740308724813E-02
 cg2d: Sum(rhs),rhsMax =   1.32090914595206E-09  1.43737851838120E-02
 cg2d: Sum(rhs),rhsMax =   1.32098454397322E-09  1.43735405336664E-02
 cg2d: Sum(rhs),rhsMax =   1.32104968630919E-09  1.43732969197182E-02
 cg2d: Sum(rhs),rhsMax =   1.32112604189771E-09  1.43730543380188E-02
 cg2d: Sum(rhs),rhsMax =   1.32120092644072E-09  1.43728127850032E-02
 cg2d: Sum(rhs),rhsMax =   1.32127023211304E-09  1.43725721750099E-02
 cg2d: Sum(rhs),rhsMax =   1.32133244623578E-09  1.43723324220613E-02
 cg2d: Sum(rhs),rhsMax =   1.32139230113459E-09  1.43720935146597E-02
 cg2d: Sum(rhs),rhsMax =   1.32145736020384E-09  1.43718554400834E-02
 cg2d: Sum(rhs),rhsMax =   1.32151714571371E-09  1.43716181805937E-02
 cg2d: Sum(rhs),rhsMax =   1.32157337850991E-09  1.43713817151116E-02
 cg2d: Sum(rhs),rhsMax =   1.32164808264168E-09  1.43711460194016E-02
 cg2d: Sum(rhs),rhsMax =   1.32171358580013E-09  1.43709110700477E-02
 cg2d: Sum(rhs),rhsMax =   1.32177946365886E-09  1.43706768392187E-02
 cg2d: Sum(rhs),rhsMax =   1.32183480827663E-09  1.43704432926801E-02
 cg2d: Sum(rhs),rhsMax =   1.32189921508985E-09  1.43702103997832E-02
 cg2d: Sum(rhs),rhsMax =   1.32196437130361E-09  1.43699781201590E-02
 cg2d: Sum(rhs),rhsMax =   1.32204154568161E-09  1.43697464171817E-02
 cg2d: Sum(rhs),rhsMax =   1.32209737602196E-09  1.43695152489167E-02
 cg2d: Sum(rhs),rhsMax =   1.32216392001450E-09  1.43692845714129E-02
 cg2d: Sum(rhs),rhsMax =   1.32223113014085E-09  1.43690543390731E-02
 cg2d: Sum(rhs),rhsMax =   1.32227929994233E-09  1.43688245041297E-02
 cg2d: Sum(rhs),rhsMax =   1.32234843908119E-09  1.43685950181634E-02
 cg2d: Sum(rhs),rhsMax =   1.32241601003003E-09  1.43683658307499E-02
 cg2d: Sum(rhs),rhsMax =   1.32248283157832E-09  1.43681368891725E-02
 cg2d: Sum(rhs),rhsMax =   1.32255453810792E-09  1.43679081417782E-02
 cg2d: Sum(rhs),rhsMax =   1.32261383789523E-09  1.43676795341160E-02
 cg2d: Sum(rhs),rhsMax =   1.32268031249883E-09  1.43674510124768E-02
 cg2d: Sum(rhs),rhsMax =   1.32274596831294E-09  1.43672225248017E-02
 cg2d: Sum(rhs),rhsMax =   1.32280791875772E-09  1.43669940151964E-02
 cg2d: Sum(rhs),rhsMax =   1.32285982168412E-09  1.43667654309783E-02
 cg2d: Sum(rhs),rhsMax =   1.32292914123422E-09  1.43665367179780E-02
 cg2d: Sum(rhs),rhsMax =   1.32298630384220E-09  1.43663078285131E-02
 cg2d: Sum(rhs),rhsMax =   1.32305832956092E-09  1.43660787072764E-02
 cg2d: Sum(rhs),rhsMax =   1.32312995282380E-09  1.43658493066949E-02
 cg2d: Sum(rhs),rhsMax =   1.32319023793404E-09  1.43656195796545E-02
 cg2d: Sum(rhs),rhsMax =   1.32325178592296E-09  1.43653894826624E-02
 cg2d: Sum(rhs),rhsMax =   1.32331856583789E-09  1.43651589699339E-02
 cg2d: Sum(rhs),rhsMax =   1.32339017522298E-09  1.43649280015372E-02
 cg2d: Sum(rhs),rhsMax =   1.32344658843042E-09  1.43646965406005E-02
 cg2d: Sum(rhs),rhsMax =   1.32349597947723E-09  1.43644645511298E-02
 cg2d: Sum(rhs),rhsMax =   1.32357401427807E-09  1.43642320023461E-02
 cg2d: Sum(rhs),rhsMax =   1.32363335569874E-09  1.43639988654452E-02
 cg2d: Sum(rhs),rhsMax =   1.32368518923620E-09  1.43637651147510E-02
 cg2d: Sum(rhs),rhsMax =   1.32375183037325E-09  1.43635307288290E-02
 cg2d: Sum(rhs),rhsMax =   1.32381587636399E-09  1.43632956896515E-02
 cg2d: Sum(rhs),rhsMax =   1.32388874862777E-09  1.43630599852762E-02
 cg2d: Sum(rhs),rhsMax =   1.32396034413507E-09  1.43628236041155E-02
 cg2d: Sum(rhs),rhsMax =   1.32403502051126E-09  1.43625865390891E-02
 cg2d: Sum(rhs),rhsMax =   1.32409017084001E-09  1.43623487890422E-02
 Computing Diagnostic #    26 "THETA   " (list#  1) Parms "SMR     MR      ", Count=     144
 Computing Diagnostic #    27 "SALT    " (list#  1) Parms "SMR     MR      ", Count=     144
 Computing Diagnostic #    30 "UVEL    " (list#  1) Parms "UUR     MR      ", Count=     144
             Vector  Mate for "UVEL    " :  Diagnostic #     31 "VVEL    " exists
 Computing Diagnostic #    32 "WVEL    " (list#  1) Parms "WM      LR      ", Count=     144
 Computing Diagnostic #    31 "VVEL    " (list#  1) Parms "VVR     MR      ", Count=     144
             Vector  Mate for "VVEL    " :  Diagnostic #     30 "UVEL    " exists
 Computing Diagnostic #   197 "BRGfwFlx" (list#  2) Parms "SM      MR      ", Count=     144
 Computing Diagnostic #   198 "BRGhtFlx" (list#  2) Parms "SM      MR      ", Count=     144
 Computing Diagnostic #   199 "BRGmltRt" (list#  2) Parms "SM      MR      ", Count=     144
 Computing Diagnostic #   201 "BRG_TauX" (list#  2) Parms "UU      MR      ", Count=    1728
 Computing Diagnostic #   202 "BRG_TauY" (list#  2) Parms "VV      MR      ", Count=    1728
 Computing Diagnostic #   203 "BRGhFacC" (list#  2) Parms "SM      MR      ", Count=    1728
 cg2d: Sum(rhs),rhsMax =   1.32415997611268E-09  1.43621103555220E-02
 cg2d: Sum(rhs),rhsMax =   1.32422868504012E-09  1.43618712442619E-02
 cg2d: Sum(rhs),rhsMax =   1.32429907317988E-09  1.43616314637202E-02
 cg2d: Sum(rhs),rhsMax =   1.32435809541143E-09  1.43613910275002E-02
 cg2d: Sum(rhs),rhsMax =   1.32442282141376E-09  1.43611499529399E-02
 cg2d: Sum(rhs),rhsMax =   1.32448230161231E-09  1.43609082598326E-02
 cg2d: Sum(rhs),rhsMax =   1.32454963663875E-09  1.43606659702144E-02
 cg2d: Sum(rhs),rhsMax =   1.32461876189982E-09  1.43604231147248E-02
 cg2d: Sum(rhs),rhsMax =   1.32468559732590E-09  1.43601797205151E-02
 cg2d: Sum(rhs),rhsMax =   1.32474806124883E-09  1.43599358217603E-02
 cg2d: Sum(rhs),rhsMax =   1.32481349501834E-09  1.43596914527786E-02
 cg2d: Sum(rhs),rhsMax =   1.32490160509313E-09  1.43594466529230E-02
 cg2d: Sum(rhs),rhsMax =   1.32497640636942E-09  1.43592014598062E-02
 cg2d: Sum(rhs),rhsMax =   1.32503333305500E-09  1.43589559176158E-02
 cg2d: Sum(rhs),rhsMax =   1.32509786476831E-09  1.43587100666269E-02
 cg2d: Sum(rhs),rhsMax =   1.32515909356812E-09  1.43584639522435E-02
 cg2d: Sum(rhs),rhsMax =   1.32522798290680E-09  1.43582176216222E-02
 cg2d: Sum(rhs),rhsMax =   1.32529226481992E-09  1.43579711188431E-02
 cg2d: Sum(rhs),rhsMax =   1.32536856489729E-09  1.43577244896680E-02
 cg2d: Sum(rhs),rhsMax =   1.32544375475163E-09  1.43574777808511E-02
 cg2d: Sum(rhs),rhsMax =   1.32550485865135E-09  1.43572310374003E-02
 cg2d: Sum(rhs),rhsMax =   1.32555949550195E-09  1.43569843043767E-02
 cg2d: Sum(rhs),rhsMax =   1.32563973687105E-09  1.43567376256726E-02
 cg2d: Sum(rhs),rhsMax =   1.32570281141664E-09  1.43564910435091E-02
 cg2d: Sum(rhs),rhsMax =   1.32576963296493E-09  1.43562445991073E-02
 cg2d: Sum(rhs),rhsMax =   1.32583666268005E-09  1.43559983305514E-02
 cg2d: Sum(rhs),rhsMax =   1.32589976498121E-09  1.43557522730584E-02
 cg2d: Sum(rhs),rhsMax =   1.32598335089718E-09  1.43555064629710E-02
 cg2d: Sum(rhs),rhsMax =   1.32603165947653E-09  1.43552609279439E-02
 cg2d: Sum(rhs),rhsMax =   1.32610587788573E-09  1.43550156976574E-02
 cg2d: Sum(rhs),rhsMax =   1.32617608561425E-09  1.43547707963941E-02
 cg2d: Sum(rhs),rhsMax =   1.32623816095911E-09  1.43545262434620E-02
 cg2d: Sum(rhs),rhsMax =   1.32630287308366E-09  1.43542820556431E-02
 cg2d: Sum(rhs),rhsMax =   1.32637115179968E-09  1.43540382456375E-02
 cg2d: Sum(rhs),rhsMax =   1.32644349670752E-09  1.43537948246643E-02
 cg2d: Sum(rhs),rhsMax =   1.32651271911310E-09  1.43535517924518E-02
 cg2d: Sum(rhs),rhsMax =   1.32657156093341E-09  1.43533091506091E-02
 cg2d: Sum(rhs),rhsMax =   1.32664242091796E-09  1.43530668951181E-02
 cg2d: Sum(rhs),rhsMax =   1.32670635588639E-09  1.43528250168495E-02
 cg2d: Sum(rhs),rhsMax =   1.32677618891464E-09  1.43525834995563E-02
 cg2d: Sum(rhs),rhsMax =   1.32682760611846E-09  1.43523423244771E-02
 cg2d: Sum(rhs),rhsMax =   1.32689223497628E-09  1.43521014695670E-02
 cg2d: Sum(rhs),rhsMax =   1.32694574772607E-09  1.43518609061137E-02
 cg2d: Sum(rhs),rhsMax =   1.32702705768484E-09  1.43516206009816E-02
 cg2d: Sum(rhs),rhsMax =   1.32709397637765E-09  1.43513805157716E-02
 cg2d: Sum(rhs),rhsMax =   1.32715960443619E-09  1.43511406110216E-02
 cg2d: Sum(rhs),rhsMax =   1.32722771661875E-09  1.43509008388154E-02
 cg2d: Sum(rhs),rhsMax =   1.32729209567639E-09  1.43506611487073E-02
 cg2d: Sum(rhs),rhsMax =   1.32736155400437E-09  1.43504214878390E-02
 cg2d: Sum(rhs),rhsMax =   1.32743489811293E-09  1.43501817983755E-02
 cg2d: Sum(rhs),rhsMax =   1.32749321257730E-09  1.43499420179655E-02
 cg2d: Sum(rhs),rhsMax =   1.32757874138356E-09  1.43497020822991E-02
 cg2d: Sum(rhs),rhsMax =   1.32762115190310E-09  1.43494619229947E-02
 cg2d: Sum(rhs),rhsMax =   1.32768251948079E-09  1.43492214720145E-02
 cg2d: Sum(rhs),rhsMax =   1.32775497541093E-09  1.43489806543428E-02
 cg2d: Sum(rhs),rhsMax =   1.32781309558627E-09  1.43487393953548E-02
 cg2d: Sum(rhs),rhsMax =   1.32786788509254E-09  1.43484976191839E-02
 cg2d: Sum(rhs),rhsMax =   1.32794207574616E-09  1.43482552464214E-02
 cg2d: Sum(rhs),rhsMax =   1.32801404595373E-09  1.43480121980309E-02
 cg2d: Sum(rhs),rhsMax =   1.32807188857331E-09  1.43477683953515E-02
 cg2d: Sum(rhs),rhsMax =   1.32813561537493E-09  1.43475237554902E-02
 cg2d: Sum(rhs),rhsMax =   1.32822017273604E-09  1.43472781990456E-02
 cg2d: Sum(rhs),rhsMax =   1.32828839594090E-09  1.43470316450055E-02
 cg2d: Sum(rhs),rhsMax =   1.32834790389502E-09  1.43467840132292E-02
 cg2d: Sum(rhs),rhsMax =   1.32841480871004E-09  1.43465352256662E-02
 cg2d: Sum(rhs),rhsMax =   1.32848014533504E-09  1.43462852031244E-02
 cg2d: Sum(rhs),rhsMax =   1.32853907042207E-09  1.43460338712618E-02
 cg2d: Sum(rhs),rhsMax =   1.32860208945651E-09  1.43457811546403E-02
 cg2d: Sum(rhs),rhsMax =   1.32867782054458E-09  1.43455269808253E-02
 cg2d: Sum(rhs),rhsMax =   1.32874715397246E-09  1.43452712827310E-02
 cg2d: Sum(rhs),rhsMax =   1.32881169956356E-09  1.43450139919398E-02
 cg2d: Sum(rhs),rhsMax =   1.32887896520106E-09  1.43447550449984E-02
 cg2d: Sum(rhs),rhsMax =   1.32894965865216E-09  1.43444943829843E-02
 cg2d: Sum(rhs),rhsMax =   1.32900623839305E-09  1.43442319482023E-02
 cg2d: Sum(rhs),rhsMax =   1.32906878558270E-09  1.43439676900328E-02
 cg2d: Sum(rhs),rhsMax =   1.32912955641551E-09  1.43437015578043E-02
 cg2d: Sum(rhs),rhsMax =   1.32918577533392E-09  1.43434335077184E-02
 cg2d: Sum(rhs),rhsMax =   1.32925294382691E-09  1.43431635010156E-02
 cg2d: Sum(rhs),rhsMax =   1.32931503304956E-09  1.43428915002034E-02
 cg2d: Sum(rhs),rhsMax =   1.32939299846146E-09  1.43426174741814E-02
 cg2d: Sum(rhs),rhsMax =   1.32946273434520E-09  1.43423413991589E-02
 cg2d: Sum(rhs),rhsMax =   1.32954719456180E-09  1.43420632531973E-02
 cg2d: Sum(rhs),rhsMax =   1.32961876231352E-09  1.43417830181904E-02
 cg2d: Sum(rhs),rhsMax =   1.32968959454249E-09  1.43415006814534E-02
 cg2d: Sum(rhs),rhsMax =   1.32976367417381E-09  1.43412162367541E-02
 cg2d: Sum(rhs),rhsMax =   1.32983103695583E-09  1.43409296810269E-02
 cg2d: Sum(rhs),rhsMax =   1.32990844725622E-09  1.43406410186500E-02
 cg2d: Sum(rhs),rhsMax =   1.32996923196682E-09  1.43403502540090E-02
 cg2d: Sum(rhs),rhsMax =   1.33004136870785E-09  1.43400574000533E-02
 cg2d: Sum(rhs),rhsMax =   1.33011807124106E-09  1.43397624729197E-02
 cg2d: Sum(rhs),rhsMax =   1.33017490078213E-09  1.43394654908216E-02
 cg2d: Sum(rhs),rhsMax =   1.33024982695851E-09  1.43391664791004E-02
 cg2d: Sum(rhs),rhsMax =   1.33032580784676E-09  1.43388654658310E-02
 cg2d: Sum(rhs),rhsMax =   1.33039626537546E-09  1.43385624821412E-02
 cg2d: Sum(rhs),rhsMax =   1.33046361427969E-09  1.43382575627930E-02
 cg2d: Sum(rhs),rhsMax =   1.33054271767019E-09  1.43379507470211E-02
 cg2d: Sum(rhs),rhsMax =   1.33061675566815E-09  1.43376420751298E-02
 cg2d: Sum(rhs),rhsMax =   1.33068782381951E-09  1.43373315921020E-02
 cg2d: Sum(rhs),rhsMax =   1.33076213937322E-09  1.43370193451005E-02
 cg2d: Sum(rhs),rhsMax =   1.33085138742661E-09  1.43367053823829E-02
 cg2d: Sum(rhs),rhsMax =   1.33092165066628E-09  1.43363897561812E-02
 cg2d: Sum(rhs),rhsMax =   1.33100371002559E-09  1.43360725183585E-02
 cg2d: Sum(rhs),rhsMax =   1.33108174482643E-09  1.43357537234047E-02
 cg2d: Sum(rhs),rhsMax =   1.33114386180466E-09  1.43354334258493E-02
 cg2d: Sum(rhs),rhsMax =   1.33122066148239E-09  1.43351116828212E-02
 cg2d: Sum(rhs),rhsMax =   1.33130202695231E-09  1.43347885513438E-02
 cg2d: Sum(rhs),rhsMax =   1.33137770252922E-09  1.43344640889251E-02
 cg2d: Sum(rhs),rhsMax =   1.33145006131485E-09  1.43341383526432E-02
 cg2d: Sum(rhs),rhsMax =   1.33153296721922E-09  1.43338113985433E-02
 cg2d: Sum(rhs),rhsMax =   1.33160511783803E-09  1.43334832853545E-02
 cg2d: Sum(rhs),rhsMax =   1.33168596982980E-09  1.43331540680202E-02
 cg2d: Sum(rhs),rhsMax =   1.33176071559493E-09  1.43328238017189E-02
 cg2d: Sum(rhs),rhsMax =   1.33182426198530E-09  1.43324925421135E-02
 cg2d: Sum(rhs),rhsMax =   1.33190461437671E-09  1.43321603408428E-02
 cg2d: Sum(rhs),rhsMax =   1.33197984586442E-09  1.43318272491333E-02
 cg2d: Sum(rhs),rhsMax =   1.33205042829321E-09  1.43314933180898E-02
 cg2d: Sum(rhs),rhsMax =   1.33212096908863E-09  1.43311585950827E-02
 cg2d: Sum(rhs),rhsMax =   1.33217874231928E-09  1.43308231257801E-02
 cg2d: Sum(rhs),rhsMax =   1.33226026044486E-09  1.43304869564967E-02
 cg2d: Sum(rhs),rhsMax =   1.33233338250882E-09  1.43301501267537E-02
 cg2d: Sum(rhs),rhsMax =   1.33241194466560E-09  1.43298126788636E-02
 cg2d: Sum(rhs),rhsMax =   1.33249312972428E-09  1.43294746481951E-02
 cg2d: Sum(rhs),rhsMax =   1.33257432866074E-09  1.43291360716786E-02
 cg2d: Sum(rhs),rhsMax =   1.33265941337779E-09  1.43287969827431E-02
 cg2d: Sum(rhs),rhsMax =   1.33272889946134E-09  1.43284574093798E-02
 cg2d: Sum(rhs),rhsMax =   1.33280492198296E-09  1.43281173826629E-02
 cg2d: Sum(rhs),rhsMax =   1.33288323433955E-09  1.43277769287120E-02
 cg2d: Sum(rhs),rhsMax =   1.33294675297435E-09  1.43274360697989E-02
 cg2d: Sum(rhs),rhsMax =   1.33302709148797E-09  1.43270948290736E-02
 cg2d: Sum(rhs),rhsMax =   1.33308988847780E-09  1.43267532253468E-02
 cg2d: Sum(rhs),rhsMax =   1.33316774286740E-09  1.43264112765069E-02
 cg2d: Sum(rhs),rhsMax =   1.33324286333281E-09  1.43260689997666E-02
 cg2d: Sum(rhs),rhsMax =   1.33331279350557E-09  1.43257264079154E-02
 cg2d: Sum(rhs),rhsMax =   1.33339250751874E-09  1.43253835123476E-02
 cg2d: Sum(rhs),rhsMax =   1.33347728692446E-09  1.43250403270545E-02
 cg2d: Sum(rhs),rhsMax =   1.33356395370932E-09  1.43246968601551E-02
 cg2d: Sum(rhs),rhsMax =   1.33363069199088E-09  1.43243531206326E-02
 cg2d: Sum(rhs),rhsMax =   1.33371044763742E-09  1.43240091142042E-02
 cg2d: Sum(rhs),rhsMax =   1.33378565136955E-09  1.43236648496297E-02
 cg2d: Sum(rhs),rhsMax =   1.33386099387955E-09  1.43233203360169E-02
 cg2d: Sum(rhs),rhsMax =   1.33393998624776E-09  1.43229755748964E-02
 cg2d: Sum(rhs),rhsMax =   1.33402117130643E-09  1.43226305723679E-02
 cg2d: Sum(rhs),rhsMax =   1.33409108760141E-09  1.43222853351822E-02
 cg2d: Sum(rhs),rhsMax =   1.33417887848708E-09  1.43219398690780E-02
 Computing Diagnostic #    26 "THETA   " (list#  1) Parms "SMR     MR      ", Count=     144
 Computing Diagnostic #    27 "SALT    " (list#  1) Parms "SMR     MR      ", Count=     144
 Computing Diagnostic #    30 "UVEL    " (list#  1) Parms "UUR     MR      ", Count=     144
             Vector  Mate for "UVEL    " :  Diagnostic #     31 "VVEL    " exists
 Computing Diagnostic #    32 "WVEL    " (list#  1) Parms "WM      LR      ", Count=     144
 Computing Diagnostic #    31 "VVEL    " (list#  1) Parms "VVR     MR      ", Count=     144
             Vector  Mate for "VVEL    " :  Diagnostic #     30 "UVEL    " exists
 Computing Diagnostic #   197 "BRGfwFlx" (list#  2) Parms "SM      MR      ", Count=     144
 Computing Diagnostic #   198 "BRGhtFlx" (list#  2) Parms "SM      MR      ", Count=     144
 Computing Diagnostic #   199 "BRGmltRt" (list#  2) Parms "SM      MR      ", Count=     144
 Computing Diagnostic #   201 "BRG_TauX" (list#  2) Parms "UU      MR      ", Count=    1728
 Computing Diagnostic #   202 "BRG_TauY" (list#  2) Parms "VV      MR      ", Count=    1728
 Computing Diagnostic #   203 "BRGhFacC" (list#  2) Parms "SM      MR      ", Count=    1728
 cg2d: Sum(rhs),rhsMax =   1.33427069393122E-09  1.43215941779266E-02
 cg2d: Sum(rhs),rhsMax =   1.33434550908529E-09  1.43212482712536E-02
 cg2d: Sum(rhs),rhsMax =   1.33442176752929E-09  1.43209021541711E-02
 cg2d: Sum(rhs),rhsMax =   1.33449837291799E-09  1.43205558345845E-02
 cg2d: Sum(rhs),rhsMax =   1.33456296014245E-09  1.43202093230348E-02
 cg2d: Sum(rhs),rhsMax =   1.33464485296830E-09  1.43198626288574E-02
 cg2d: Sum(rhs),rhsMax =   1.33471883545511E-09  1.43195157637240E-02
 cg2d: Sum(rhs),rhsMax =   1.33479691188931E-09  1.43191687401577E-02
 cg2d: Sum(rhs),rhsMax =   1.33486584286135E-09  1.43188215732159E-02
 cg2d: Sum(rhs),rhsMax =   1.33494293397263E-09  1.43184742777066E-02
 cg2d: Sum(rhs),rhsMax =   1.33501747157094E-09  1.43181268739622E-02
 cg2d: Sum(rhs),rhsMax =   1.33509893418537E-09  1.43177793795310E-02
 cg2d: Sum(rhs),rhsMax =   1.33518170131186E-09  1.43174318171589E-02
 cg2d: Sum(rhs),rhsMax =   1.33526535661677E-09  1.43170842087880E-02
 cg2d: Sum(rhs),rhsMax =   1.33531993795621E-09  1.43167365827338E-02
 cg2d: Sum(rhs),rhsMax =   1.33540332958315E-09  1.43163889639267E-02
 cg2d: Sum(rhs),rhsMax =   1.33548670733230E-09  1.43160413821404E-02
 cg2d: Sum(rhs),rhsMax =   1.33556277148728E-09  1.43156938687618E-02
 cg2d: Sum(rhs),rhsMax =   1.33563841930862E-09  1.43153464568412E-02
 cg2d: Sum(rhs),rhsMax =   1.33570200733235E-09  1.43149991810408E-02
 cg2d: Sum(rhs),rhsMax =   1.33576420757731E-09  1.43146520787490E-02
 cg2d: Sum(rhs),rhsMax =   1.33584249217833E-09  1.43143051870856E-02
 cg2d: Sum(rhs),rhsMax =   1.33591628037610E-09  1.43139585471479E-02
 cg2d: Sum(rhs),rhsMax =   1.33600187857130E-09  1.43136121997821E-02
 cg2d: Sum(rhs),rhsMax =   1.33608356323034E-09  1.43132661881469E-02
 cg2d: Sum(rhs),rhsMax =   1.33616005759674E-09  1.43129205552290E-02
 cg2d: Sum(rhs),rhsMax =   1.33625045750652E-09  1.43125753468272E-02
 cg2d: Sum(rhs),rhsMax =   1.33632013787910E-09  1.43122306073889E-02
 cg2d: Sum(rhs),rhsMax =   1.33640748467556E-09  1.43118863852308E-02
 cg2d: Sum(rhs),rhsMax =   1.33649025180205E-09  1.43115427257338E-02
 cg2d: Sum(rhs),rhsMax =   1.33656533063409E-09  1.43111996771696E-02
 cg2d: Sum(rhs),rhsMax =   1.33662791945710E-09  1.43108572862374E-02
 cg2d: Sum(rhs),rhsMax =   1.33669665614011E-09  1.43105156005770E-02
 cg2d: Sum(rhs),rhsMax =   1.33679836644696E-09  1.43101746678812E-02
 cg2d: Sum(rhs),rhsMax =   1.33687765024870E-09  1.43098345340690E-02
 cg2d: Sum(rhs),rhsMax =   1.33695243764720E-09  1.43094952448440E-02
 cg2d: Sum(rhs),rhsMax =   1.33702089677445E-09  1.43091568473392E-02
 cg2d: Sum(rhs),rhsMax =   1.33710241490004E-09  1.43088193837906E-02
 cg2d: Sum(rhs),rhsMax =   1.33717872885519E-09  1.43084828961877E-02
 cg2d: Sum(rhs),rhsMax =   1.33726565931802E-09  1.43081474283518E-02
 cg2d: Sum(rhs),rhsMax =   1.33734424923038E-09  1.43078130176816E-02
 cg2d: Sum(rhs),rhsMax =   1.33741909214002E-09  1.43074797032964E-02
 cg2d: Sum(rhs),rhsMax =   1.33750277520051E-09  1.43071475196126E-02
 cg2d: Sum(rhs),rhsMax =   1.33757784015476E-09  1.43068165074044E-02
 cg2d: Sum(rhs),rhsMax =   1.33765910848016E-09  1.43064866970310E-02
 cg2d: Sum(rhs),rhsMax =   1.33772820598566E-09  1.43061581086321E-02
 cg2d: Sum(rhs),rhsMax =   1.33779162747594E-09  1.43058307678479E-02
 cg2d: Sum(rhs),rhsMax =   1.33788449763195E-09  1.43055047003207E-02
 cg2d: Sum(rhs),rhsMax =   1.33795310941487E-09  1.43051799282221E-02
 cg2d: Sum(rhs),rhsMax =   1.33802538493377E-09  1.43048564706446E-02
 cg2d: Sum(rhs),rhsMax =   1.33809806290852E-09  1.43045343382575E-02
 cg2d: Sum(rhs),rhsMax =   1.33818646441686E-09  1.43042135442084E-02
 cg2d: Sum(rhs),rhsMax =   1.33825454884384E-09  1.43038940948484E-02
 cg2d: Sum(rhs),rhsMax =   1.33833100157688E-09  1.43035759961327E-02
 cg2d: Sum(rhs),rhsMax =   1.33839565819027E-09  1.43032592500150E-02
 cg2d: Sum(rhs),rhsMax =   1.33848201966380E-09  1.43029438554169E-02
 cg2d: Sum(rhs),rhsMax =   1.33855103390257E-09  1.43026298067413E-02
 cg2d: Sum(rhs),rhsMax =   1.33863833906567E-09  1.43023170967554E-02
 cg2d: Sum(rhs),rhsMax =   1.33871019825094E-09  1.43020057157239E-02
 cg2d: Sum(rhs),rhsMax =   1.33878771957363E-09  1.43016956483183E-02
 cg2d: Sum(rhs),rhsMax =   1.33886013387041E-09  1.43013868788762E-02
 cg2d: Sum(rhs),rhsMax =   1.33892444353911E-09  1.43010793861433E-02
 cg2d: Sum(rhs),rhsMax =   1.33899893950407E-09  1.43007731479327E-02
 cg2d: Sum(rhs),rhsMax =   1.33907389343602E-09  1.43004681391665E-02
 cg2d: Sum(rhs),rhsMax =   1.33916099043230E-09  1.43001643313385E-02
 cg2d: Sum(rhs),rhsMax =   1.33923654110912E-09  1.42998616952517E-02
 cg2d: Sum(rhs),rhsMax =   1.33930799783855E-09  1.42995601999671E-02
 cg2d: Sum(rhs),rhsMax =   1.33938386770449E-09  1.42992598075366E-02
 cg2d: Sum(rhs),rhsMax =   1.33945483871134E-09  1.42989604833451E-02
 cg2d: Sum(rhs),rhsMax =   1.33950657510429E-09  1.42986621882468E-02
 cg2d: Sum(rhs),rhsMax =   1.33957582526545E-09  1.42983648830354E-02
 cg2d: Sum(rhs),rhsMax =   1.33965322168805E-09  1.42980685279266E-02
 cg2d: Sum(rhs),rhsMax =   1.33971581051107E-09  1.42977730780867E-02
 cg2d: Sum(rhs),rhsMax =   1.33978816929670E-09  1.42974784939326E-02
 cg2d: Sum(rhs),rhsMax =   1.33986437222955E-09  1.42971847283740E-02
 cg2d: Sum(rhs),rhsMax =   1.33994156048534E-09  1.42968917380892E-02
 cg2d: Sum(rhs),rhsMax =   1.34001996998645E-09  1.42965994790304E-02
 cg2d: Sum(rhs),rhsMax =   1.34009120467127E-09  1.42963079031096E-02
 cg2d: Sum(rhs),rhsMax =   1.34015501473961E-09  1.42960169745949E-02
 cg2d: Sum(rhs),rhsMax =   1.34023389608551E-09  1.42957266326965E-02
 cg2d: Sum(rhs),rhsMax =   1.34031444276594E-09  1.42954368650564E-02
 cg2d: Sum(rhs),rhsMax =   1.34038752319654E-09  1.42951476066353E-02
 cg2d: Sum(rhs),rhsMax =   1.34046206079486E-09  1.42948588157883E-02
 cg2d: Sum(rhs),rhsMax =   1.34054206624157E-09  1.42945705088549E-02
 cg2d: Sum(rhs),rhsMax =   1.34059799372643E-09  1.42942828821828E-02
 cg2d: Sum(rhs),rhsMax =   1.34066187318371E-09  1.42939957545774E-02
 cg2d: Sum(rhs),rhsMax =   1.34072966617715E-09  1.42937089878978E-02
 cg2d: Sum(rhs),rhsMax =   1.34080631319922E-09  1.42934225696148E-02
 cg2d: Sum(rhs),rhsMax =   1.34085782754756E-09  1.42931364351314E-02
 cg2d: Sum(rhs),rhsMax =   1.34094126080786E-09  1.42928505084281E-02
 cg2d: Sum(rhs),rhsMax =   1.34100593129904E-09  1.42925647218393E-02
 cg2d: Sum(rhs),rhsMax =   1.34108490978946E-09  1.42922790133428E-02
 cg2d: Sum(rhs),rhsMax =   1.34117032757342E-09  1.42919933236214E-02
 cg2d: Sum(rhs),rhsMax =   1.34124723827345E-09  1.42917075986721E-02
 cg2d: Sum(rhs),rhsMax =   1.34131107609736E-09  1.42914217889965E-02
 cg2d: Sum(rhs),rhsMax =   1.34137689844493E-09  1.42911358303981E-02
 cg2d: Sum(rhs),rhsMax =   1.34145113073192E-09  1.42908496668990E-02
 cg2d: Sum(rhs),rhsMax =   1.34153120556757E-09  1.42905632608319E-02
 cg2d: Sum(rhs),rhsMax =   1.34158892328706E-09  1.42902765823666E-02
 cg2d: Sum(rhs),rhsMax =   1.34166912302280E-09  1.42899896051334E-02
 cg2d: Sum(rhs),rhsMax =   1.34173548660410E-09  1.42897023061722E-02
 cg2d: Sum(rhs),rhsMax =   1.34180393185357E-09  1.42894146713029E-02
 cg2d: Sum(rhs),rhsMax =   1.34189510891947E-09  1.42891266879072E-02
 cg2d: Sum(rhs),rhsMax =   1.34197843115746E-09  1.42888383500546E-02
 cg2d: Sum(rhs),rhsMax =   1.34204890256395E-09  1.42885496578781E-02
 cg2d: Sum(rhs),rhsMax =   1.34211285141017E-09  1.42882606138564E-02
 cg2d: Sum(rhs),rhsMax =   1.34217839620199E-09  1.42879712283136E-02
 cg2d: Sum(rhs),rhsMax =   1.34225953962730E-09  1.42876815125631E-02
 cg2d: Sum(rhs),rhsMax =   1.34233815729523E-09  1.42873914854927E-02
 cg2d: Sum(rhs),rhsMax =   1.34241173732619E-09  1.42871011706108E-02
 cg2d: Sum(rhs),rhsMax =   1.34247890581918E-09  1.42868105918344E-02
 cg2d: Sum(rhs),rhsMax =   1.34255258299465E-09  1.42865197819571E-02
 cg2d: Sum(rhs),rhsMax =   1.34263644646637E-09  1.42862287731231E-02
 cg2d: Sum(rhs),rhsMax =   1.34271055385327E-09  1.42859376031364E-02
 cg2d: Sum(rhs),rhsMax =   1.34277289287610E-09  1.42856463127726E-02
 cg2d: Sum(rhs),rhsMax =   1.34284293407116E-09  1.42853549447134E-02
 cg2d: Sum(rhs),rhsMax =   1.34289750153282E-09  1.42850635460160E-02
 cg2d: Sum(rhs),rhsMax =   1.34297928333638E-09  1.42847721622267E-02
 cg2d: Sum(rhs),rhsMax =   1.34304121990336E-09  1.42844808452562E-02
 cg2d: Sum(rhs),rhsMax =   1.34311139987631E-09  1.42841896449329E-02
 cg2d: Sum(rhs),rhsMax =   1.34319243227932E-09  1.42838986133000E-02
 cg2d: Sum(rhs),rhsMax =   1.34327024503555E-09  1.42836078049988E-02
 cg2d: Sum(rhs),rhsMax =   1.34332241163992E-09  1.42833172720096E-02
 cg2d: Sum(rhs),rhsMax =   1.34338669355305E-09  1.42830270695450E-02
 cg2d: Sum(rhs),rhsMax =   1.34344628477390E-09  1.42827372506074E-02
 cg2d: Sum(rhs),rhsMax =   1.34352115543912E-09  1.42824478675251E-02
 cg2d: Sum(rhs),rhsMax =   1.34359506853698E-09  1.42821589729130E-02
 cg2d: Sum(rhs),rhsMax =   1.34366770487837E-09  1.42818706204763E-02
 cg2d: Sum(rhs),rhsMax =   1.34374401883353E-09  1.42815828561116E-02
 cg2d: Sum(rhs),rhsMax =   1.34381819560936E-09  1.42812957311337E-02
 cg2d: Sum(rhs),rhsMax =   1.34390097661363E-09  1.42810092909230E-02
 cg2d: Sum(rhs),rhsMax =   1.34396532791570E-09  1.42807235787511E-02
 cg2d: Sum(rhs),rhsMax =   1.34402697304914E-09  1.42804386355412E-02
 cg2d: Sum(rhs),rhsMax =   1.34408639773653E-09  1.42801545023833E-02
 cg2d: Sum(rhs),rhsMax =   1.34414865349264E-09  1.42798712151473E-02
 cg2d: Sum(rhs),rhsMax =   1.34421959674391E-09  1.42795888067102E-02
 cg2d: Sum(rhs),rhsMax =   1.34429010978376E-09  1.42793073079237E-02
 cg2d: Sum(rhs),rhsMax =   1.34436542453820E-09  1.42790267435498E-02
 cg2d: Sum(rhs),rhsMax =   1.34443815802410E-09  1.42787471401479E-02
 cg2d: Sum(rhs),rhsMax =   1.34450869881952E-09  1.42784685166148E-02
 cg2d: Sum(rhs),rhsMax =   1.34458479073007E-09  1.42781908899244E-02
 cg2d: Sum(rhs),rhsMax =   1.34465467926947E-09  1.42779142731788E-02
 cg2d: Sum(rhs),rhsMax =   1.34472191715140E-09  1.42776386763320E-02
 cg2d: Sum(rhs),rhsMax =   1.34479055668990E-09  1.42773641045002E-02
 Computing Diagnostic #    26 "THETA   " (list#  1) Parms "SMR     MR      ", Count=     144
 Computing Diagnostic #    27 "SALT    " (list#  1) Parms "SMR     MR      ", Count=     144
 Computing Diagnostic #    30 "UVEL    " (list#  1) Parms "UUR     MR      ", Count=     144
             Vector  Mate for "UVEL    " :  Diagnostic #     31 "VVEL    " exists
 Computing Diagnostic #    32 "WVEL    " (list#  1) Parms "WM      LR      ", Count=     144
 Computing Diagnostic #    31 "VVEL    " (list#  1) Parms "VVR     MR      ", Count=     144
             Vector  Mate for "VVEL    " :  Diagnostic #     30 "UVEL    " exists
 Computing Diagnostic #   197 "BRGfwFlx" (list#  2) Parms "SM      MR      ", Count=     144
 Computing Diagnostic #   198 "BRGhtFlx" (list#  2) Parms "SM      MR      ", Count=     144
 Computing Diagnostic #   199 "BRGmltRt" (list#  2) Parms "SM      MR      ", Count=     144
 Computing Diagnostic #   201 "BRG_TauX" (list#  2) Parms "UU      MR      ", Count=    1728
 Computing Diagnostic #   202 "BRG_TauY" (list#  2) Parms "VV      MR      ", Count=    1728
 Computing Diagnostic #   203 "BRGhFacC" (list#  2) Parms "SM      MR      ", Count=    1728
 cg2d: Sum(rhs),rhsMax =   1.34485413083585E-09  1.42770905605055E-02
 cg2d: Sum(rhs),rhsMax =   1.34493188808094E-09  1.42768180428197E-02
 cg2d: Sum(rhs),rhsMax =   1.34500567627871E-09  1.42765465478844E-02
 cg2d: Sum(rhs),rhsMax =   1.34507602278511E-09  1.42762760663702E-02
 cg2d: Sum(rhs),rhsMax =   1.34513943039760E-09  1.42760065871127E-02
 cg2d: Sum(rhs),rhsMax =   1.34520955485939E-09  1.42757380949939E-02
 cg2d: Sum(rhs),rhsMax =   1.34528649331500E-09  1.42754705725738E-02
 cg2d: Sum(rhs),rhsMax =   1.34536359830406E-09  1.42752040000905E-02
 cg2d: Sum(rhs),rhsMax =   1.34543622076766E-09  1.42749383522469E-02
 cg2d: Sum(rhs),rhsMax =   1.34550491581731E-09  1.42746736043136E-02
 cg2d: Sum(rhs),rhsMax =   1.34557169573224E-09  1.42744097263172E-02
 cg2d: Sum(rhs),rhsMax =   1.34565121545638E-09  1.42741466889649E-02
 cg2d: Sum(rhs),rhsMax =   1.34572650245524E-09  1.42738844593169E-02
 cg2d: Sum(rhs),rhsMax =   1.34579732080642E-09  1.42736230025145E-02
 cg2d: Sum(rhs),rhsMax =   1.34587305189449E-09  1.42733622824184E-02
 cg2d: Sum(rhs),rhsMax =   1.34592323397520E-09  1.42731022620969E-02
 cg2d: Sum(rhs),rhsMax =   1.34600550150132E-09  1.42728429010579E-02
 cg2d: Sum(rhs),rhsMax =   1.34606534252235E-09  1.42725841631422E-02
 cg2d: Sum(rhs),rhsMax =   1.34613943603146E-09  1.42723260055760E-02
 cg2d: Sum(rhs),rhsMax =   1.34621919167799E-09  1.42720683888609E-02
 cg2d: Sum(rhs),rhsMax =   1.34629724035662E-09  1.42718112739867E-02
 cg2d: Sum(rhs),rhsMax =   1.34636501947227E-09  1.42715546186124E-02
 cg2d: Sum(rhs),rhsMax =   1.34644374816251E-09  1.42712983835126E-02
 cg2d: Sum(rhs),rhsMax =   1.34651781391604E-09  1.42710425288754E-02
 cg2d: Sum(rhs),rhsMax =   1.34656971684244E-09  1.42707870145917E-02
 cg2d: Sum(rhs),rhsMax =   1.34663323547723E-09  1.42705318064503E-02
 cg2d: Sum(rhs),rhsMax =   1.34672184515239E-09  1.42702768637469E-02
 cg2d: Sum(rhs),rhsMax =   1.34678840302271E-09  1.42700221532043E-02
 cg2d: Sum(rhs),rhsMax =   1.34684616237557E-09  1.42697676403100E-02
 cg2d: Sum(rhs),rhsMax =   1.34692262898639E-09  1.42695132919050E-02
 cg2d: Sum(rhs),rhsMax =   1.34699565390584E-09  1.42692590792496E-02
 cg2d: Sum(rhs),rhsMax =   1.34707099641584E-09  1.42690049735648E-02
 cg2d: Sum(rhs),rhsMax =   1.34714270294545E-09  1.42687509465951E-02
 cg2d: Sum(rhs),rhsMax =   1.34720751221451E-09  1.42684969746145E-02
 cg2d: Sum(rhs),rhsMax =   1.34727788647648E-09  1.42682430359857E-02
 cg2d: Sum(rhs),rhsMax =   1.34735071710690E-09  1.42679891099160E-02
 cg2d: Sum(rhs),rhsMax =   1.34743735613618E-09  1.42677351787206E-02
 cg2d: Sum(rhs),rhsMax =   1.34752552172213E-09  1.42674812275472E-02
 cg2d: Sum(rhs),rhsMax =   1.34758974812410E-09  1.42672272436331E-02
 cg2d: Sum(rhs),rhsMax =   1.34766216242088E-09  1.42669732150139E-02
 cg2d: Sum(rhs),rhsMax =   1.34773575632963E-09  1.42667191341536E-02
 cg2d: Sum(rhs),rhsMax =   1.34780918370492E-09  1.42664649937202E-02
 cg2d: Sum(rhs),rhsMax =   1.34788932792951E-09  1.42662107909855E-02
 cg2d: Sum(rhs),rhsMax =   1.34795036244029E-09  1.42659565241731E-02
 cg2d: Sum(rhs),rhsMax =   1.34802217999219E-09  1.42657021915550E-02
 cg2d: Sum(rhs),rhsMax =   1.34809828578053E-09  1.42654477991744E-02
 cg2d: Sum(rhs),rhsMax =   1.34816689756345E-09  1.42651933469325E-02
 cg2d: Sum(rhs),rhsMax =   1.34821553920972E-09  1.42649388427382E-02
 cg2d: Sum(rhs),rhsMax =   1.34827997377851E-09  1.42646842954900E-02
 cg2d: Sum(rhs),rhsMax =   1.34835186071935E-09  1.42644297103640E-02
 cg2d: Sum(rhs),rhsMax =   1.34842360888232E-09  1.42641751003335E-02
 cg2d: Sum(rhs),rhsMax =   1.34849120758673E-09  1.42639204772081E-02
 cg2d: Sum(rhs),rhsMax =   1.34855412947665E-09  1.42636658513895E-02
 cg2d: Sum(rhs),rhsMax =   1.34862415679393E-09  1.42634112367918E-02
 cg2d: Sum(rhs),rhsMax =   1.34870085932715E-09  1.42631566483669E-02
 cg2d: Sum(rhs),rhsMax =   1.34875823010194E-09  1.42629020984251E-02
 cg2d: Sum(rhs),rhsMax =   1.34884027558346E-09  1.42626476022046E-02
 cg2d: Sum(rhs),rhsMax =   1.34891506298196E-09  1.42623931745433E-02
 cg2d: Sum(rhs),rhsMax =   1.34898443804321E-09  1.42621388312212E-02
 cg2d: Sum(rhs),rhsMax =   1.34904384885282E-09  1.42618845846890E-02
 cg2d: Sum(rhs),rhsMax =   1.34911797011750E-09  1.42616304499586E-02
 cg2d: Sum(rhs),rhsMax =   1.34918431982101E-09  1.42613764404335E-02
 cg2d: Sum(rhs),rhsMax =   1.34925562389476E-09  1.42611225682632E-02
 cg2d: Sum(rhs),rhsMax =   1.34933068884902E-09  1.42608688450719E-02
 cg2d: Sum(rhs),rhsMax =   1.34939337481654E-09  1.42606152811090E-02
 cg2d: Sum(rhs),rhsMax =   1.34946620544696E-09  1.42603618866402E-02
 cg2d: Sum(rhs),rhsMax =   1.34954672437182E-09  1.42601086691980E-02
 cg2d: Sum(rhs),rhsMax =   1.34959493580666E-09  1.42598556353591E-02
 cg2d: Sum(rhs),rhsMax =   1.34967181875112E-09  1.42596027900778E-02
 cg2d: Sum(rhs),rhsMax =   1.34974582899350E-09  1.42593501376065E-02
 cg2d: Sum(rhs),rhsMax =   1.34981717470062E-09  1.42590976786373E-02
 cg2d: Sum(rhs),rhsMax =   1.34989079636494E-09  1.42588454131541E-02
 cg2d: Sum(rhs),rhsMax =   1.34994886102913E-09  1.42585933373609E-02
 cg2d: Sum(rhs),rhsMax =   1.35001286538650E-09  1.42583414489963E-02
 cg2d: Sum(rhs),rhsMax =   1.35006683610328E-09  1.42580897415318E-02
 cg2d: Sum(rhs),rhsMax =   1.35013338009582E-09  1.42578382072097E-02
 cg2d: Sum(rhs),rhsMax =   1.35020189473423E-09  1.42575868355681E-02
 cg2d: Sum(rhs),rhsMax =   1.35027347636374E-09  1.42573356134067E-02
 cg2d: Sum(rhs),rhsMax =   1.35035171933140E-09  1.42570845281914E-02
 cg2d: Sum(rhs),rhsMax =   1.35042034499211E-09  1.42568335638795E-02
 cg2d: Sum(rhs),rhsMax =   1.35047487082041E-09  1.42565827020505E-02
 cg2d: Sum(rhs),rhsMax =   1.35054341321439E-09  1.42563319226152E-02
 cg2d: Sum(rhs),rhsMax =   1.35060196360115E-09  1.42560812036129E-02
 cg2d: Sum(rhs),rhsMax =   1.35067577955450E-09  1.42558305228211E-02
 cg2d: Sum(rhs),rhsMax =   1.35074891549625E-09  1.42555798552349E-02
 cg2d: Sum(rhs),rhsMax =   1.35081945629167E-09  1.42553291739380E-02
 cg2d: Sum(rhs),rhsMax =   1.35089084363216E-09  1.42550784521526E-02
 cg2d: Sum(rhs),rhsMax =   1.35095079567549E-09  1.42548276595324E-02
 cg2d: Sum(rhs),rhsMax =   1.35101867193566E-09  1.42545767668914E-02
 cg2d: Sum(rhs),rhsMax =   1.35108839394160E-09  1.42543257438567E-02
 cg2d: Sum(rhs),rhsMax =   1.35116236255062E-09  1.42540745567728E-02
 cg2d: Sum(rhs),rhsMax =   1.35121787370185E-09  1.42538231735230E-02
 cg2d: Sum(rhs),rhsMax =   1.35130576173204E-09  1.42535715615463E-02
 cg2d: Sum(rhs),rhsMax =   1.35137939727414E-09  1.42533196877580E-02
 cg2d: Sum(rhs),rhsMax =   1.35143737867160E-09  1.42530675177454E-02
 cg2d: Sum(rhs),rhsMax =   1.35150314550803E-09  1.42528150176413E-02
 cg2d: Sum(rhs),rhsMax =   1.35157873781822E-09  1.42525621539067E-02
 cg2d: Sum(rhs),rhsMax =   1.35164072989635E-09  1.42523088937196E-02
 cg2d: Sum(rhs),rhsMax =   1.35170651061056E-09  1.42520552033215E-02
 cg2d: Sum(rhs),rhsMax =   1.35178815363624E-09  1.42518010509246E-02
 cg2d: Sum(rhs),rhsMax =   1.35185931893211E-09  1.42515464036627E-02
 cg2d: Sum(rhs),rhsMax =   1.35191731420736E-09  1.42512912340432E-02
 cg2d: Sum(rhs),rhsMax =   1.35198517658974E-09  1.42510355084588E-02
 cg2d: Sum(rhs),rhsMax =   1.35207400830950E-09  1.42507792005268E-02
 cg2d: Sum(rhs),rhsMax =   1.35214564545016E-09  1.42505222841707E-02
 cg2d: Sum(rhs),rhsMax =   1.35220859509566E-09  1.42502647324435E-02
 cg2d: Sum(rhs),rhsMax =   1.35227090636292E-09  1.42500065216658E-02
 cg2d: Sum(rhs),rhsMax =   1.35233894915654E-09  1.42497476286328E-02
 cg2d: Sum(rhs),rhsMax =   1.35241805254704E-09  1.42494880348613E-02
 cg2d: Sum(rhs),rhsMax =   1.35248516552888E-09  1.42492277200026E-02
 cg2d: Sum(rhs),rhsMax =   1.35255086297636E-09  1.42489666678843E-02
 cg2d: Sum(rhs),rhsMax =   1.35263206191283E-09  1.42487048635168E-02
 cg2d: Sum(rhs),rhsMax =   1.35271079060306E-09  1.42484422961631E-02
 cg2d: Sum(rhs),rhsMax =   1.35278432900066E-09  1.42481789523188E-02
 cg2d: Sum(rhs),rhsMax =   1.35285714575328E-09  1.42479148264504E-02
 cg2d: Sum(rhs),rhsMax =   1.35291672309634E-09  1.42476499116019E-02
 cg2d: Sum(rhs),rhsMax =   1.35295610825814E-09  1.42473842047391E-02
 cg2d: Sum(rhs),rhsMax =   1.35304444037754E-09  1.42471177025060E-02
 cg2d: Sum(rhs),rhsMax =   1.35311854776443E-09  1.42468504076335E-02
 cg2d: Sum(rhs),rhsMax =   1.35320078753498E-09  1.42465823217143E-02
 cg2d: Sum(rhs),rhsMax =   1.35325553540788E-09  1.42463134509476E-02
 cg2d: Sum(rhs),rhsMax =   1.35333275141925E-09  1.42460438014761E-02
 cg2d: Sum(rhs),rhsMax =   1.35339645046528E-09  1.42457733829154E-02
 cg2d: Sum(rhs),rhsMax =   1.35345590290825E-09  1.42455022075880E-02
 cg2d: Sum(rhs),rhsMax =   1.35353005192851E-09  1.42452302886273E-02
 cg2d: Sum(rhs),rhsMax =   1.35359520814227E-09  1.42449576396614E-02
 cg2d: Sum(rhs),rhsMax =   1.35366161335693E-09  1.42446842800458E-02
 cg2d: Sum(rhs),rhsMax =   1.35374056409177E-09  1.42444102269002E-02
 cg2d: Sum(rhs),rhsMax =   1.35381007793089E-09  1.42441355005459E-02
 cg2d: Sum(rhs),rhsMax =   1.35387248634267E-09  1.42438601242745E-02
 cg2d: Sum(rhs),rhsMax =   1.35395812617123E-09  1.42435841206919E-02
 cg2d: Sum(rhs),rhsMax =   1.35403518952693E-09  1.42433075146641E-02
 cg2d: Sum(rhs),rhsMax =   1.35410267720903E-09  1.42430303326828E-02
 cg2d: Sum(rhs),rhsMax =   1.35417375923819E-09  1.42427526008442E-02
 cg2d: Sum(rhs),rhsMax =   1.35425290426205E-09  1.42424743481015E-02
 cg2d: Sum(rhs),rhsMax =   1.35432451364714E-09  1.42421956031876E-02
 cg2d: Sum(rhs),rhsMax =   1.35439794102243E-09  1.42419163954664E-02
 cg2d: Sum(rhs),rhsMax =   1.35444855331457E-09  1.42416367561835E-02
 cg2d: Sum(rhs),rhsMax =   1.35452235539013E-09  1.42413567129324E-02
 cg2d: Sum(rhs),rhsMax =   1.35458690098123E-09  1.42410763014979E-02
 cg2d: Sum(rhs),rhsMax =   1.35465613726460E-09  1.42407955510345E-02
 cg2d: Sum(rhs),rhsMax =   1.35472646989321E-09  1.42405144941265E-02
 cg2d: Sum(rhs),rhsMax =   1.35479884255663E-09  1.42402331621804E-02
 cg2d: Sum(rhs),rhsMax =   1.35487504548948E-09  1.42399497838846E-02
 Computing Diagnostic #    26 "THETA   " (list#  1) Parms "SMR     MR      ", Count=     144
 Computing Diagnostic #    27 "SALT    " (list#  1) Parms "SMR     MR      ", Count=     144
 Computing Diagnostic #    30 "UVEL    " (list#  1) Parms "UUR     MR      ", Count=     144
             Vector  Mate for "UVEL    " :  Diagnostic #     31 "VVEL    " exists
 Computing Diagnostic #    32 "WVEL    " (list#  1) Parms "WM      LR      ", Count=     144
 Computing Diagnostic #    31 "VVEL    " (list#  1) Parms "VVR     MR      ", Count=     144
             Vector  Mate for "VVEL    " :  Diagnostic #     30 "UVEL    " exists
 Computing Diagnostic #   197 "BRGfwFlx" (list#  2) Parms "SM      MR      ", Count=     144
 Computing Diagnostic #   198 "BRGhtFlx" (list#  2) Parms "SM      MR      ", Count=     144
 Computing Diagnostic #   199 "BRGmltRt" (list#  2) Parms "SM      MR      ", Count=     144
 Computing Diagnostic #   201 "BRG_TauX" (list#  2) Parms "UU      MR      ", Count=    1728
 Computing Diagnostic #   202 "BRG_TauY" (list#  2) Parms "VV      MR      ", Count=    1728
 Computing Diagnostic #   203 "BRGhFacC" (list#  2) Parms "SM      MR      ", Count=    1728
 cg2d: Sum(rhs),rhsMax =   1.35494557240712E-09  1.42396655062264E-02
 cg2d: Sum(rhs),rhsMax =   1.35502549458710E-09  1.42393811025423E-02
 cg2d: Sum(rhs),rhsMax =   1.35509822807300E-09  1.42390966272002E-02
 cg2d: Sum(rhs),rhsMax =   1.35516749211195E-09  1.42388121441903E-02
 cg2d: Sum(rhs),rhsMax =   1.35523194055853E-09  1.42385277086687E-02
 cg2d: Sum(rhs),rhsMax =   1.35529867884010E-09  1.42382433787934E-02
 cg2d: Sum(rhs),rhsMax =   1.35537274459363E-09  1.42379592079381E-02
 cg2d: Sum(rhs),rhsMax =   1.35545837054440E-09  1.42376752508177E-02
 cg2d: Sum(rhs),rhsMax =   1.35552735702760E-09  1.42373915569553E-02
 cg2d: Sum(rhs),rhsMax =   1.35560700165183E-09  1.42371081757885E-02
 cg2d: Sum(rhs),rhsMax =   1.35568832548838E-09  1.42368251542541E-02
 cg2d: Sum(rhs),rhsMax =   1.35576191939712E-09  1.42365425346805E-02
 cg2d: Sum(rhs),rhsMax =   1.35582498006492E-09  1.42362603568201E-02
 cg2d: Sum(rhs),rhsMax =   1.35589633964983E-09  1.42359786597121E-02
 cg2d: Sum(rhs),rhsMax =   1.35598088313316E-09  1.42356974787409E-02
 cg2d: Sum(rhs),rhsMax =   1.35604559525770E-09  1.42354168458851E-02
 cg2d: Sum(rhs),rhsMax =   1.35612243656880E-09  1.42351367917184E-02
 cg2d: Sum(rhs),rhsMax =   1.35619032670675E-09  1.42348573424454E-02
 cg2d: Sum(rhs),rhsMax =   1.35625666253247E-09  1.42345785211084E-02
 cg2d: Sum(rhs),rhsMax =   1.35633801412460E-09  1.42343003501236E-02
 cg2d: Sum(rhs),rhsMax =   1.35640225440437E-09  1.42340228464255E-02
 cg2d: Sum(rhs),rhsMax =   1.35646474608286E-09  1.42337460266465E-02
 cg2d: Sum(rhs),rhsMax =   1.35653725752416E-09  1.42334699036037E-02
 cg2d: Sum(rhs),rhsMax =   1.35660876976473E-09  1.42331944867431E-02
 cg2d: Sum(rhs),rhsMax =   1.35668608292061E-09  1.42329197856671E-02
 cg2d: Sum(rhs),rhsMax =   1.35674309287293E-09  1.42326458044648E-02
 cg2d: Sum(rhs),rhsMax =   1.35681825497169E-09  1.42323725472143E-02
 cg2d: Sum(rhs),rhsMax =   1.35690239599917E-09  1.42321000145095E-02
 cg2d: Sum(rhs),rhsMax =   1.35698025038877E-09  1.42318282070619E-02
 cg2d: Sum(rhs),rhsMax =   1.35705927051255E-09  1.42315571212987E-02
 cg2d: Sum(rhs),rhsMax =   1.35713380811087E-09  1.42312867530108E-02
 cg2d: Sum(rhs),rhsMax =   1.35720440441744E-09  1.42310170973271E-02
 cg2d: Sum(rhs),rhsMax =   1.35727697136989E-09  1.42307481475523E-02
 cg2d: Sum(rhs),rhsMax =   1.35733155270934E-09  1.42304798960373E-02
 cg2d: Sum(rhs),rhsMax =   1.35740522988481E-09  1.42302123344032E-02
 cg2d: Sum(rhs),rhsMax =   1.35746400231618E-09  1.42299454541243E-02
 cg2d: Sum(rhs),rhsMax =   1.35754370245156E-09  1.42296792452156E-02
 cg2d: Sum(rhs),rhsMax =   1.35762312503118E-09  1.42294136967473E-02
 cg2d: Sum(rhs),rhsMax =   1.35768964126814E-09  1.42291487994109E-02
 cg2d: Sum(rhs),rhsMax =   1.35775682363892E-09  1.42288845418461E-02
 cg2d: Sum(rhs),rhsMax =   1.35783573274040E-09  1.42286209150525E-02
 cg2d: Sum(rhs),rhsMax =   1.35789872401926E-09  1.42283579081350E-02
 cg2d: Sum(rhs),rhsMax =   1.35798032541157E-09  1.42280955169127E-02
 cg2d: Sum(rhs),rhsMax =   1.35803927825418E-09  1.42278337431182E-02
 cg2d: Sum(rhs),rhsMax =   1.35810498957945E-09  1.42275725775931E-02
 cg2d: Sum(rhs),rhsMax =   1.35818108149000E-09  1.42273120132837E-02
 cg2d: Sum(rhs),rhsMax =   1.35824551605879E-09  1.42270520406985E-02
 cg2d: Sum(rhs),rhsMax =   1.35831060288361E-09  1.42267926545750E-02
 cg2d: Sum(rhs),rhsMax =   1.35838937320720E-09  1.42265338476615E-02
 cg2d: Sum(rhs),rhsMax =   1.35844804849405E-09  1.42262756146135E-02
 cg2d: Sum(rhs),rhsMax =   1.35851555005395E-09  1.42260179514956E-02
 cg2d: Sum(rhs),rhsMax =   1.35860449279601E-09  1.42257608557926E-02
 cg2d: Sum(rhs),rhsMax =   1.35867248007848E-09  1.42255043243690E-02
 cg2d: Sum(rhs),rhsMax =   1.35874965445648E-09  1.42252483577550E-02
 cg2d: Sum(rhs),rhsMax =   1.35881302043561E-09  1.42249929525699E-02
 cg2d: Sum(rhs),rhsMax =   1.35887306962346E-09  1.42247381115080E-02
 cg2d: Sum(rhs),rhsMax =   1.35894326347419E-09  1.42244838363387E-02
 cg2d: Sum(rhs),rhsMax =   1.35900078690465E-09  1.42242301285680E-02
 cg2d: Sum(rhs),rhsMax =   1.35906430553945E-09  1.42239769900083E-02
 cg2d: Sum(rhs),rhsMax =   1.35914272891835E-09  1.42237244274581E-02
 cg2d: Sum(rhs),rhsMax =   1.35921272848005E-09  1.42234724447976E-02
 cg2d: Sum(rhs),rhsMax =   1.35927470668040E-09  1.42232210460337E-02
 cg2d: Sum(rhs),rhsMax =   1.35934810630012E-09  1.42229702377720E-02
 cg2d: Sum(rhs),rhsMax =   1.35942675172362E-09  1.42227200243460E-02
 cg2d: Sum(rhs),rhsMax =   1.35948668988917E-09  1.42224704156404E-02
 cg2d: Sum(rhs),rhsMax =   1.35955803559629E-09  1.42222214143044E-02
 cg2d: Sum(rhs),rhsMax =   1.35963447445153E-09  1.42219730302204E-02
 cg2d: Sum(rhs),rhsMax =   1.35969986658768E-09  1.42217252671652E-02
 cg2d: Sum(rhs),rhsMax =   1.35977405724130E-09  1.42214781325921E-02
 cg2d: Sum(rhs),rhsMax =   1.35985123161930E-09  1.42212316303187E-02
 cg2d: Sum(rhs),rhsMax =   1.35992601901780E-09  1.42209857693726E-02
 cg2d: Sum(rhs),rhsMax =   1.35999603245729E-09  1.42207405504429E-02
 cg2d: Sum(rhs),rhsMax =   1.36006177153813E-09  1.42204959796445E-02
 cg2d: Sum(rhs),rhsMax =   1.36014051410616E-09  1.42202520597409E-02
 cg2d: Sum(rhs),rhsMax =   1.36021525987129E-09  1.42200087931409E-02
 cg2d: Sum(rhs),rhsMax =   1.36027865360600E-09  1.42197661791361E-02
 cg2d: Sum(rhs),rhsMax =   1.36036085174318E-09  1.42195242195417E-02
 cg2d: Sum(rhs),rhsMax =   1.36043044884904E-09  1.42192829108455E-02
 cg2d: Sum(rhs),rhsMax =   1.36048938781386E-09  1.42190422499017E-02
 cg2d: Sum(rhs),rhsMax =   1.36055938737556E-09  1.42188022331451E-02
 cg2d: Sum(rhs),rhsMax =   1.36062792976954E-09  1.42185628540142E-02
 cg2d: Sum(rhs),rhsMax =   1.36068908918041E-09  1.42183241042671E-02
 cg2d: Sum(rhs),rhsMax =   1.36074755630045E-09  1.42180859741118E-02
 cg2d: Sum(rhs),rhsMax =   1.36080897938928E-09  1.42178484493182E-02
 cg2d: Sum(rhs),rhsMax =   1.36088565416692E-09  1.42176115192567E-02
 cg2d: Sum(rhs),rhsMax =   1.36096071912117E-09  1.42173751666258E-02
 cg2d: Sum(rhs),rhsMax =   1.36102724923592E-09  1.42171393743164E-02
 cg2d: Sum(rhs),rhsMax =   1.36110381299126E-09  1.42169041254917E-02
 cg2d: Sum(rhs),rhsMax =   1.36117953020154E-09  1.42166693969861E-02
 cg2d: Sum(rhs),rhsMax =   1.36125209715399E-09  1.42164351671320E-02
 cg2d: Sum(rhs),rhsMax =   1.36131357575398E-09  1.42162014105349E-02
 cg2d: Sum(rhs),rhsMax =   1.36137887074561E-09  1.42159681006755E-02
 cg2d: Sum(rhs),rhsMax =   1.36143014917156E-09  1.42157352078539E-02
 cg2d: Sum(rhs),rhsMax =   1.36148842200257E-09  1.42155027034941E-02
 cg2d: Sum(rhs),rhsMax =   1.36156191876680E-09  1.42152705519453E-02
 cg2d: Sum(rhs),rhsMax =   1.36164307606990E-09  1.42150387206003E-02
 cg2d: Sum(rhs),rhsMax =   1.36170695552718E-09  1.42148071741672E-02
 cg2d: Sum(rhs),rhsMax =   1.36177866205678E-09  1.42145758750893E-02
 cg2d: Sum(rhs),rhsMax =   1.36183828103320E-09  1.42143447840387E-02
 cg2d: Sum(rhs),rhsMax =   1.36189630406403E-09  1.42141138628861E-02
 cg2d: Sum(rhs),rhsMax =   1.36196705302627E-09  1.42138830704848E-02
 cg2d: Sum(rhs),rhsMax =   1.36204866829637E-09  1.42136523641584E-02
 cg2d: Sum(rhs),rhsMax =   1.36213053336665E-09  1.42134217026278E-02
 cg2d: Sum(rhs),rhsMax =   1.36219004132077E-09  1.42131910397138E-02
 cg2d: Sum(rhs),rhsMax =   1.36225923597078E-09  1.42129603357593E-02
 cg2d: Sum(rhs),rhsMax =   1.36234686032299E-09  1.42127295441343E-02
 cg2d: Sum(rhs),rhsMax =   1.36241452841634E-09  1.42124986215109E-02
 cg2d: Sum(rhs),rhsMax =   1.36248246018766E-09  1.42122675225552E-02
 cg2d: Sum(rhs),rhsMax =   1.36255311200539E-09  1.42120362039813E-02
 cg2d: Sum(rhs),rhsMax =   1.36261114891401E-09  1.42118046228921E-02
 cg2d: Sum(rhs),rhsMax =   1.36268413220009E-09  1.42115727361811E-02
 cg2d: Sum(rhs),rhsMax =   1.36276342987962E-09  1.42113405003988E-02
 cg2d: Sum(rhs),rhsMax =   1.36283526130931E-09  1.42111078748843E-02
 cg2d: Sum(rhs),rhsMax =   1.36290628782731E-09  1.42108748191779E-02
 cg2d: Sum(rhs),rhsMax =   1.36296661457092E-09  1.42106412941081E-02
 cg2d: Sum(rhs),rhsMax =   1.36304202646986E-09  1.42104072617343E-02
 cg2d: Sum(rhs),rhsMax =   1.36310542020457E-09  1.42101726872002E-02
 cg2d: Sum(rhs),rhsMax =   1.36318108190370E-09  1.42099375353662E-02
 cg2d: Sum(rhs),rhsMax =   1.36323519139836E-09  1.42097017745039E-02
 cg2d: Sum(rhs),rhsMax =   1.36329814104386E-09  1.42094653732051E-02
 cg2d: Sum(rhs),rhsMax =   1.36334465938859E-09  1.42092283098729E-02
 cg2d: Sum(rhs),rhsMax =   1.36341202217061E-09  1.42089905488953E-02
 cg2d: Sum(rhs),rhsMax =   1.36348667079123E-09  1.42087520578246E-02
 cg2d: Sum(rhs),rhsMax =   1.36356259616832E-09  1.42085128454973E-02
 cg2d: Sum(rhs),rhsMax =   1.36361948122055E-09  1.42082728645400E-02
 cg2d: Sum(rhs),rhsMax =   1.36369227021760E-09  1.42080321212504E-02
 cg2d: Sum(rhs),rhsMax =   1.36376220039036E-09  1.42077905795596E-02
 cg2d: Sum(rhs),rhsMax =   1.36383179749622E-09  1.42075482507537E-02
 cg2d: Sum(rhs),rhsMax =   1.36388741966975E-09  1.42073051062663E-02
 cg2d: Sum(rhs),rhsMax =   1.36396371974712E-09  1.42070611633241E-02
 cg2d: Sum(rhs),rhsMax =   1.36402591999207E-09  1.42068163963154E-02
 cg2d: Sum(rhs),rhsMax =   1.36410281681432E-09  1.42065708280723E-02
 cg2d: Sum(rhs),rhsMax =   1.36417539764455E-09  1.42063244418318E-02
 cg2d: Sum(rhs),rhsMax =   1.36425126751050E-09  1.42060772601097E-02
 cg2d: Sum(rhs),rhsMax =   1.36431442532281E-09  1.42058292739965E-02
 cg2d: Sum(rhs),rhsMax =   1.36437408593260E-09  1.42055805123738E-02
 cg2d: Sum(rhs),rhsMax =   1.36444454346130E-09  1.42053309730174E-02
 cg2d: Sum(rhs),rhsMax =   1.36451613896860E-09  1.42050806873948E-02
 cg2d: Sum(rhs),rhsMax =   1.36459088473373E-09  1.42048296565749E-02
 cg2d: Sum(rhs),rhsMax =   1.36464703426320E-09  1.42045779175664E-02
 cg2d: Sum(rhs),rhsMax =   1.36472641520946E-09  1.42043254780443E-02
 cg2d: Sum(rhs),rhsMax =   1.36479194612349E-09  1.42040723762071E-02
 cg2d: Sum(rhs),rhsMax =   1.36486576207684E-09  1.42038186245996E-02
 cg2d: Sum(rhs),rhsMax =   1.36492697699886E-09  1.42035642647637E-02
 Computing Diagnostic #    26 "THETA   " (list#  1) Parms "SMR     MR      ", Count=     144
 Computing Diagnostic #    27 "SALT    " (list#  1) Parms "SMR     MR      ", Count=     144
 Computing Diagnostic #    30 "UVEL    " (list#  1) Parms "UUR     MR      ", Count=     144
             Vector  Mate for "UVEL    " :  Diagnostic #     31 "VVEL    " exists
 Computing Diagnostic #    32 "WVEL    " (list#  1) Parms "WM      LR      ", Count=     144
 Computing Diagnostic #    31 "VVEL    " (list#  1) Parms "VVR     MR      ", Count=     144
             Vector  Mate for "VVEL    " :  Diagnostic #     30 "UVEL    " exists
 Computing Diagnostic #   197 "BRGfwFlx" (list#  2) Parms "SM      MR      ", Count=     144
 Computing Diagnostic #   198 "BRGhtFlx" (list#  2) Parms "SM      MR      ", Count=     144
 Computing Diagnostic #   199 "BRGmltRt" (list#  2) Parms "SM      MR      ", Count=     144
 Computing Diagnostic #   201 "BRG_TauX" (list#  2) Parms "UU      MR      ", Count=    1728
 Computing Diagnostic #   202 "BRG_TauY" (list#  2) Parms "VV      MR      ", Count=    1728
 Computing Diagnostic #   203 "BRGhFacC" (list#  2) Parms "SM      MR      ", Count=    1728
 cg2d: Sum(rhs),rhsMax =   1.36500472036616E-09  1.42033093137592E-02
 cg2d: Sum(rhs),rhsMax =   1.36508637726962E-09  1.42030538145108E-02
 cg2d: Sum(rhs),rhsMax =   1.36516213611326E-09  1.42027977875598E-02
 cg2d: Sum(rhs),rhsMax =   1.36520054982991E-09  1.42025412778139E-02
 cg2d: Sum(rhs),rhsMax =   1.36527075755843E-09  1.42022843091538E-02
 cg2d: Sum(rhs),rhsMax =   1.36533512273829E-09  1.42020269258158E-02
 cg2d: Sum(rhs),rhsMax =   1.36540055650780E-09  1.42017691549301E-02
 cg2d: Sum(rhs),rhsMax =   1.36546803031212E-09  1.42015110401017E-02
 cg2d: Sum(rhs),rhsMax =   1.36554878515938E-09  1.42012526080088E-02
 cg2d: Sum(rhs),rhsMax =   1.36560374119910E-09  1.42009939068449E-02
 cg2d: Sum(rhs),rhsMax =   1.36567368524965E-09  1.42007349624115E-02
 cg2d: Sum(rhs),rhsMax =   1.36575734055455E-09  1.42004758201853E-02
 cg2d: Sum(rhs),rhsMax =   1.36582177512334E-09  1.42002165054856E-02
 cg2d: Sum(rhs),rhsMax =   1.36589541066545E-09  1.41999570645428E-02
 cg2d: Sum(rhs),rhsMax =   1.36597377853320E-09  1.41996975226807E-02
 cg2d: Sum(rhs),rhsMax =   1.36605006473278E-09  1.41994379227046E-02
 cg2d: Sum(rhs),rhsMax =   1.36611312540058E-09  1.41991782888212E-02
 cg2d: Sum(rhs),rhsMax =   1.36619048018982E-09  1.41989186598790E-02
 cg2d: Sum(rhs),rhsMax =   1.36627956170976E-09  1.41986590574997E-02
 cg2d: Sum(rhs),rhsMax =   1.36633998559788E-09  1.41983995227261E-02
 cg2d: Sum(rhs),rhsMax =   1.36641224723899E-09  1.41981400713040E-02
 cg2d: Sum(rhs),rhsMax =   1.36647490545094E-09  1.41978807328876E-02
 cg2d: Sum(rhs),rhsMax =   1.36654010329806E-09  1.41976215229346E-02
 cg2d: Sum(rhs),rhsMax =   1.36660842364744E-09  1.41973624694490E-02
 cg2d: Sum(rhs),rhsMax =   1.36666973571398E-09  1.41971035853633E-02
 cg2d: Sum(rhs),rhsMax =   1.36672871631216E-09  1.41968448928567E-02
 cg2d: Sum(rhs),rhsMax =   1.36680818052515E-09  1.41965863988306E-02
 cg2d: Sum(rhs),rhsMax =   1.36686674478970E-09  1.41963281225217E-02
 cg2d: Sum(rhs),rhsMax =   1.36693177610336E-09  1.41960700695650E-02
 cg2d: Sum(rhs),rhsMax =   1.36701518160809E-09  1.41958122531258E-02
 cg2d: Sum(rhs),rhsMax =   1.36708892817250E-09  1.41955546761814E-02
 cg2d: Sum(rhs),rhsMax =   1.36716100940237E-09  1.41952973492085E-02
 cg2d: Sum(rhs),rhsMax =   1.36723060650823E-09  1.41950402727811E-02
 cg2d: Sum(rhs),rhsMax =   1.36729910726885E-09  1.41947834526520E-02
 cg2d: Sum(rhs),rhsMax =   1.36736909295276E-09  1.41945268870230E-02
 cg2d: Sum(rhs),rhsMax =   1.36743455447785E-09  1.41942705817008E-02
 cg2d: Sum(rhs),rhsMax =   1.36750824553111E-09  1.41940145319485E-02
 cg2d: Sum(rhs),rhsMax =   1.36757766222573E-09  1.41937587400208E-02
 cg2d: Sum(rhs),rhsMax =   1.36765922198467E-09  1.41935032012040E-02
 cg2d: Sum(rhs),rhsMax =   1.36772716763378E-09  1.41932479159503E-02
 cg2d: Sum(rhs),rhsMax =   1.36779740311788E-09  1.41929928790575E-02
 cg2d: Sum(rhs),rhsMax =   1.36786580673398E-09  1.41927380907932E-02
 cg2d: Sum(rhs),rhsMax =   1.36793651406286E-09  1.41924835447879E-02
 cg2d: Sum(rhs),rhsMax =   1.36801059369418E-09  1.41922292418447E-02
 cg2d: Sum(rhs),rhsMax =   1.36807357109525E-09  1.41919751736134E-02
 cg2d: Sum(rhs),rhsMax =   1.36813049778084E-09  1.41917213433849E-02
 cg2d: Sum(rhs),rhsMax =   1.36819207352534E-09  1.41914677449107E-02
 cg2d: Sum(rhs),rhsMax =   1.36825943630736E-09  1.41912143795544E-02
 cg2d: Sum(rhs),rhsMax =   1.36832774277895E-09  1.41909612442190E-02
 cg2d: Sum(rhs),rhsMax =   1.36839822806323E-09  1.41907083404669E-02
 cg2d: Sum(rhs),rhsMax =   1.36846481368913E-09  1.41904556648942E-02
 cg2d: Sum(rhs),rhsMax =   1.36853094134803E-09  1.41902032257516E-02
 cg2d: Sum(rhs),rhsMax =   1.36858473165358E-09  1.41899510227627E-02
 cg2d: Sum(rhs),rhsMax =   1.36866984412620E-09  1.41896990605841E-02
 cg2d: Sum(rhs),rhsMax =   1.36873715139707E-09  1.41894473404457E-02
 cg2d: Sum(rhs),rhsMax =   1.36880569379105E-09  1.41891958722744E-02
 cg2d: Sum(rhs),rhsMax =   1.36887717827605E-09  1.41889446604115E-02
 cg2d: Sum(rhs),rhsMax =   1.36894050262182E-09  1.41886937155748E-02
 cg2d: Sum(rhs),rhsMax =   1.36900615843594E-09  1.41884430440994E-02
 cg2d: Sum(rhs),rhsMax =   1.36908169523497E-09  1.41881926607657E-02
 cg2d: Sum(rhs),rhsMax =   1.36916085413663E-09  1.41879425731985E-02
 cg2d: Sum(rhs),rhsMax =   1.36922806426298E-09  1.41876927972915E-02
 cg2d: Sum(rhs),rhsMax =   1.36929032001909E-09  1.41874433433270E-02
 cg2d: Sum(rhs),rhsMax =   1.36935715544517E-09  1.41871942258179E-02
 cg2d: Sum(rhs),rhsMax =   1.36941595563211E-09  1.41869454610670E-02
 cg2d: Sum(rhs),rhsMax =   1.36946903817048E-09  1.41866970647816E-02
 cg2d: Sum(rhs),rhsMax =   1.36953635931913E-09  1.41864490507682E-02
 cg2d: Sum(rhs),rhsMax =   1.36961710028860E-09  1.41862014377228E-02
 cg2d: Sum(rhs),rhsMax =   1.36968397734805E-09  1.41859542406108E-02
 cg2d: Sum(rhs),rhsMax =   1.36976034681435E-09  1.41857074779699E-02
 cg2d: Sum(rhs),rhsMax =   1.36983743792563E-09  1.41854611641971E-02
 cg2d: Sum(rhs),rhsMax =   1.36992066301911E-09  1.41852153165309E-02
 cg2d: Sum(rhs),rhsMax =   1.37000584488067E-09  1.41849699498986E-02
 cg2d: Sum(rhs),rhsMax =   1.37005887190789E-09  1.41847250814594E-02
 cg2d: Sum(rhs),rhsMax =   1.37013844714318E-09  1.41844807229713E-02
 cg2d: Sum(rhs),rhsMax =   1.37021834156759E-09  1.41842368899071E-02
 cg2d: Sum(rhs),rhsMax =   1.37029450286708E-09  1.41839935931603E-02
 cg2d: Sum(rhs),rhsMax =   1.37035241487560E-09  1.41837508432346E-02
 cg2d: Sum(rhs),rhsMax =   1.37041931969062E-09  1.41835086525337E-02
 cg2d: Sum(rhs),rhsMax =   1.37048240811399E-09  1.41832670256120E-02
 cg2d: Sum(rhs),rhsMax =   1.37055061744107E-09  1.41830259695397E-02
 cg2d: Sum(rhs),rhsMax =   1.37063130289938E-09  1.41827854902400E-02
 cg2d: Sum(rhs),rhsMax =   1.37070133021666E-09  1.41825455864239E-02
 cg2d: Sum(rhs),rhsMax =   1.37076740236441E-09  1.41823062609061E-02
 cg2d: Sum(rhs),rhsMax =   1.37084117668440E-09  1.41820675088243E-02
 cg2d: Sum(rhs),rhsMax =   1.37090400142981E-09  1.41818293260055E-02
 cg2d: Sum(rhs),rhsMax =   1.37096291263905E-09  1.41815917040798E-02
 cg2d: Sum(rhs),rhsMax =   1.37102584840676E-09  1.41813546318621E-02
 cg2d: Sum(rhs),rhsMax =   1.37109312792205E-09  1.41811180978131E-02
 cg2d: Sum(rhs),rhsMax =   1.37116690224204E-09  1.41808820858428E-02
 cg2d: Sum(rhs),rhsMax =   1.37122885268681E-09  1.41806465762292E-02
 cg2d: Sum(rhs),rhsMax =   1.37129095578725E-09  1.41804115470214E-02
 cg2d: Sum(rhs),rhsMax =   1.37135240663167E-09  1.41801769712693E-02
 cg2d: Sum(rhs),rhsMax =   1.37143783829341E-09  1.41799428242348E-02
 cg2d: Sum(rhs),rhsMax =   1.37150887868920E-09  1.41797090753853E-02
 cg2d: Sum(rhs),rhsMax =   1.37157485369244E-09  1.41794756887262E-02
 cg2d: Sum(rhs),rhsMax =   1.37164246627464E-09  1.41792426281259E-02
 cg2d: Sum(rhs),rhsMax =   1.37171148051340E-09  1.41790098553679E-02
 cg2d: Sum(rhs),rhsMax =   1.37176482672974E-09  1.41787773284058E-02
 cg2d: Sum(rhs),rhsMax =   1.37182425141713E-09  1.41785450032763E-02
 cg2d: Sum(rhs),rhsMax =   1.37188718718484E-09  1.41783128309602E-02
 cg2d: Sum(rhs),rhsMax =   1.37196337623990E-09  1.41780807659943E-02
 cg2d: Sum(rhs),rhsMax =   1.37203151617804E-09  1.41778487540289E-02
 cg2d: Sum(rhs),rhsMax =   1.37209450745690E-09  1.41776167428572E-02
 cg2d: Sum(rhs),rhsMax =   1.37217150142366E-09  1.41773846773171E-02
 cg2d: Sum(rhs),rhsMax =   1.37223377105755E-09  1.41771525016052E-02
 cg2d: Sum(rhs),rhsMax =   1.37229268226680E-09  1.41769201573179E-02
 cg2d: Sum(rhs),rhsMax =   1.37236240427274E-09  1.41766875844944E-02
 cg2d: Sum(rhs),rhsMax =   1.37242460451770E-09  1.41764547247901E-02
 cg2d: Sum(rhs),rhsMax =   1.37249253628902E-09  1.41762215162840E-02
 cg2d: Sum(rhs),rhsMax =   1.37255833088101E-09  1.41759878991072E-02
 cg2d: Sum(rhs),rhsMax =   1.37261751964601E-09  1.41757538130131E-02
 cg2d: Sum(rhs),rhsMax =   1.37269354216762E-09  1.41755191938105E-02
 cg2d: Sum(rhs),rhsMax =   1.37275810163651E-09  1.41752839843356E-02
 cg2d: Sum(rhs),rhsMax =   1.37283048817771E-09  1.41750481228102E-02
 cg2d: Sum(rhs),rhsMax =   1.37289073165459E-09  1.41748115509981E-02
 cg2d: Sum(rhs),rhsMax =   1.37296787827701E-09  1.41745742124596E-02
 cg2d: Sum(rhs),rhsMax =   1.37304523306625E-09  1.41743360493478E-02
 cg2d: Sum(rhs),rhsMax =   1.37310131320678E-09  1.41740970083148E-02
 cg2d: Sum(rhs),rhsMax =   1.37316730208781E-09  1.41738570363480E-02
 cg2d: Sum(rhs),rhsMax =   1.37324120130788E-09  1.41736160846230E-02
 cg2d: Sum(rhs),rhsMax =   1.37330971594629E-09  1.41733741055877E-02
 cg2d: Sum(rhs),rhsMax =   1.37338383721097E-09  1.41731310549324E-02
 cg2d: Sum(rhs),rhsMax =   1.37344505213299E-09  1.41728868905090E-02
 cg2d: Sum(rhs),rhsMax =   1.37352243467781E-09  1.41726415755235E-02
 cg2d: Sum(rhs),rhsMax =   1.37358868723680E-09  1.41723950741316E-02
 cg2d: Sum(rhs),rhsMax =   1.37367353603146E-09  1.41721473543733E-02
 cg2d: Sum(rhs),rhsMax =   1.37373361297488E-09  1.41718983903582E-02
 cg2d: Sum(rhs),rhsMax =   1.37378831921442E-09  1.41716481590549E-02
 cg2d: Sum(rhs),rhsMax =   1.37386683973784E-09  1.41713966417742E-02
 cg2d: Sum(rhs),rhsMax =   1.37392912324952E-09  1.41711438214553E-02
 cg2d: Sum(rhs),rhsMax =   1.37400781030639E-09  1.41708896896469E-02
 cg2d: Sum(rhs),rhsMax =   1.37406733213830E-09  1.41706342398309E-02
 cg2d: Sum(rhs),rhsMax =   1.37413969092393E-09  1.41703774688923E-02
 cg2d: Sum(rhs),rhsMax =   1.37420770596197E-09  1.41701193813480E-02
 cg2d: Sum(rhs),rhsMax =   1.37427774715704E-09  1.41698599838417E-02
 cg2d: Sum(rhs),rhsMax =   1.37435331171165E-09  1.41695992877812E-02
 cg2d: Sum(rhs),rhsMax =   1.37441792669168E-09  1.41693373100185E-02
 cg2d: Sum(rhs),rhsMax =   1.37448276371632E-09  1.41690740699248E-02
 cg2d: Sum(rhs),rhsMax =   1.37455596904701E-09  1.41688095943731E-02
 cg2d: Sum(rhs),rhsMax =   1.37461887705914E-09  1.41685439103019E-02
 cg2d: Sum(rhs),rhsMax =   1.37469693961556E-09  1.41682770519694E-02
 cg2d: Sum(rhs),rhsMax =   1.37476720285523E-09  1.41680090568463E-02
 cg2d: Sum(rhs),rhsMax =   1.37482664142041E-09  1.41677399663424E-02
(PID.TID 0000.0001)      cg2d_init_res =   5.73478940565516E-05
(PID.TID 0000.0001)      cg2d_iters(min,last) =      -1      38
(PID.TID 0000.0001)      cg2d_last_res =   7.31695510122170E-14
(PID.TID 0000.0001) // =======================================================
(PID.TID 0000.0001) // Begin MONITOR dynamic field statistics
(PID.TID 0000.0001) // =======================================================
(PID.TID 0000.0001) %MON time_tsnumber                =                 28512
(PID.TID 0000.0001) %MON time_secondsf                =   7.1280000000000E+05
(PID.TID 0000.0001) %MON dynstat_eta_max              =   4.7062232191334E-03
(PID.TID 0000.0001) %MON dynstat_eta_min              =  -2.3466679993814E-03
(PID.TID 0000.0001) %MON dynstat_eta_mean             =  -1.3043853746038E-13
(PID.TID 0000.0001) %MON dynstat_eta_sd               =   2.3693395270060E-03
(PID.TID 0000.0001) %MON dynstat_eta_del2             =   1.9116139341223E-05
(PID.TID 0000.0001) %MON dynstat_uvel_max             =   4.3781067827455E-02
(PID.TID 0000.0001) %MON dynstat_uvel_min             =  -4.5244384456646E-02
(PID.TID 0000.0001) %MON dynstat_uvel_mean            =   4.5963300909609E-09
(PID.TID 0000.0001) %MON dynstat_uvel_sd              =   6.6855298084055E-03
(PID.TID 0000.0001) %MON dynstat_uvel_del2            =   1.0135489321619E-04
(PID.TID 0000.0001) %MON dynstat_vvel_max             =   2.3685227830863E-02
(PID.TID 0000.0001) %MON dynstat_vvel_min             =  -3.5093663852891E-02
(PID.TID 0000.0001) %MON dynstat_vvel_mean            =  -8.0919746139481E-03
(PID.TID 0000.0001) %MON dynstat_vvel_sd              =   1.1600514507963E-02
(PID.TID 0000.0001) %MON dynstat_vvel_del2            =   9.1241003605000E-05
(PID.TID 0000.0001) %MON dynstat_wvel_max             =   1.3701387995423E-03
(PID.TID 0000.0001) %MON dynstat_wvel_min             =  -1.1469004891334E-03
(PID.TID 0000.0001) %MON dynstat_wvel_mean            =   3.0458081444780E-23
(PID.TID 0000.0001) %MON dynstat_wvel_sd              =   1.2637700339947E-04
(PID.TID 0000.0001) %MON dynstat_wvel_del2            =   6.4759316445259E-06
(PID.TID 0000.0001) %MON dynstat_theta_max            =   2.6931451612903E+00
(PID.TID 0000.0001) %MON dynstat_theta_min            =  -7.4959724400702E-01
(PID.TID 0000.0001) %MON dynstat_theta_mean           =   2.2188799906379E+00
(PID.TID 0000.0001) %MON dynstat_theta_sd             =   5.3423928367345E-01
(PID.TID 0000.0001) %MON dynstat_theta_del2           =   1.6883540723758E-03
(PID.TID 0000.0001) %MON dynstat_salt_max             =   3.4699999999999E+01
(PID.TID 0000.0001) %MON dynstat_salt_min             =   3.3056335419193E+01
(PID.TID 0000.0001) %MON dynstat_salt_mean            =   3.4363968942895E+01
(PID.TID 0000.0001) %MON dynstat_salt_sd              =   3.2224171339933E-01
(PID.TID 0000.0001) %MON dynstat_salt_del2            =   1.9142796106921E-04
(PID.TID 0000.0001) %MON advcfl_uvel_max              =   2.2622192228323E-03
(PID.TID 0000.0001) %MON advcfl_vvel_max              =   1.7546831926445E-03
(PID.TID 0000.0001) %MON advcfl_wvel_max              =   6.6060603291559E-04
(PID.TID 0000.0001) %MON advcfl_W_hf_max              =   1.4111654485035E-03
(PID.TID 0000.0001) %MON pe_b_mean                    =   4.6838100248651E-08
(PID.TID 0000.0001) %MON ke_max                       =   1.0046227517214E-03
(PID.TID 0000.0001) %MON ke_mean                      =   1.1241023451923E-04
(PID.TID 0000.0001) %MON ke_vol                       =   3.2921708585402E+10
(PID.TID 0000.0001) // =======================================================
(PID.TID 0000.0001) // End MONITOR dynamic field statistics
(PID.TID 0000.0001) // =======================================================
(PID.TID 0000.0001) // =======================================================
(PID.TID 0000.0001) // Begin OBCS MONITOR field statistics
(PID.TID 0000.0001) // =======================================================
(PID.TID 0000.0001) %MON obc_E_uVel_max               =   0.0000000000000E+00
(PID.TID 0000.0001) %MON obc_E_uVel_min               =   0.0000000000000E+00
(PID.TID 0000.0001) %MON obc_E_uVel_mean              =   0.0000000000000E+00
(PID.TID 0000.0001) %MON obc_E_uVel_sd                =   0.0000000000000E+00
(PID.TID 0000.0001) %MON obc_E_uVel_Int               =   0.0000000000000E+00
(PID.TID 0000.0001) %MON obc_N_vVel_max               =  -3.6115799844846E-05
(PID.TID 0000.0001) %MON obc_N_vVel_min               =  -3.0000000000000E-02
(PID.TID 0000.0001) %MON obc_N_vVel_mean              =  -1.3225455303334E-02
(PID.TID 0000.0001) %MON obc_N_vVel_sd                =   1.1350864292742E-02
(PID.TID 0000.0001) %MON obc_N_vVel_Int               =  -5.9514548865004E+04
(PID.TID 0000.0001) %MON obc_S_vVel_max               =  -3.6115799844846E-05
(PID.TID 0000.0001) %MON obc_S_vVel_min               =  -3.0000000000000E-02
(PID.TID 0000.0001) %MON obc_S_vVel_mean              =  -1.3225455303334E-02
(PID.TID 0000.0001) %MON obc_S_vVel_sd                =   1.1350864292742E-02
(PID.TID 0000.0001) %MON obc_S_vVel_Int               =  -5.9514548865004E+04
(PID.TID 0000.0001) // =======================================================
(PID.TID 0000.0001) // End OBCS MONITOR field statistics
(PID.TID 0000.0001) // =======================================================
 Computing Diagnostic #    26 "THETA   " (list#  1) Parms "SMR     MR      ", Count=     144
 Computing Diagnostic #    27 "SALT    " (list#  1) Parms "SMR     MR      ", Count=     144
 Computing Diagnostic #    30 "UVEL    " (list#  1) Parms "UUR     MR      ", Count=     144
             Vector  Mate for "UVEL    " :  Diagnostic #     31 "VVEL    " exists
 Computing Diagnostic #    32 "WVEL    " (list#  1) Parms "WM      LR      ", Count=     144
 Computing Diagnostic #    31 "VVEL    " (list#  1) Parms "VVR     MR      ", Count=     144
             Vector  Mate for "VVEL    " :  Diagnostic #     30 "UVEL    " exists
 Computing Diagnostic #   197 "BRGfwFlx" (list#  2) Parms "SM      MR      ", Count=     144
 Computing Diagnostic #   198 "BRGhtFlx" (list#  2) Parms "SM      MR      ", Count=     144
 Computing Diagnostic #   199 "BRGmltRt" (list#  2) Parms "SM      MR      ", Count=     144
 Computing Diagnostic #   201 "BRG_TauX" (list#  2) Parms "UU      MR      ", Count=    1728
 Computing Diagnostic #   202 "BRG_TauY" (list#  2) Parms "VV      MR      ", Count=    1728
 Computing Diagnostic #   203 "BRGhFacC" (list#  2) Parms "SM      MR      ", Count=    1728
 cg2d: Sum(rhs),rhsMax =   1.37489744589381E-09  1.41674698230265E-02
 cg2d: Sum(rhs),rhsMax =   1.37496669605497E-09  1.41671986758461E-02
 cg2d: Sum(rhs),rhsMax =   1.37505028197094E-09  1.41669265772356E-02
 cg2d: Sum(rhs),rhsMax =   1.37512107256654E-09  1.41666535792305E-02
 cg2d: Sum(rhs),rhsMax =   1.37517958131994E-09  1.41663797404013E-02
 cg2d: Sum(rhs),rhsMax =   1.37523976928566E-09  1.41661051204583E-02
 cg2d: Sum(rhs),rhsMax =   1.37531300237193E-09  1.41658297801073E-02
 cg2d: Sum(rhs),rhsMax =   1.37538519462410E-09  1.41655537819508E-02
 cg2d: Sum(rhs),rhsMax =   1.37545705380937E-09  1.41652771945222E-02
 cg2d: Sum(rhs),rhsMax =   1.37552273737906E-09  1.41650000821703E-02
 cg2d: Sum(rhs),rhsMax =   1.37557862323057E-09  1.41647225136074E-02
 cg2d: Sum(rhs),rhsMax =   1.37566492919294E-09  1.41644445577901E-02
 cg2d: Sum(rhs),rhsMax =   1.37574081293668E-09  1.41641662825903E-02
 cg2d: Sum(rhs),rhsMax =   1.37582252535129E-09  1.41638877578675E-02
 cg2d: Sum(rhs),rhsMax =   1.37588682114220E-09  1.41636090522555E-02
 cg2d: Sum(rhs),rhsMax =   1.37594947935415E-09  1.41633302354182E-02
 cg2d: Sum(rhs),rhsMax =   1.37602773619960E-09  1.41630513739359E-02
 cg2d: Sum(rhs),rhsMax =   1.37610271788713E-09  1.41627725362428E-02
 cg2d: Sum(rhs),rhsMax =   1.37617332807149E-09  1.41624937860698E-02
 cg2d: Sum(rhs),rhsMax =   1.37624255047708E-09  1.41622151889714E-02
 cg2d: Sum(rhs),rhsMax =   1.37632993890691E-09  1.41619368064612E-02
 cg2d: Sum(rhs),rhsMax =   1.37640336628220E-09  1.41616586963937E-02
 cg2d: Sum(rhs),rhsMax =   1.37647324094381E-09  1.41613809193599E-02
 cg2d: Sum(rhs),rhsMax =   1.37654000698095E-09  1.41611035279878E-02
 cg2d: Sum(rhs),rhsMax =   1.37660828569697E-09  1.41608265741791E-02
 cg2d: Sum(rhs),rhsMax =   1.37667624522386E-09  1.41605501078150E-02
 cg2d: Sum(rhs),rhsMax =   1.37673619726719E-09  1.41602741726411E-02
 cg2d: Sum(rhs),rhsMax =   1.37680432332754E-09  1.41599988118810E-02
 cg2d: Sum(rhs),rhsMax =   1.37685596257597E-09  1.41597240643157E-02
 cg2d: Sum(rhs),rhsMax =   1.37694328161686E-09  1.41594499647074E-02
 cg2d: Sum(rhs),rhsMax =   1.37701249014466E-09  1.41591765414388E-02
 cg2d: Sum(rhs),rhsMax =   1.37707747982496E-09  1.41589038247738E-02
 cg2d: Sum(rhs),rhsMax =   1.37715258641258E-09  1.41586318347242E-02
 cg2d: Sum(rhs),rhsMax =   1.37722491744263E-09  1.41583605938736E-02
 cg2d: Sum(rhs),rhsMax =   1.37729831706235E-09  1.41580901153958E-02
 cg2d: Sum(rhs),rhsMax =   1.37736841376856E-09  1.41578204029755E-02
 cg2d: Sum(rhs),rhsMax =   1.37743780270760E-09  1.41575514668446E-02
 cg2d: Sum(rhs),rhsMax =   1.37751664242014E-09  1.41572833139815E-02
 cg2d: Sum(rhs),rhsMax =   1.37758700280433E-09  1.41570159384668E-02
 cg2d: Sum(rhs),rhsMax =   1.37766063834643E-09  1.41567493355801E-02
 cg2d: Sum(rhs),rhsMax =   1.37773108199735E-09  1.41564834936554E-02
 cg2d: Sum(rhs),rhsMax =   1.37780231668216E-09  1.41562184000336E-02
 cg2d: Sum(rhs),rhsMax =   1.37787194154360E-09  1.41559540365452E-02
 cg2d: Sum(rhs),rhsMax =   1.37796467292173E-09  1.41556903826119E-02
 cg2d: Sum(rhs),rhsMax =   1.37801470234677E-09  1.41554274149233E-02
 cg2d: Sum(rhs),rhsMax =   1.37808739419931E-09  1.41551651042447E-02
 cg2d: Sum(rhs),rhsMax =   1.37818077783347E-09  1.41549034203989E-02
 cg2d: Sum(rhs),rhsMax =   1.37823881474208E-09  1.41546423294235E-02
 cg2d: Sum(rhs),rhsMax =   1.37831532298627E-09  1.41543817944337E-02
 cg2d: Sum(rhs),rhsMax =   1.37839097080761E-09  1.41541217778891E-02
 cg2d: Sum(rhs),rhsMax =   1.37845909686796E-09  1.41538622372215E-02
 cg2d: Sum(rhs),rhsMax =   1.37852389225923E-09  1.41536031301638E-02
 cg2d: Sum(rhs),rhsMax =   1.37857560089660E-09  1.41533444120867E-02
 cg2d: Sum(rhs),rhsMax =   1.37863000182481E-09  1.41530860354805E-02
 cg2d: Sum(rhs),rhsMax =   1.37870903582638E-09  1.41528279530498E-02
 cg2d: Sum(rhs),rhsMax =   1.37878693184934E-09  1.41525701172602E-02
 cg2d: Sum(rhs),rhsMax =   1.37886070616933E-09  1.41523124787508E-02
 cg2d: Sum(rhs),rhsMax =   1.37892516849369E-09  1.41520549865355E-02
 cg2d: Sum(rhs),rhsMax =   1.37899797136853E-09  1.41517975899679E-02
 cg2d: Sum(rhs),rhsMax =   1.37905843689001E-09  1.41515402403933E-02
 cg2d: Sum(rhs),rhsMax =   1.37913870601469E-09  1.41512828865186E-02
 cg2d: Sum(rhs),rhsMax =   1.37922408216529E-09  1.41510254815794E-02
 cg2d: Sum(rhs),rhsMax =   1.37929270782600E-09  1.41507679734210E-02
 cg2d: Sum(rhs),rhsMax =   1.37935836364012E-09  1.41505103168181E-02
 cg2d: Sum(rhs),rhsMax =   1.37944404510204E-09  1.41502524639579E-02
 cg2d: Sum(rhs),rhsMax =   1.37951193524000E-09  1.41499943684945E-02
 cg2d: Sum(rhs),rhsMax =   1.37957721635384E-09  1.41497359886698E-02
 cg2d: Sum(rhs),rhsMax =   1.37964466240259E-09  1.41494772831004E-02
 cg2d: Sum(rhs),rhsMax =   1.37970514180186E-09  1.41492182094024E-02
 cg2d: Sum(rhs),rhsMax =   1.37978495295954E-09  1.41489587321984E-02
 cg2d: Sum(rhs),rhsMax =   1.37985332882007E-09  1.41486988139121E-02
 cg2d: Sum(rhs),rhsMax =   1.37991848503383E-09  1.41484384226235E-02
 cg2d: Sum(rhs),rhsMax =   1.37999939253675E-09  1.41481775274255E-02
 cg2d: Sum(rhs),rhsMax =   1.38006236993782E-09  1.41479161008671E-02
 cg2d: Sum(rhs),rhsMax =   1.38013221684385E-09  1.41476541169478E-02
 cg2d: Sum(rhs),rhsMax =   1.38020178619414E-09  1.41473915526495E-02
 cg2d: Sum(rhs),rhsMax =   1.38026866325358E-09  1.41471283906755E-02
 cg2d: Sum(rhs),rhsMax =   1.38034818297772E-09  1.41468646121602E-02
 cg2d: Sum(rhs),rhsMax =   1.38041270081324E-09  1.41466002036351E-02
 cg2d: Sum(rhs),rhsMax =   1.38048418529824E-09  1.41463351547090E-02
 cg2d: Sum(rhs),rhsMax =   1.38054628839868E-09  1.41460694585792E-02
 cg2d: Sum(rhs),rhsMax =   1.38061438670345E-09  1.41458031096011E-02
 cg2d: Sum(rhs),rhsMax =   1.38068023680660E-09  1.41455361058669E-02
 cg2d: Sum(rhs),rhsMax =   1.38075498257173E-09  1.41452684487541E-02
 cg2d: Sum(rhs),rhsMax =   1.38082008327434E-09  1.41450001427315E-02
 cg2d: Sum(rhs),rhsMax =   1.38088389334268E-09  1.41447311936805E-02
 cg2d: Sum(rhs),rhsMax =   1.38095229695878E-09  1.41444616130672E-02
 cg2d: Sum(rhs),rhsMax =   1.38101977076310E-09  1.41441914106756E-02
 cg2d: Sum(rhs),rhsMax =   1.38108764702327E-09  1.41439206037923E-02
 cg2d: Sum(rhs),rhsMax =   1.38114918113441E-09  1.41436492082824E-02
 cg2d: Sum(rhs),rhsMax =   1.38121192261309E-09  1.41433772446194E-02
 cg2d: Sum(rhs),rhsMax =   1.38129778448626E-09  1.41431047353547E-02
 cg2d: Sum(rhs),rhsMax =   1.38137153105067E-09  1.41428317041325E-02
 cg2d: Sum(rhs),rhsMax =   1.38144352901381E-09  1.41425581777051E-02
 cg2d: Sum(rhs),rhsMax =   1.38152460305019E-09  1.41422841837338E-02
 cg2d: Sum(rhs),rhsMax =   1.38158946783040E-09  1.41420097527216E-02
 cg2d: Sum(rhs),rhsMax =   1.38165738572393E-09  1.41417349164953E-02
 cg2d: Sum(rhs),rhsMax =   1.38172706609652E-09  1.41414597079825E-02
 cg2d: Sum(rhs),rhsMax =   1.38178926634147E-09  1.41411841617038E-02
 cg2d: Sum(rhs),rhsMax =   1.38186390108430E-09  1.41409083155634E-02
 cg2d: Sum(rhs),rhsMax =   1.38193211041138E-09  1.41406322019059E-02
 cg2d: Sum(rhs),rhsMax =   1.38198799626288E-09  1.41403558570954E-02
 cg2d: Sum(rhs),rhsMax =   1.38205893951415E-09  1.41400793222247E-02
 cg2d: Sum(rhs),rhsMax =   1.38213326894565E-09  1.41398026420802E-02
 cg2d: Sum(rhs),rhsMax =   1.38219954926022E-09  1.41395258541697E-02
 cg2d: Sum(rhs),rhsMax =   1.38227641832689E-09  1.41392490008087E-02
 cg2d: Sum(rhs),rhsMax =   1.38235235758177E-09  1.41389721212677E-02
 cg2d: Sum(rhs),rhsMax =   1.38239995839395E-09  1.41386952561280E-02
 cg2d: Sum(rhs),rhsMax =   1.38247088776744E-09  1.41384184444665E-02
 cg2d: Sum(rhs),rhsMax =   1.38253751502670E-09  1.41381417297287E-02
 cg2d: Sum(rhs),rhsMax =   1.38260770887744E-09  1.41378651519933E-02
 cg2d: Sum(rhs),rhsMax =   1.38267033933381E-09  1.41375887535215E-02
 cg2d: Sum(rhs),rhsMax =   1.38274075522915E-09  1.41373125734165E-02
 cg2d: Sum(rhs),rhsMax =   1.38281038009058E-09  1.41370366528520E-02
 cg2d: Sum(rhs),rhsMax =   1.38288967777012E-09  1.41367610317660E-02
 cg2d: Sum(rhs),rhsMax =   1.38295465357263E-09  1.41364857516818E-02
 cg2d: Sum(rhs),rhsMax =   1.38302824748138E-09  1.41362108505745E-02
 cg2d: Sum(rhs),rhsMax =   1.38309845520990E-09  1.41359363654559E-02
 cg2d: Sum(rhs),rhsMax =   1.38316949560569E-09  1.41356623370512E-02
 cg2d: Sum(rhs),rhsMax =   1.38326160248337E-09  1.41353887991254E-02
 cg2d: Sum(rhs),rhsMax =   1.38333096366683E-09  1.41351157909151E-02
 cg2d: Sum(rhs),rhsMax =   1.38341195443648E-09  1.41348433460119E-02
 cg2d: Sum(rhs),rhsMax =   1.38348968392599E-09  1.41345715010498E-02
 cg2d: Sum(rhs),rhsMax =   1.38354665224494E-09  1.41343002881932E-02
 cg2d: Sum(rhs),rhsMax =   1.38362672708059E-09  1.41340297413580E-02
 cg2d: Sum(rhs),rhsMax =   1.38370717661651E-09  1.41337598935538E-02
 cg2d: Sum(rhs),rhsMax =   1.38377184710770E-09  1.41334907756308E-02
 cg2d: Sum(rhs),rhsMax =   1.38383819681120E-09  1.41332224182560E-02
 cg2d: Sum(rhs),rhsMax =   1.38390456039250E-09  1.41329548522664E-02
 cg2d: Sum(rhs),rhsMax =   1.38396991089529E-09  1.41326881057156E-02
 cg2d: Sum(rhs),rhsMax =   1.38403934146769E-09  1.41324222071127E-02
 cg2d: Sum(rhs),rhsMax =   1.38411775096881E-09  1.41321571844093E-02
 cg2d: Sum(rhs),rhsMax =   1.38419550821389E-09  1.41318930645688E-02
 cg2d: Sum(rhs),rhsMax =   1.38428352114417E-09  1.41316298706247E-02
 cg2d: Sum(rhs),rhsMax =   1.38434320950953E-09  1.41313676299904E-02
 cg2d: Sum(rhs),rhsMax =   1.38440620078839E-09  1.41311063643307E-02
 cg2d: Sum(rhs),rhsMax =   1.38447009412346E-09  1.41308460979844E-02
 cg2d: Sum(rhs),rhsMax =   1.38453501441482E-09  1.41305868513236E-02
 cg2d: Sum(rhs),rhsMax =   1.38460630461079E-09  1.41303286456922E-02
 cg2d: Sum(rhs),rhsMax =   1.38466590970943E-09  1.41300715031215E-02
 cg2d: Sum(rhs),rhsMax =   1.38473964239605E-09  1.41298154390924E-02
 cg2d: Sum(rhs),rhsMax =   1.38481832945292E-09  1.41295604753791E-02
 cg2d: Sum(rhs),rhsMax =   1.38488991108243E-09  1.41293066266796E-02
 cg2d: Sum(rhs),rhsMax =   1.38496925039533E-09  1.41290539103330E-02
 Computing Diagnostic #    26 "THETA   " (list#  1) Parms "SMR     MR      ", Count=     144
 Computing Diagnostic #    27 "SALT    " (list#  1) Parms "SMR     MR      ", Count=     144
 Computing Diagnostic #    30 "UVEL    " (list#  1) Parms "UUR     MR      ", Count=     144
             Vector  Mate for "UVEL    " :  Diagnostic #     31 "VVEL    " exists
 Computing Diagnostic #    32 "WVEL    " (list#  1) Parms "WM      LR      ", Count=     144
 Computing Diagnostic #    31 "VVEL    " (list#  1) Parms "VVR     MR      ", Count=     144
             Vector  Mate for "VVEL    " :  Diagnostic #     30 "UVEL    " exists
 Computing Diagnostic #   197 "BRGfwFlx" (list#  2) Parms "SM      MR      ", Count=     144
 Computing Diagnostic #   198 "BRGhtFlx" (list#  2) Parms "SM      MR      ", Count=     144
 Computing Diagnostic #   199 "BRGmltRt" (list#  2) Parms "SM      MR      ", Count=     144
 Computing Diagnostic #   201 "BRG_TauX" (list#  2) Parms "UU      MR      ", Count=    1728
 Computing Diagnostic #   202 "BRG_TauY" (list#  2) Parms "VV      MR      ", Count=    1728
 Computing Diagnostic #   203 "BRGhFacC" (list#  2) Parms "SM      MR      ", Count=    1728
 cg2d: Sum(rhs),rhsMax =   1.38503999935757E-09  1.41288023403326E-02
 cg2d: Sum(rhs),rhsMax =   1.38511413450004E-09  1.41285519309317E-02
 cg2d: Sum(rhs),rhsMax =   1.38519075376653E-09  1.41283026950380E-02
 cg2d: Sum(rhs),rhsMax =   1.38525554915780E-09  1.41280546436265E-02
 cg2d: Sum(rhs),rhsMax =   1.38533728932799E-09  1.41278077870077E-02
 cg2d: Sum(rhs),rhsMax =   1.38541529637326E-09  1.41275621359741E-02
 cg2d: Sum(rhs),rhsMax =   1.38547440187153E-09  1.41273176967056E-02
 cg2d: Sum(rhs),rhsMax =   1.38553951645193E-09  1.41270744755114E-02
 cg2d: Sum(rhs),rhsMax =   1.38561288831607E-09  1.41268324789827E-02
 cg2d: Sum(rhs),rhsMax =   1.38567829433001E-09  1.41265917083768E-02
 cg2d: Sum(rhs),rhsMax =   1.38573078012350E-09  1.41263521404931E-02
 cg2d: Sum(rhs),rhsMax =   1.38579779596082E-09  1.41261135957769E-02
 cg2d: Sum(rhs),rhsMax =   1.38585801168212E-09  1.41258760710635E-02
 cg2d: Sum(rhs),rhsMax =   1.38593683751687E-09  1.41256394444006E-02
 cg2d: Sum(rhs),rhsMax =   1.38599447196963E-09  1.41254035860610E-02
 cg2d: Sum(rhs),rhsMax =   1.38605531219138E-09  1.41251683937799E-02
 cg2d: Sum(rhs),rhsMax =   1.38611658262455E-09  1.41249337613829E-02
 cg2d: Sum(rhs),rhsMax =   1.38617936573660E-09  1.41246995923936E-02
 cg2d: Sum(rhs),rhsMax =   1.38624058065862E-09  1.41244658077774E-02
 cg2d: Sum(rhs),rhsMax =   1.38630305845933E-09  1.41242323285686E-02
 cg2d: Sum(rhs),rhsMax =   1.38636543911552E-09  1.41239990665989E-02
 cg2d: Sum(rhs),rhsMax =   1.38642972102865E-09  1.41237659574848E-02
 cg2d: Sum(rhs),rhsMax =   1.38649670911040E-09  1.41235329612382E-02
 cg2d: Sum(rhs),rhsMax =   1.38655463499671E-09  1.41233000410472E-02
 cg2d: Sum(rhs),rhsMax =   1.38661969406595E-09  1.41230671708646E-02
 cg2d: Sum(rhs),rhsMax =   1.38670525062778E-09  1.41228343315655E-02
 cg2d: Sum(rhs),rhsMax =   1.38676958805206E-09  1.41226015209152E-02
 cg2d: Sum(rhs),rhsMax =   1.38683620143354E-09  1.41223687444555E-02
 cg2d: Sum(rhs),rhsMax =   1.38689730533326E-09  1.41221360207406E-02
 cg2d: Sum(rhs),rhsMax =   1.38697918428132E-09  1.41219033808485E-02
 cg2d: Sum(rhs),rhsMax =   1.38705381902415E-09  1.41216708636359E-02
 cg2d: Sum(rhs),rhsMax =   1.38711032937611E-09  1.41214385212329E-02
 cg2d: Sum(rhs),rhsMax =   1.38718432574070E-09  1.41212064131827E-02
 cg2d: Sum(rhs),rhsMax =   1.38725048115518E-09  1.41209746087097E-02
 cg2d: Sum(rhs),rhsMax =   1.38731756638144E-09  1.41207431903216E-02
 cg2d: Sum(rhs),rhsMax =   1.38739836286206E-09  1.41205122439780E-02
 cg2d: Sum(rhs),rhsMax =   1.38747129063699E-09  1.41202818636551E-02
 cg2d: Sum(rhs),rhsMax =   1.38753045164641E-09  1.41200521503507E-02
 cg2d: Sum(rhs),rhsMax =   1.38760039569696E-09  1.41198232089101E-02
 cg2d: Sum(rhs),rhsMax =   1.38765297863497E-09  1.41195951505054E-02
 cg2d: Sum(rhs),rhsMax =   1.38773255387026E-09  1.41193680847622E-02
 cg2d: Sum(rhs),rhsMax =   1.38780356651047E-09  1.41191421293873E-02
 cg2d: Sum(rhs),rhsMax =   1.38786475367692E-09  1.41189173968538E-02
 cg2d: Sum(rhs),rhsMax =   1.38793913861956E-09  1.41186940028599E-02
 cg2d: Sum(rhs),rhsMax =   1.38799775839527E-09  1.41184720586651E-02
 cg2d: Sum(rhs),rhsMax =   1.38804968907724E-09  1.41182516723316E-02
 cg2d: Sum(rhs),rhsMax =   1.38811322158983E-09  1.41180329501773E-02
 cg2d: Sum(rhs),rhsMax =   1.38818037620503E-09  1.41178159897859E-02
 cg2d: Sum(rhs),rhsMax =   1.38825000106646E-09  1.41176008845573E-02
 cg2d: Sum(rhs),rhsMax =   1.38831920959426E-09  1.41173877193756E-02
 cg2d: Sum(rhs),rhsMax =   1.38839130470192E-09  1.41171765709523E-02
 cg2d: Sum(rhs),rhsMax =   1.38845970831802E-09  1.41169675153997E-02
 cg2d: Sum(rhs),rhsMax =   1.38853632758451E-09  1.41167606492686E-02
 cg2d: Sum(rhs),rhsMax =   1.38861259990630E-09  1.41165560146698E-02
 cg2d: Sum(rhs),rhsMax =   1.38868146148940E-09  1.41163536415217E-02
 cg2d: Sum(rhs),rhsMax =   1.38875566602081E-09  1.41161535430931E-02
 cg2d: Sum(rhs),rhsMax =   1.38882322309186E-09  1.41159557241771E-02
 cg2d: Sum(rhs),rhsMax =   1.38887525091835E-09  1.41157601673797E-02
 cg2d: Sum(rhs),rhsMax =   1.38893616052904E-09  1.41155668432968E-02
 cg2d: Sum(rhs),rhsMax =   1.38899237944745E-09  1.41153757054004E-02
 cg2d: Sum(rhs),rhsMax =   1.38905074942297E-09  1.41151866929863E-02
 cg2d: Sum(rhs),rhsMax =   1.38912081837361E-09  1.41149997276991E-02
 cg2d: Sum(rhs),rhsMax =   1.38918812564448E-09  1.41148147126928E-02
 cg2d: Sum(rhs),rhsMax =   1.38925201897955E-09  1.41146315378854E-02
 cg2d: Sum(rhs),rhsMax =   1.38930558724049E-09  1.41144500746543E-02
 cg2d: Sum(rhs),rhsMax =   1.38938370530806E-09  1.41142701793994E-02
 cg2d: Sum(rhs),rhsMax =   1.38943001548597E-09  1.41140916934005E-02
 cg2d: Sum(rhs),rhsMax =   1.38948717809395E-09  1.41139144420867E-02
 cg2d: Sum(rhs),rhsMax =   1.38956388062716E-09  1.41137382388582E-02
 cg2d: Sum(rhs),rhsMax =   1.38961823992201E-09  1.41135628787929E-02
 cg2d: Sum(rhs),rhsMax =   1.38967780338728E-09  1.41133881509436E-02
 cg2d: Sum(rhs),rhsMax =   1.38973259289354E-09  1.41132138263993E-02
 cg2d: Sum(rhs),rhsMax =   1.38977833408216E-09  1.41130396694023E-02
 cg2d: Sum(rhs),rhsMax =   1.38985097042355E-09  1.41128654323086E-02
 cg2d: Sum(rhs),rhsMax =   1.38991750053830E-09  1.41126908608704E-02
 cg2d: Sum(rhs),rhsMax =   1.38998061671725E-09  1.41125156932419E-02
 cg2d: Sum(rhs),rhsMax =   1.39004097121642E-09  1.41123396593367E-02
 cg2d: Sum(rhs),rhsMax =   1.39008338173596E-09  1.41121624894763E-02
 cg2d: Sum(rhs),rhsMax =   1.39015818301225E-09  1.41119839064717E-02
 cg2d: Sum(rhs),rhsMax =   1.39021855138921E-09  1.41118036334908E-02
 cg2d: Sum(rhs),rhsMax =   1.39026899714789E-09  1.41116213954361E-02
 cg2d: Sum(rhs),rhsMax =   1.39035039037338E-09  1.41114369157343E-02
 cg2d: Sum(rhs),rhsMax =   1.39041540780926E-09  1.41112499213392E-02
 cg2d: Sum(rhs),rhsMax =   1.39047320879548E-09  1.41110601444738E-02
 cg2d: Sum(rhs),rhsMax =   1.39054277814576E-09  1.41108673274159E-02
 cg2d: Sum(rhs),rhsMax =   1.39059944115338E-09  1.41106712136729E-02
 cg2d: Sum(rhs),rhsMax =   1.39068437321477E-09  1.41104715585933E-02
 cg2d: Sum(rhs),rhsMax =   1.39074822491647E-09  1.41102681295417E-02
 cg2d: Sum(rhs),rhsMax =   1.39082320660400E-09  1.41100607039948E-02
 cg2d: Sum(rhs),rhsMax =   1.39088307538060E-09  1.41098490745677E-02
 cg2d: Sum(rhs),rhsMax =   1.39095376883169E-09  1.41096330467442E-02
 cg2d: Sum(rhs),rhsMax =   1.39102830643001E-09  1.41094124346078E-02
 cg2d: Sum(rhs),rhsMax =   1.39109478103361E-09  1.41091870768846E-02
 cg2d: Sum(rhs),rhsMax =   1.39115743924556E-09  1.41089568409900E-02
 cg2d: Sum(rhs),rhsMax =   1.39123218501069E-09  1.41087216086632E-02
 cg2d: Sum(rhs),rhsMax =   1.39129102683100E-09  1.41084812775023E-02
 cg2d: Sum(rhs),rhsMax =   1.39136384358363E-09  1.41082357578748E-02
 cg2d: Sum(rhs),rhsMax =   1.39143581379120E-09  1.41079849885836E-02
 cg2d: Sum(rhs),rhsMax =   1.39149732014676E-09  1.41077289236132E-02
 cg2d: Sum(rhs),rhsMax =   1.39157253775668E-09  1.41074675456818E-02
 cg2d: Sum(rhs),rhsMax =   1.39164610390985E-09  1.41072008574161E-02
 cg2d: Sum(rhs),rhsMax =   1.39171292545814E-09  1.41069288856105E-02
 cg2d: Sum(rhs),rhsMax =   1.39178445157651E-09  1.41066516808284E-02
 cg2d: Sum(rhs),rhsMax =   1.39184683223270E-09  1.41063693168531E-02
 cg2d: Sum(rhs),rhsMax =   1.39192918302555E-09  1.41060818881779E-02
 cg2d: Sum(rhs),rhsMax =   1.39200578841425E-09  1.41057895139229E-02
 cg2d: Sum(rhs),rhsMax =   1.39208163052462E-09  1.41054923300098E-02
 cg2d: Sum(rhs),rhsMax =   1.39214205441274E-09  1.41051905038049E-02
 cg2d: Sum(rhs),rhsMax =   1.39222286477114E-09  1.41048842216763E-02
 cg2d: Sum(rhs),rhsMax =   1.39227875062264E-09  1.41045736626685E-02
 cg2d: Sum(rhs),rhsMax =   1.39235352414335E-09  1.41042590408089E-02
 cg2d: Sum(rhs),rhsMax =   1.39242251062655E-09  1.41039405922611E-02
 cg2d: Sum(rhs),rhsMax =   1.39250637409827E-09  1.41036185697903E-02
 cg2d: Sum(rhs),rhsMax =   1.39258005127374E-09  1.41032932368072E-02
 cg2d: Sum(rhs),rhsMax =   1.39266596865806E-09  1.41029648752106E-02
 cg2d: Sum(rhs),rhsMax =   1.39272102184229E-09  1.41026337760515E-02
 cg2d: Sum(rhs),rhsMax =   1.39280197097857E-09  1.41023002428337E-02
 cg2d: Sum(rhs),rhsMax =   1.39288285072592E-09  1.41019645890078E-02
 cg2d: Sum(rhs),rhsMax =   1.39295100454184E-09  1.41016271333484E-02
 cg2d: Sum(rhs),rhsMax =   1.39301919999113E-09  1.41012882023262E-02
 cg2d: Sum(rhs),rhsMax =   1.39308604929500E-09  1.41009481256469E-02
 cg2d: Sum(rhs),rhsMax =   1.39316853886573E-09  1.41006072383881E-02
 cg2d: Sum(rhs),rhsMax =   1.39324882186820E-09  1.41002658754307E-02
 cg2d: Sum(rhs),rhsMax =   1.39333135307229E-09  1.40999243734120E-02
 cg2d: Sum(rhs),rhsMax =   1.39340455840298E-09  1.40995830624352E-02
 cg2d: Sum(rhs),rhsMax =   1.39349025374269E-09  1.40992422735975E-02
 cg2d: Sum(rhs),rhsMax =   1.39357274331342E-09  1.40989023309794E-02
 cg2d: Sum(rhs),rhsMax =   1.39366265750063E-09  1.40985635521930E-02
 cg2d: Sum(rhs),rhsMax =   1.39374040086793E-09  1.40982262458485E-02
 cg2d: Sum(rhs),rhsMax =   1.39381008124051E-09  1.40978907126410E-02
 cg2d: Sum(rhs),rhsMax =   1.39388275921526E-09  1.40975572370282E-02
 cg2d: Sum(rhs),rhsMax =   1.39396318099561E-09  1.40972260945025E-02
 cg2d: Sum(rhs),rhsMax =   1.39403640020408E-09  1.40968975445606E-02
 cg2d: Sum(rhs),rhsMax =   1.39412266453309E-09  1.40965718308249E-02
 cg2d: Sum(rhs),rhsMax =   1.39419530087448E-09  1.40962491811739E-02
 cg2d: Sum(rhs),rhsMax =   1.39426675760390E-09  1.40959298051288E-02
 cg2d: Sum(rhs),rhsMax =   1.39435550605693E-09  1.40956138925304E-02
 cg2d: Sum(rhs),rhsMax =   1.39443273594608E-09  1.40953016135401E-02
 cg2d: Sum(rhs),rhsMax =   1.39451018787984E-09  1.40949931186001E-02
 cg2d: Sum(rhs),rhsMax =   1.39458251890989E-09  1.40946885373583E-02
 cg2d: Sum(rhs),rhsMax =   1.39464699511205E-09  1.40943879775035E-02
 cg2d: Sum(rhs),rhsMax =   1.39472373927862E-09  1.40940915243783E-02
 cg2d: Sum(rhs),rhsMax =   1.39479534866371E-09  1.40937992422740E-02
 cg2d: Sum(rhs),rhsMax =   1.39486595884808E-09  1.40935111697469E-02
 Computing Diagnostic #    26 "THETA   " (list#  1) Parms "SMR     MR      ", Count=     144
 Computing Diagnostic #    27 "SALT    " (list#  1) Parms "SMR     MR      ", Count=     144
 Computing Diagnostic #    30 "UVEL    " (list#  1) Parms "UUR     MR      ", Count=     144
             Vector  Mate for "UVEL    " :  Diagnostic #     31 "VVEL    " exists
 Computing Diagnostic #    32 "WVEL    " (list#  1) Parms "WM      LR      ", Count=     144
 Computing Diagnostic #    31 "VVEL    " (list#  1) Parms "VVR     MR      ", Count=     144
             Vector  Mate for "VVEL    " :  Diagnostic #     30 "UVEL    " exists
 Computing Diagnostic #   197 "BRGfwFlx" (list#  2) Parms "SM      MR      ", Count=     144
 Computing Diagnostic #   198 "BRGhtFlx" (list#  2) Parms "SM      MR      ", Count=     144
 Computing Diagnostic #   199 "BRGmltRt" (list#  2) Parms "SM      MR      ", Count=     144
 Computing Diagnostic #   201 "BRG_TauX" (list#  2) Parms "UU      MR      ", Count=    1728
 Computing Diagnostic #   202 "BRG_TauY" (list#  2) Parms "VV      MR      ", Count=    1728
 Computing Diagnostic #   203 "BRGhFacC" (list#  2) Parms "SM      MR      ", Count=    1728
 cg2d: Sum(rhs),rhsMax =   1.39494836515208E-09  1.40932273277619E-02
 cg2d: Sum(rhs),rhsMax =   1.39502379092882E-09  1.40929477100030E-02
 cg2d: Sum(rhs),rhsMax =   1.39508583851811E-09  1.40926722922877E-02
 cg2d: Sum(rhs),rhsMax =   1.39514627628401E-09  1.40924010256669E-02
 cg2d: Sum(rhs),rhsMax =   1.39522339515086E-09  1.40921338401754E-02
 cg2d: Sum(rhs),rhsMax =   1.39530725862258E-09  1.40918706463714E-02
 cg2d: Sum(rhs),rhsMax =   1.39537564836090E-09  1.40916113339547E-02
 cg2d: Sum(rhs),rhsMax =   1.39543623878247E-09  1.40913557728043E-02
 cg2d: Sum(rhs),rhsMax =   1.39549898026115E-09  1.40911038145935E-02
 cg2d: Sum(rhs),rhsMax =   1.39556537159802E-09  1.40908552945216E-02
 cg2d: Sum(rhs),rhsMax =   1.39563209600180E-09  1.40906100312586E-02
 cg2d: Sum(rhs),rhsMax =   1.39570505153230E-09  1.40903678261154E-02
 cg2d: Sum(rhs),rhsMax =   1.39578461288981E-09  1.40901284699131E-02
 cg2d: Sum(rhs),rhsMax =   1.39585080993765E-09  1.40898917393617E-02
 cg2d: Sum(rhs),rhsMax =   1.39592033765457E-09  1.40896573974680E-02
 cg2d: Sum(rhs),rhsMax =   1.39599624915387E-09  1.40894252028359E-02
 cg2d: Sum(rhs),rhsMax =   1.39606845528384E-09  1.40891949012655E-02
 cg2d: Sum(rhs),rhsMax =   1.39614458882775E-09  1.40889662341958E-02
 cg2d: Sum(rhs),rhsMax =   1.39621642025745E-09  1.40887389356616E-02
 cg2d: Sum(rhs),rhsMax =   1.39628492101807E-09  1.40885127384369E-02
 cg2d: Sum(rhs),rhsMax =   1.39634188933702E-09  1.40882873721093E-02
 cg2d: Sum(rhs),rhsMax =   1.39640674023944E-09  1.40880625658083E-02
 cg2d: Sum(rhs),rhsMax =   1.39648470565135E-09  1.40878380495203E-02
 cg2d: Sum(rhs),rhsMax =   1.39657073405797E-09  1.40876135551961E-02
 cg2d: Sum(rhs),rhsMax =   1.39664048381949E-09  1.40873888224732E-02
 cg2d: Sum(rhs),rhsMax =   1.39670827681293E-09  1.40871635906666E-02
 cg2d: Sum(rhs),rhsMax =   1.39678552057987E-09  1.40869376111247E-02
 cg2d: Sum(rhs),rhsMax =   1.39684952493724E-09  1.40867106395217E-02
 cg2d: Sum(rhs),rhsMax =   1.39691397338382E-09  1.40864824471560E-02
 cg2d: Sum(rhs),rhsMax =   1.39698447254588E-09  1.40862528106043E-02
 cg2d: Sum(rhs),rhsMax =   1.39705183532790E-09  1.40860215228649E-02
 cg2d: Sum(rhs),rhsMax =   1.39712690028215E-09  1.40857883870011E-02
 cg2d: Sum(rhs),rhsMax =   1.39719415204187E-09  1.40855532230823E-02
 cg2d: Sum(rhs),rhsMax =   1.39726069603441E-09  1.40853158896357E-02
 cg2d: Sum(rhs),rhsMax =   1.39733499771033E-09  1.40850762433080E-02
 cg2d: Sum(rhs),rhsMax =   1.39740664872878E-09  1.40848341513005E-02
 cg2d: Sum(rhs),rhsMax =   1.39746467175961E-09  1.40845894978197E-02
 cg2d: Sum(rhs),rhsMax =   1.39754095795919E-09  1.40843421869270E-02
 cg2d: Sum(rhs),rhsMax =   1.39760787665200E-09  1.40840921403453E-02
 cg2d: Sum(rhs),rhsMax =   1.39767901419230E-09  1.40838392965869E-02
 cg2d: Sum(rhs),rhsMax =   1.39774650187441E-09  1.40835836177947E-02
 cg2d: Sum(rhs),rhsMax =   1.39781834718189E-09  1.40833250811201E-02
 cg2d: Sum(rhs),rhsMax =   1.39789001207813E-09  1.40830636851435E-02
 cg2d: Sum(rhs),rhsMax =   1.39796675624471E-09  1.40827994460058E-02
 cg2d: Sum(rhs),rhsMax =   1.39803435494912E-09  1.40825323992878E-02
 cg2d: Sum(rhs),rhsMax =   1.39810815702468E-09  1.40822626013023E-02
 cg2d: Sum(rhs),rhsMax =   1.39817987743207E-09  1.40819901192769E-02
 cg2d: Sum(rhs),rhsMax =   1.39824463118998E-09  1.40817150456373E-02
 cg2d: Sum(rhs),rhsMax =   1.39831202172758E-09  1.40814374854264E-02
 cg2d: Sum(rhs),rhsMax =   1.39839656521090E-09  1.40811575596498E-02
 cg2d: Sum(rhs),rhsMax =   1.39845728053256E-09  1.40808754073542E-02
 cg2d: Sum(rhs),rhsMax =   1.39853301162063E-09  1.40805911773867E-02
 cg2d: Sum(rhs),rhsMax =   1.39858344350152E-09  1.40803050350336E-02
 cg2d: Sum(rhs),rhsMax =   1.39866132564670E-09  1.40800171579121E-02
 cg2d: Sum(rhs),rhsMax =   1.39872356752502E-09  1.40797277335354E-02
 cg2d: Sum(rhs),rhsMax =   1.39879526017683E-09  1.40794369595704E-02
 cg2d: Sum(rhs),rhsMax =   1.39886977001957E-09  1.40791450429481E-02
 cg2d: Sum(rhs),rhsMax =   1.39894494599613E-09  1.40788522794496E-02
 cg2d: Sum(rhs),rhsMax =   1.39901926154984E-09  1.40785589416463E-02
 cg2d: Sum(rhs),rhsMax =   1.39908847007764E-09  1.40782652552344E-02
 cg2d: Sum(rhs),rhsMax =   1.39917037678128E-09  1.40779714468479E-02
 cg2d: Sum(rhs),rhsMax =   1.39923719832957E-09  1.40776777476475E-02
 cg2d: Sum(rhs),rhsMax =   1.39930871057015E-09  1.40773843886620E-02
 cg2d: Sum(rhs),rhsMax =   1.39938802212747E-09  1.40770916002111E-02
 cg2d: Sum(rhs),rhsMax =   1.39947506361260E-09  1.40767996108222E-02
 cg2d: Sum(rhs),rhsMax =   1.39954417499588E-09  1.40765086479269E-02
 cg2d: Sum(rhs),rhsMax =   1.39960955325424E-09  1.40762189321846E-02
 cg2d: Sum(rhs),rhsMax =   1.39968893420050E-09  1.40759306796037E-02
 cg2d: Sum(rhs),rhsMax =   1.39976884250270E-09  1.40756440994221E-02
 cg2d: Sum(rhs),rhsMax =   1.39985278924115E-09  1.40753593937360E-02
 cg2d: Sum(rhs),rhsMax =   1.39992209491346E-09  1.40750767567346E-02
 cg2d: Sum(rhs),rhsMax =   1.39999657700063E-09  1.40747963705953E-02
 cg2d: Sum(rhs),rhsMax =   1.40005969317958E-09  1.40745184086403E-02
 cg2d: Sum(rhs),rhsMax =   1.40013264871008E-09  1.40742430303346E-02
 cg2d: Sum(rhs),rhsMax =   1.40020152417097E-09  1.40739703871968E-02
 cg2d: Sum(rhs),rhsMax =   1.40028377781931E-09  1.40737006109829E-02
 cg2d: Sum(rhs),rhsMax =   1.40034996098937E-09  1.40734338297538E-02
 cg2d: Sum(rhs),rhsMax =   1.40040258556073E-09  1.40731701469123E-02
 cg2d: Sum(rhs),rhsMax =   1.40047777541508E-09  1.40729096552221E-02
 cg2d: Sum(rhs),rhsMax =   1.40054622066454E-09  1.40726524369251E-02
 cg2d: Sum(rhs),rhsMax =   1.40062586528877E-09  1.40723985565900E-02
 cg2d: Sum(rhs),rhsMax =   1.40069766896289E-09  1.40721480622580E-02
 cg2d: Sum(rhs),rhsMax =   1.40077142940509E-09  1.40719009849335E-02
 cg2d: Sum(rhs),rhsMax =   1.40084645272598E-09  1.40716573432532E-02
 cg2d: Sum(rhs),rhsMax =   1.40092221156962E-09  1.40714171411458E-02
 cg2d: Sum(rhs),rhsMax =   1.40098521672627E-09  1.40711803659617E-02
 cg2d: Sum(rhs),rhsMax =   1.40105727020057E-09  1.40709469903087E-02
 cg2d: Sum(rhs),rhsMax =   1.40112553503879E-09  1.40707169720148E-02
 cg2d: Sum(rhs),rhsMax =   1.40117854818822E-09  1.40704902623599E-02
 cg2d: Sum(rhs),rhsMax =   1.40125432090965E-09  1.40702667857242E-02
 cg2d: Sum(rhs),rhsMax =   1.40131986570147E-09  1.40700464614933E-02
 cg2d: Sum(rhs),rhsMax =   1.40140352100637E-09  1.40698291979369E-02
 cg2d: Sum(rhs),rhsMax =   1.40145746396758E-09  1.40696148879319E-02
 cg2d: Sum(rhs),rhsMax =   1.40153970373813E-09  1.40694034182178E-02
 cg2d: Sum(rhs),rhsMax =   1.40159518713379E-09  1.40691946629188E-02
 cg2d: Sum(rhs),rhsMax =   1.40167151496673E-09  1.40689884884858E-02
 cg2d: Sum(rhs),rhsMax =   1.40172529139448E-09  1.40687847526413E-02
 cg2d: Sum(rhs),rhsMax =   1.40178947616310E-09  1.40685833077375E-02
 cg2d: Sum(rhs),rhsMax =   1.40183310792796E-09  1.40683839956678E-02
 cg2d: Sum(rhs),rhsMax =   1.40190223318903E-09  1.40681866578203E-02
 cg2d: Sum(rhs),rhsMax =   1.40196874942600E-09  1.40679911272517E-02
 cg2d: Sum(rhs),rhsMax =   1.40203089415980E-09  1.40677972368946E-02
 cg2d: Sum(rhs),rhsMax =   1.40209090171428E-09  1.40676048150686E-02
 cg2d: Sum(rhs),rhsMax =   1.40214005683870E-09  1.40674136903509E-02
 cg2d: Sum(rhs),rhsMax =   1.40219102995331E-09  1.40672236905254E-02
 cg2d: Sum(rhs),rhsMax =   1.40225886458012E-09  1.40670346435987E-02
 cg2d: Sum(rhs),rhsMax =   1.40233959167180E-09  1.40668463820612E-02
 cg2d: Sum(rhs),rhsMax =   1.40240187518348E-09  1.40666587345866E-02
 cg2d: Sum(rhs),rhsMax =   1.40248698765610E-09  1.40664715415408E-02
 cg2d: Sum(rhs),rhsMax =   1.40256478653455E-09  1.40662846398623E-02
 cg2d: Sum(rhs),rhsMax =   1.40262146341996E-09  1.40660978772767E-02
 cg2d: Sum(rhs),rhsMax =   1.40269248993796E-09  1.40659111031302E-02
 cg2d: Sum(rhs),rhsMax =   1.40275732696260E-09  1.40657241766920E-02
 cg2d: Sum(rhs),rhsMax =   1.40282661875712E-09  1.40655369598857E-02
 cg2d: Sum(rhs),rhsMax =   1.40289316274966E-09  1.40653493282393E-02
 cg2d: Sum(rhs),rhsMax =   1.40297068407236E-09  1.40651611586635E-02
 cg2d: Sum(rhs),rhsMax =   1.40302389151081E-09  1.40649723431184E-02
 cg2d: Sum(rhs),rhsMax =   1.40308226148633E-09  1.40647827791342E-02
 cg2d: Sum(rhs),rhsMax =   1.40315219165910E-09  1.40645923876506E-02
 cg2d: Sum(rhs),rhsMax =   1.40322921338143E-09  1.40644010306988E-02
 cg2d: Sum(rhs),rhsMax =   1.40328360043185E-09  1.40642086607892E-02
 cg2d: Sum(rhs),rhsMax =   1.40335329468222E-09  1.40640152208751E-02
 cg2d: Sum(rhs),rhsMax =   1.40341875620731E-09  1.40638206463696E-02
 cg2d: Sum(rhs),rhsMax =   1.40347714006062E-09  1.40636248951906E-02
 cg2d: Sum(rhs),rhsMax =   1.40353842437158E-09  1.40634279360053E-02
 cg2d: Sum(rhs),rhsMax =   1.40359665556922E-09  1.40632297430804E-02
 cg2d: Sum(rhs),rhsMax =   1.40365975787038E-09  1.40630303025272E-02
 cg2d: Sum(rhs),rhsMax =   1.40372122259258E-09  1.40628296092514E-02
 cg2d: Sum(rhs),rhsMax =   1.40376808788201E-09  1.40626276682968E-02
 cg2d: Sum(rhs),rhsMax =   1.40383138447220E-09  1.40624244901941E-02
 cg2d: Sum(rhs),rhsMax =   1.40390103708921E-09  1.40622200975848E-02
 cg2d: Sum(rhs),rhsMax =   1.40395713110752E-09  1.40620145170116E-02
 cg2d: Sum(rhs),rhsMax =   1.40401633375031E-09  1.40618077850233E-02
 cg2d: Sum(rhs),rhsMax =   1.40407738213888E-09  1.40615999426296E-02
 cg2d: Sum(rhs),rhsMax =   1.40413429494668E-09  1.40613910355071E-02
 cg2d: Sum(rhs),rhsMax =   1.40417691363304E-09  1.40611811202463E-02
 cg2d: Sum(rhs),rhsMax =   1.40424506744896E-09  1.40609702524627E-02
 cg2d: Sum(rhs),rhsMax =   1.40429533279640E-09  1.40607584944802E-02
 cg2d: Sum(rhs),rhsMax =   1.40434844309034E-09  1.40605459135404E-02
 cg2d: Sum(rhs),rhsMax =   1.40441544504988E-09  1.40603325738393E-02
 cg2d: Sum(rhs),rhsMax =   1.40447797836174E-09  1.40601185494236E-02
 cg2d: Sum(rhs),rhsMax =   1.40454832486814E-09  1.40599039087075E-02
 cg2d: Sum(rhs),rhsMax =   1.40461797748515E-09  1.40596887244166E-02
 cg2d: Sum(rhs),rhsMax =   1.40468184306464E-09  1.40594730691716E-02
 Computing Diagnostic #    26 "THETA   " (list#  1) Parms "SMR     MR      ", Count=     144
 Computing Diagnostic #    27 "SALT    " (list#  1) Parms "SMR     MR      ", Count=     144
 Computing Diagnostic #    30 "UVEL    " (list#  1) Parms "UUR     MR      ", Count=     144
             Vector  Mate for "UVEL    " :  Diagnostic #     31 "VVEL    " exists
 Computing Diagnostic #    32 "WVEL    " (list#  1) Parms "WM      LR      ", Count=     144
 Computing Diagnostic #    31 "VVEL    " (list#  1) Parms "VVR     MR      ", Count=     144
             Vector  Mate for "VVEL    " :  Diagnostic #     30 "UVEL    " exists
 Computing Diagnostic #   197 "BRGfwFlx" (list#  2) Parms "SM      MR      ", Count=     144
 Computing Diagnostic #   198 "BRGhtFlx" (list#  2) Parms "SM      MR      ", Count=     144
 Computing Diagnostic #   199 "BRGmltRt" (list#  2) Parms "SM      MR      ", Count=     144
 Computing Diagnostic #   201 "BRG_TauX" (list#  2) Parms "UU      MR      ", Count=    1728
 Computing Diagnostic #   202 "BRG_TauY" (list#  2) Parms "VV      MR      ", Count=    1728
 Computing Diagnostic #   203 "BRGhFacC" (list#  2) Parms "SM      MR      ", Count=    1728
 cg2d: Sum(rhs),rhsMax =   1.40474885890196E-09  1.40592570137505E-02
 cg2d: Sum(rhs),rhsMax =   1.40482056543156E-09  1.40590406266510E-02
 cg2d: Sum(rhs),rhsMax =   1.40488701227959E-09  1.40588239952033E-02
 cg2d: Sum(rhs),rhsMax =   1.40495029499199E-09  1.40586071483653E-02
 cg2d: Sum(rhs),rhsMax =   1.40500529266507E-09  1.40583901091182E-02
 cg2d: Sum(rhs),rhsMax =   1.40508263357653E-09  1.40581729775551E-02
 cg2d: Sum(rhs),rhsMax =   1.40515556135146E-09  1.40579557931123E-02
 cg2d: Sum(rhs),rhsMax =   1.40521289049289E-09  1.40577385901975E-02
 cg2d: Sum(rhs),rhsMax =   1.40528255698769E-09  1.40575214064942E-02
 cg2d: Sum(rhs),rhsMax =   1.40535200143788E-09  1.40573042806163E-02
 cg2d: Sum(rhs),rhsMax =   1.40542037729841E-09  1.40570872492870E-02
 cg2d: Sum(rhs),rhsMax =   1.40549334670670E-09  1.40568703400877E-02
 cg2d: Sum(rhs),rhsMax =   1.40556666305969E-09  1.40566535780241E-02
 cg2d: Sum(rhs),rhsMax =   1.40562440853476E-09  1.40564369820627E-02
 cg2d: Sum(rhs),rhsMax =   1.40570466378165E-09  1.40562205686255E-02
 cg2d: Sum(rhs),rhsMax =   1.40577309515333E-09  1.40560043475074E-02
 cg2d: Sum(rhs),rhsMax =   1.40583192309585E-09  1.40557883253007E-02
 cg2d: Sum(rhs),rhsMax =   1.40590003527841E-09  1.40555725058804E-02
 cg2d: Sum(rhs),rhsMax =   1.40596151387840E-09  1.40553568861878E-02
 cg2d: Sum(rhs),rhsMax =   1.40602425535707E-09  1.40551414626214E-02
 cg2d: Sum(rhs),rhsMax =   1.40608848175905E-09  1.40549262228846E-02
 cg2d: Sum(rhs),rhsMax =   1.40615574739655E-09  1.40547111567171E-02
 cg2d: Sum(rhs),rhsMax =   1.40622567756932E-09  1.40544962459409E-02
 cg2d: Sum(rhs),rhsMax =   1.40630738998393E-09  1.40542814710543E-02
 cg2d: Sum(rhs),rhsMax =   1.40636916001746E-09  1.40540668089021E-02
 cg2d: Sum(rhs),rhsMax =   1.40643921509032E-09  1.40538522329257E-02
 cg2d: Sum(rhs),rhsMax =   1.40650999180814E-09  1.40536377134341E-02
 cg2d: Sum(rhs),rhsMax =   1.40658111547065E-09  1.40534232200531E-02
 cg2d: Sum(rhs),rhsMax =   1.40665200321077E-09  1.40532087173463E-02
 cg2d: Sum(rhs),rhsMax =   1.40672143378318E-09  1.40529941688453E-02
 cg2d: Sum(rhs),rhsMax =   1.40677990090321E-09  1.40527795362043E-02
 cg2d: Sum(rhs),rhsMax =   1.40684304483774E-09  1.40525647813040E-02
 cg2d: Sum(rhs),rhsMax =   1.40691366889989E-09  1.40523498609992E-02
 cg2d: Sum(rhs),rhsMax =   1.40697051231875E-09  1.40521347338738E-02
 cg2d: Sum(rhs),rhsMax =   1.40705011530962E-09  1.40519193574280E-02
 cg2d: Sum(rhs),rhsMax =   1.40712100304974E-09  1.40517036886316E-02
 cg2d: Sum(rhs),rhsMax =   1.40720039787379E-09  1.40514876844554E-02
 cg2d: Sum(rhs),rhsMax =   1.40725978092782E-09  1.40512713007783E-02
 cg2d: Sum(rhs),rhsMax =   1.40731788722537E-09  1.40510544935695E-02
 cg2d: Sum(rhs),rhsMax =   1.40738438958454E-09  1.40508372234432E-02
 cg2d: Sum(rhs),rhsMax =   1.40745125276620E-09  1.40506194461722E-02
 cg2d: Sum(rhs),rhsMax =   1.40751377220028E-09  1.40504011223534E-02
 cg2d: Sum(rhs),rhsMax =   1.40757355771015E-09  1.40501822109367E-02
 cg2d: Sum(rhs),rhsMax =   1.40765142597754E-09  1.40499626742433E-02
 cg2d: Sum(rhs),rhsMax =   1.40770294032588E-09  1.40497424768205E-02
 cg2d: Sum(rhs),rhsMax =   1.40778322332835E-09  1.40495215809979E-02
 cg2d: Sum(rhs),rhsMax =   1.40785227920048E-09  1.40492999548821E-02
 cg2d: Sum(rhs),rhsMax =   1.40791338310020E-09  1.40490775658242E-02
 cg2d: Sum(rhs),rhsMax =   1.40797465353337E-09  1.40488543852895E-02
 cg2d: Sum(rhs),rhsMax =   1.40804798376415E-09  1.40486303845707E-02
 cg2d: Sum(rhs),rhsMax =   1.40811942661578E-09  1.40484055389083E-02
 cg2d: Sum(rhs),rhsMax =   1.40819177152363E-09  1.40481798240587E-02
 cg2d: Sum(rhs),rhsMax =   1.40825731631544E-09  1.40479532193580E-02
 cg2d: Sum(rhs),rhsMax =   1.40830089256916E-09  1.40477257054899E-02
 cg2d: Sum(rhs),rhsMax =   1.40837433382224E-09  1.40474972663354E-02
 cg2d: Sum(rhs),rhsMax =   1.40844233498250E-09  1.40472678871100E-02
 cg2d: Sum(rhs),rhsMax =   1.40851127983233E-09  1.40470375548343E-02
 cg2d: Sum(rhs),rhsMax =   1.40858287533963E-09  1.40468062595451E-02
 cg2d: Sum(rhs),rhsMax =   1.40865942521717E-09  1.40465739921222E-02
 cg2d: Sum(rhs),rhsMax =   1.40873597509472E-09  1.40463407467829E-02
 cg2d: Sum(rhs),rhsMax =   1.40882545907051E-09  1.40461065181938E-02
 cg2d: Sum(rhs),rhsMax =   1.40889482025397E-09  1.40458713038244E-02
 cg2d: Sum(rhs),rhsMax =   1.40896065647933E-09  1.40456351025423E-02
 cg2d: Sum(rhs),rhsMax =   1.40902216283489E-09  1.40453979138965E-02
 cg2d: Sum(rhs),rhsMax =   1.40909196810757E-09  1.40451597402986E-02
 cg2d: Sum(rhs),rhsMax =   1.40915712432133E-09  1.40449205837028E-02
 cg2d: Sum(rhs),rhsMax =   1.40922165603463E-09  1.40446804489707E-02
 cg2d: Sum(rhs),rhsMax =   1.40928933800577E-09  1.40444393403273E-02
 cg2d: Sum(rhs),rhsMax =   1.40936320947027E-09  1.40441972647548E-02
 cg2d: Sum(rhs),rhsMax =   1.40946036786271E-09  1.40439542283567E-02
 cg2d: Sum(rhs),rhsMax =   1.40952655103277E-09  1.40437102390970E-02
 cg2d: Sum(rhs),rhsMax =   1.40959303951416E-09  1.40434653044934E-02
 cg2d: Sum(rhs),rhsMax =   1.40966462114367E-09  1.40432194318905E-02
 cg2d: Sum(rhs),rhsMax =   1.40973929751986E-09  1.40429726330704E-02
 cg2d: Sum(rhs),rhsMax =   1.40981226692816E-09  1.40427249121839E-02
 cg2d: Sum(rhs),rhsMax =   1.40988913599482E-09  1.40424762816479E-02
 cg2d: Sum(rhs),rhsMax =   1.40996340991517E-09  1.40422267497849E-02
 cg2d: Sum(rhs),rhsMax =   1.41003822506924E-09  1.40419763247174E-02
 cg2d: Sum(rhs),rhsMax =   1.41010642051853E-09  1.40417250142619E-02
 cg2d: Sum(rhs),rhsMax =   1.41018942356741E-09  1.40414728275519E-02
 cg2d: Sum(rhs),rhsMax =   1.41024801558753E-09  1.40412197710369E-02
 cg2d: Sum(rhs),rhsMax =   1.41031115952206E-09  1.40409658556603E-02
 cg2d: Sum(rhs),rhsMax =   1.41038634937640E-09  1.40407110850031E-02
 cg2d: Sum(rhs),rhsMax =   1.41046326007643E-09  1.40404554685904E-02
 cg2d: Sum(rhs),rhsMax =   1.41054469493529E-09  1.40401990113193E-02
 cg2d: Sum(rhs),rhsMax =   1.41061187730607E-09  1.40399417208079E-02
 cg2d: Sum(rhs),rhsMax =   1.41069439463237E-09  1.40396836029431E-02
 cg2d: Sum(rhs),rhsMax =   1.41075640058830E-09  1.40394246618919E-02
 cg2d: Sum(rhs),rhsMax =   1.41082116822400E-09  1.40391649035229E-02
 cg2d: Sum(rhs),rhsMax =   1.41089472049938E-09  1.40389043340825E-02
 cg2d: Sum(rhs),rhsMax =   1.41097895867137E-09  1.40386429576142E-02
 cg2d: Sum(rhs),rhsMax =   1.41104926354441E-09  1.40383807781523E-02
 cg2d: Sum(rhs),rhsMax =   1.41112127538534E-09  1.40381178014328E-02
 cg2d: Sum(rhs),rhsMax =   1.41117548202452E-09  1.40378540328335E-02
 cg2d: Sum(rhs),rhsMax =   1.41124940900017E-09  1.40375894776704E-02
 cg2d: Sum(rhs),rhsMax =   1.41133724151921E-09  1.40373241426979E-02
 cg2d: Sum(rhs),rhsMax =   1.41139579190597E-09  1.40370580328113E-02
 cg2d: Sum(rhs),rhsMax =   1.41146115628654E-09  1.40367911555558E-02
 cg2d: Sum(rhs),rhsMax =   1.41153698451912E-09  1.40365235175522E-02
 cg2d: Sum(rhs),rhsMax =   1.41162838362963E-09  1.40362551283305E-02
 cg2d: Sum(rhs),rhsMax =   1.41169488598880E-09  1.40359859978824E-02
 cg2d: Sum(rhs),rhsMax =   1.41178588264346E-09  1.40357161377410E-02
 cg2d: Sum(rhs),rhsMax =   1.41184633428715E-09  1.40354455582064E-02
 cg2d: Sum(rhs),rhsMax =   1.41192758873476E-09  1.40351742757665E-02
 cg2d: Sum(rhs),rhsMax =   1.41199198167019E-09  1.40349023034775E-02
 cg2d: Sum(rhs),rhsMax =   1.41205776238440E-09  1.40346296594183E-02
 cg2d: Sum(rhs),rhsMax =   1.41212298798710E-09  1.40343563627126E-02
 cg2d: Sum(rhs),rhsMax =   1.41218634008844E-09  1.40340824345832E-02
 cg2d: Sum(rhs),rhsMax =   1.41225001137890E-09  1.40338078993455E-02
 cg2d: Sum(rhs),rhsMax =   1.41231636108241E-09  1.40335327810272E-02
 cg2d: Sum(rhs),rhsMax =   1.41237928297233E-09  1.40332571082964E-02
 cg2d: Sum(rhs),rhsMax =   1.41244502205318E-09  1.40329809129789E-02
 cg2d: Sum(rhs),rhsMax =   1.41252250174251E-09  1.40327042272230E-02
 cg2d: Sum(rhs),rhsMax =   1.41260615704741E-09  1.40324270867148E-02
 cg2d: Sum(rhs),rhsMax =   1.41266758013625E-09  1.40321495298862E-02
 cg2d: Sum(rhs),rhsMax =   1.41273294451683E-09  1.40318715990526E-02
 cg2d: Sum(rhs),rhsMax =   1.41281303323026E-09  1.40315933375618E-02
 cg2d: Sum(rhs),rhsMax =   1.41288857002930E-09  1.40313147933464E-02
 cg2d: Sum(rhs),rhsMax =   1.41296389866152E-09  1.40310360157014E-02
 cg2d: Sum(rhs),rhsMax =   1.41302579359515E-09  1.40307570566642E-02
 cg2d: Sum(rhs),rhsMax =   1.41310738110967E-09  1.40304779733983E-02
 cg2d: Sum(rhs),rhsMax =   1.41317306467936E-09  1.40301988213745E-02
 cg2d: Sum(rhs),rhsMax =   1.41326216007709E-09  1.40299196641550E-02
 cg2d: Sum(rhs),rhsMax =   1.41332204273148E-09  1.40296405658919E-02
 cg2d: Sum(rhs),rhsMax =   1.41338594994433E-09  1.40293615899266E-02
 cg2d: Sum(rhs),rhsMax =   1.41346544191290E-09  1.40290828068199E-02
 cg2d: Sum(rhs),rhsMax =   1.41351592930494E-09  1.40288042874440E-02
 cg2d: Sum(rhs),rhsMax =   1.41361097827364E-09  1.40285261048582E-02
 cg2d: Sum(rhs),rhsMax =   1.41368575179435E-09  1.40282483338800E-02
 cg2d: Sum(rhs),rhsMax =   1.41374244255754E-09  1.40279710506416E-02
 cg2d: Sum(rhs),rhsMax =   1.41382311413807E-09  1.40276943360174E-02
 cg2d: Sum(rhs),rhsMax =   1.41390812946618E-09  1.40274182644560E-02
 cg2d: Sum(rhs),rhsMax =   1.41397368813578E-09  1.40271429278251E-02
 cg2d: Sum(rhs),rhsMax =   1.41404951636837E-09  1.40268684031378E-02
 cg2d: Sum(rhs),rhsMax =   1.41410635978723E-09  1.40265947738095E-02
 cg2d: Sum(rhs),rhsMax =   1.41418439458807E-09  1.40263221226943E-02
 cg2d: Sum(rhs),rhsMax =   1.41423713018174E-09  1.40260505333151E-02
 cg2d: Sum(rhs),rhsMax =   1.41430625544281E-09  1.40257800930521E-02
 cg2d: Sum(rhs),rhsMax =   1.41437890566198E-09  1.40255108834157E-02
 cg2d: Sum(rhs),rhsMax =   1.41445452572775E-09  1.40252429907479E-02
 cg2d: Sum(rhs),rhsMax =   1.41453269930647E-09  1.40249764970408E-02
 cg2d: Sum(rhs),rhsMax =   1.41460379521341E-09  1.40247114828284E-02
 cg2d: Sum(rhs),rhsMax =   1.41467282332997E-09  1.40244480316147E-02
 cg2d: Sum(rhs),rhsMax =   1.41474275350273E-09  1.40241862231771E-02
 Computing Diagnostic #    26 "THETA   " (list#  1) Parms "SMR     MR      ", Count=     144
 Computing Diagnostic #    27 "SALT    " (list#  1) Parms "SMR     MR      ", Count=     144
 Computing Diagnostic #    30 "UVEL    " (list#  1) Parms "UUR     MR      ", Count=     144
             Vector  Mate for "UVEL    " :  Diagnostic #     31 "VVEL    " exists
 Computing Diagnostic #    32 "WVEL    " (list#  1) Parms "WM      LR      ", Count=     144
 Computing Diagnostic #    31 "VVEL    " (list#  1) Parms "VVR     MR      ", Count=     144
             Vector  Mate for "VVEL    " :  Diagnostic #     30 "UVEL    " exists
 Computing Diagnostic #   197 "BRGfwFlx" (list#  2) Parms "SM      MR      ", Count=     144
 Computing Diagnostic #   198 "BRGhtFlx" (list#  2) Parms "SM      MR      ", Count=     144
 Computing Diagnostic #   199 "BRGmltRt" (list#  2) Parms "SM      MR      ", Count=     144
 Computing Diagnostic #   201 "BRG_TauX" (list#  2) Parms "UU      MR      ", Count=    1728
 Computing Diagnostic #   202 "BRG_TauY" (list#  2) Parms "VV      MR      ", Count=    1728
 Computing Diagnostic #   203 "BRGhFacC" (list#  2) Parms "SM      MR      ", Count=    1728
 cg2d: Sum(rhs),rhsMax =   1.41480549498141E-09  1.40239261329771E-02
 cg2d: Sum(rhs),rhsMax =   1.41488457061634E-09  1.40236678362653E-02
 cg2d: Sum(rhs),rhsMax =   1.41495910821465E-09  1.40234114067952E-02
 cg2d: Sum(rhs),rhsMax =   1.41503238293428E-09  1.40231569123541E-02
 cg2d: Sum(rhs),rhsMax =   1.41509326478939E-09  1.40229044201463E-02
 cg2d: Sum(rhs),rhsMax =   1.41518030627452E-09  1.40226539924107E-02
 cg2d: Sum(rhs),rhsMax =   1.41527523034313E-09  1.40224056895124E-02
 cg2d: Sum(rhs),rhsMax =   1.41534364783702E-09  1.40221595674520E-02
 cg2d: Sum(rhs),rhsMax =   1.41541237064224E-09  1.40219156778044E-02
 cg2d: Sum(rhs),rhsMax =   1.41548267551528E-09  1.40216740669113E-02
 cg2d: Sum(rhs),rhsMax =   1.41554369614827E-09  1.40214347782921E-02
 cg2d: Sum(rhs),rhsMax =   1.41561248834243E-09  1.40211978502341E-02
 cg2d: Sum(rhs),rhsMax =   1.41567578493262E-09  1.40209633142898E-02
 cg2d: Sum(rhs),rhsMax =   1.41574776901798E-09  1.40207311994891E-02
 cg2d: Sum(rhs),rhsMax =   1.41581402157698E-09  1.40205015277322E-02
 cg2d: Sum(rhs),rhsMax =   1.41587302993074E-09  1.40202743176641E-02
 cg2d: Sum(rhs),rhsMax =   1.41596173675040E-09  1.40200495784570E-02
 cg2d: Sum(rhs),rhsMax =   1.41602016223707E-09  1.40198273169562E-02
 cg2d: Sum(rhs),rhsMax =   1.41609177162216E-09  1.40196075317666E-02
 cg2d: Sum(rhs),rhsMax =   1.41616784965493E-09  1.40193902184197E-02
 cg2d: Sum(rhs),rhsMax =   1.41622871763225E-09  1.40191753619575E-02
 cg2d: Sum(rhs),rhsMax =   1.41630777938939E-09  1.40189629453454E-02
 cg2d: Sum(rhs),rhsMax =   1.41637288009200E-09  1.40187529440858E-02
 cg2d: Sum(rhs),rhsMax =   1.41642299278377E-09  1.40185453264127E-02
 cg2d: Sum(rhs),rhsMax =   1.41650011165062E-09  1.40183400566060E-02
 cg2d: Sum(rhs),rhsMax =   1.41657831298492E-09  1.40181370893189E-02
 cg2d: Sum(rhs),rhsMax =   1.41664779906847E-09  1.40179363789093E-02
 cg2d: Sum(rhs),rhsMax =   1.41670826458995E-09  1.40177378683844E-02
 cg2d: Sum(rhs),rhsMax =   1.41678488385644E-09  1.40175414972564E-02
 cg2d: Sum(rhs),rhsMax =   1.41683778598356E-09  1.40173472002416E-02
 cg2d: Sum(rhs),rhsMax =   1.41689768251574E-09  1.40171549018442E-02
 cg2d: Sum(rhs),rhsMax =   1.41696411548597E-09  1.40169645293349E-02
 cg2d: Sum(rhs),rhsMax =   1.41702632960872E-09  1.40167759959532E-02
 cg2d: Sum(rhs),rhsMax =   1.41709204093399E-09  1.40165892146488E-02
 cg2d: Sum(rhs),rhsMax =   1.41716263724057E-09  1.40164040924234E-02
 cg2d: Sum(rhs),rhsMax =   1.41721884228119E-09  1.40162205332790E-02
 cg2d: Sum(rhs),rhsMax =   1.41728787039774E-09  1.40160384342423E-02
 cg2d: Sum(rhs),rhsMax =   1.41735502501295E-09  1.40158576892702E-02
 cg2d: Sum(rhs),rhsMax =   1.41741668402418E-09  1.40156781862258E-02
 cg2d: Sum(rhs),rhsMax =   1.41748268678299E-09  1.40154998142215E-02
 cg2d: Sum(rhs),rhsMax =   1.41754986915377E-09  1.40153224547263E-02
 cg2d: Sum(rhs),rhsMax =   1.41760420069303E-09  1.40151459887200E-02
 cg2d: Sum(rhs),rhsMax =   1.41765471584065E-09  1.40149702942200E-02
 cg2d: Sum(rhs),rhsMax =   1.41772119044425E-09  1.40147952333086E-02
 cg2d: Sum(rhs),rhsMax =   1.41779349371873E-09  1.40146206765767E-02
 cg2d: Sum(rhs),rhsMax =   1.41784266272094E-09  1.40144465439063E-02
 cg2d: Sum(rhs),rhsMax =   1.41790604257785E-09  1.40142726684390E-02
 cg2d: Sum(rhs),rhsMax =   1.41796832608954E-09  1.40140989118721E-02
 cg2d: Sum(rhs),rhsMax =   1.41802222741738E-09  1.40139251516815E-02
 cg2d: Sum(rhs),rhsMax =   1.41808356723949E-09  1.40137512590796E-02
 cg2d: Sum(rhs),rhsMax =   1.41814016085817E-09  1.40135771022878E-02
 cg2d: Sum(rhs),rhsMax =   1.41821422661170E-09  1.40134025468756E-02
 cg2d: Sum(rhs),rhsMax =   1.41826382582533E-09  1.40132274618425E-02
 cg2d: Sum(rhs),rhsMax =   1.41833357558685E-09  1.40130517193161E-02
 cg2d: Sum(rhs),rhsMax =   1.41840246492553E-09  1.40128751921797E-02
 cg2d: Sum(rhs),rhsMax =   1.41847988910371E-09  1.40126977546499E-02
 cg2d: Sum(rhs),rhsMax =   1.41854188118185E-09  1.40125192861326E-02
 cg2d: Sum(rhs),rhsMax =   1.41862027680517E-09  1.40123396672642E-02
 cg2d: Sum(rhs),rhsMax =   1.41868639058629E-09  1.40121587801463E-02
 cg2d: Sum(rhs),rhsMax =   1.41876210779657E-09  1.40119765126572E-02
 cg2d: Sum(rhs),rhsMax =   1.41882511295321E-09  1.40117927552310E-02
 cg2d: Sum(rhs),rhsMax =   1.41889573701537E-09  1.40116074024583E-02
 cg2d: Sum(rhs),rhsMax =   1.41896092098470E-09  1.40114203533089E-02
 cg2d: Sum(rhs),rhsMax =   1.41903402917087E-09  1.40112315122093E-02
 cg2d: Sum(rhs),rhsMax =   1.41908072792685E-09  1.40110407856243E-02
 cg2d: Sum(rhs),rhsMax =   1.41917413931658E-09  1.40108480879744E-02
 cg2d: Sum(rhs),rhsMax =   1.41923313379255E-09  1.40106533375900E-02
 cg2d: Sum(rhs),rhsMax =   1.41929228092419E-09  1.40104564604518E-02
 cg2d: Sum(rhs),rhsMax =   1.41934641817443E-09  1.40102573887069E-02
 cg2d: Sum(rhs),rhsMax =   1.41941169928828E-09  1.40100560597595E-02
 cg2d: Sum(rhs),rhsMax =   1.41948680587589E-09  1.40098524174628E-02
 cg2d: Sum(rhs),rhsMax =   1.41953589161137E-09  1.40096464129243E-02
 cg2d: Sum(rhs),rhsMax =   1.41959924371271E-09  1.40094380017659E-02
 cg2d: Sum(rhs),rhsMax =   1.41965988964543E-09  1.40092271469805E-02
 cg2d: Sum(rhs),rhsMax =   1.41972632261567E-09  1.40090138201809E-02
 cg2d: Sum(rhs),rhsMax =   1.41979196455200E-09  1.40087979985250E-02
 cg2d: Sum(rhs),rhsMax =   1.41985567747582E-09  1.40085796695843E-02
 cg2d: Sum(rhs),rhsMax =   1.41992928526236E-09  1.40083588247444E-02
 cg2d: Sum(rhs),rhsMax =   1.42000060321390E-09  1.40081354623278E-02
 cg2d: Sum(rhs),rhsMax =   1.42006277570328E-09  1.40079095924780E-02
 cg2d: Sum(rhs),rhsMax =   1.42014008885916E-09  1.40076812268232E-02
 cg2d: Sum(rhs),rhsMax =   1.42019783433422E-09  1.40074503853335E-02
 cg2d: Sum(rhs),rhsMax =   1.42027416216717E-09  1.40072170993003E-02
 cg2d: Sum(rhs),rhsMax =   1.42035039285560E-09  1.40069814012839E-02
 cg2d: Sum(rhs),rhsMax =   1.42041482742439E-09  1.40067433332129E-02
 cg2d: Sum(rhs),rhsMax =   1.42048334206279E-09  1.40065029445680E-02
 cg2d: Sum(rhs),rhsMax =   1.42055402163610E-09  1.40062602892736E-02
 cg2d: Sum(rhs),rhsMax =   1.42063272257076E-09  1.40060154287274E-02
 cg2d: Sum(rhs),rhsMax =   1.42069433994862E-09  1.40057684300652E-02
 cg2d: Sum(rhs),rhsMax =   1.42075783082785E-09  1.40055193660873E-02
 cg2d: Sum(rhs),rhsMax =   1.42082601239935E-09  1.40052683166176E-02
 cg2d: Sum(rhs),rhsMax =   1.42090238186565E-09  1.40050153627452E-02
 cg2d: Sum(rhs),rhsMax =   1.42096664990099E-09  1.40047605955916E-02
 cg2d: Sum(rhs),rhsMax =   1.42102900280161E-09  1.40045041082195E-02
 cg2d: Sum(rhs),rhsMax =   1.42111226952846E-09  1.40042459990493E-02
 cg2d: Sum(rhs),rhsMax =   1.42118902757282E-09  1.40039863697284E-02
 cg2d: Sum(rhs),rhsMax =   1.42125225477407E-09  1.40037253269257E-02
 cg2d: Sum(rhs),rhsMax =   1.42131938163370E-09  1.40034629774027E-02
 cg2d: Sum(rhs),rhsMax =   1.42138109615608E-09  1.40031994354251E-02
 cg2d: Sum(rhs),rhsMax =   1.42145802073390E-09  1.40029348144876E-02
 cg2d: Sum(rhs),rhsMax =   1.42154681082030E-09  1.40026692313062E-02
 cg2d: Sum(rhs),rhsMax =   1.42161460381374E-09  1.40024028069060E-02
 cg2d: Sum(rhs),rhsMax =   1.42167655425851E-09  1.40021356576002E-02
 cg2d: Sum(rhs),rhsMax =   1.42174354234026E-09  1.40018679067728E-02
 cg2d: Sum(rhs),rhsMax =   1.42180492379573E-09  1.40015996734999E-02
 cg2d: Sum(rhs),rhsMax =   1.42187606133604E-09  1.40013310818699E-02
 cg2d: Sum(rhs),rhsMax =   1.42195749619489E-09  1.40010622515726E-02
 cg2d: Sum(rhs),rhsMax =   1.42202813413483E-09  1.40007933024129E-02
 cg2d: Sum(rhs),rhsMax =   1.42209004294624E-09  1.40005243552305E-02
 cg2d: Sum(rhs),rhsMax =   1.42216290133224E-09  1.40002555259955E-02
 cg2d: Sum(rhs),rhsMax =   1.42223602339620E-09  1.39999869305549E-02
 cg2d: Sum(rhs),rhsMax =   1.42230907607122E-09  1.39997186824926E-02
 cg2d: Sum(rhs),rhsMax =   1.42237858991034E-09  1.39994508928050E-02
 cg2d: Sum(rhs),rhsMax =   1.42244975520622E-09  1.39991836666400E-02
 cg2d: Sum(rhs),rhsMax =   1.42251287138517E-09  1.39989171077565E-02
 cg2d: Sum(rhs),rhsMax =   1.42257965130010E-09  1.39986513174362E-02
 cg2d: Sum(rhs),rhsMax =   1.42265552116605E-09  1.39983863877632E-02
 cg2d: Sum(rhs),rhsMax =   1.42272056635750E-09  1.39981224123101E-02
 cg2d: Sum(rhs),rhsMax =   1.42279360515474E-09  1.39978594748716E-02
 cg2d: Sum(rhs),rhsMax =   1.42286481208398E-09  1.39975976559568E-02
 cg2d: Sum(rhs),rhsMax =   1.42292279348144E-09  1.39973370327035E-02
 cg2d: Sum(rhs),rhsMax =   1.42297451599660E-09  1.39970776716547E-02
 cg2d: Sum(rhs),rhsMax =   1.42303660521925E-09  1.39968196362185E-02
 cg2d: Sum(rhs),rhsMax =   1.42309891648651E-09  1.39965629829183E-02
 cg2d: Sum(rhs),rhsMax =   1.42315985385277E-09  1.39963077633607E-02
 cg2d: Sum(rhs),rhsMax =   1.42323036689262E-09  1.39960540207173E-02
 cg2d: Sum(rhs),rhsMax =   1.42331216257396E-09  1.39958017924626E-02
 cg2d: Sum(rhs),rhsMax =   1.42338395237029E-09  1.39955511080645E-02
 cg2d: Sum(rhs),rhsMax =   1.42345411846545E-09  1.39953019922831E-02
 cg2d: Sum(rhs),rhsMax =   1.42352291065961E-09  1.39950544632156E-02
 cg2d: Sum(rhs),rhsMax =   1.42359227184308E-09  1.39948085232753E-02
 cg2d: Sum(rhs),rhsMax =   1.42364112165616E-09  1.39945641823064E-02
 cg2d: Sum(rhs),rhsMax =   1.42369949163168E-09  1.39943214359309E-02
 cg2d: Sum(rhs),rhsMax =   1.42377397371884E-09  1.39940802704286E-02
 cg2d: Sum(rhs),rhsMax =   1.42383003998159E-09  1.39938406680127E-02
 cg2d: Sum(rhs),rhsMax =   1.42388732748966E-09  1.39936026069314E-02
 cg2d: Sum(rhs),rhsMax =   1.42396633373565E-09  1.39933660517876E-02
 cg2d: Sum(rhs),rhsMax =   1.42404299463550E-09  1.39931309687423E-02
 cg2d: Sum(rhs),rhsMax =   1.42410157277784E-09  1.39928977104445E-02
 cg2d: Sum(rhs),rhsMax =   1.42415988724220E-09  1.39926658281170E-02
 cg2d: Sum(rhs),rhsMax =   1.42424699811627E-09  1.39924352563663E-02
 cg2d: Sum(rhs),rhsMax =   1.42432322880470E-09  1.39922059331044E-02
 cg2d: Sum(rhs),rhsMax =   1.42438820460722E-09  1.39919777907338E-02
 cg2d: Sum(rhs),rhsMax =   1.42444733786107E-09  1.39917507505381E-02
 Computing Diagnostic #    26 "THETA   " (list#  1) Parms "SMR     MR      ", Count=     144
 Computing Diagnostic #    27 "SALT    " (list#  1) Parms "SMR     MR      ", Count=     144
 Computing Diagnostic #    30 "UVEL    " (list#  1) Parms "UUR     MR      ", Count=     144
             Vector  Mate for "UVEL    " :  Diagnostic #     31 "VVEL    " exists
 Computing Diagnostic #    32 "WVEL    " (list#  1) Parms "WM      LR      ", Count=     144
 Computing Diagnostic #    31 "VVEL    " (list#  1) Parms "VVR     MR      ", Count=     144
             Vector  Mate for "VVEL    " :  Diagnostic #     30 "UVEL    " exists
 Computing Diagnostic #   197 "BRGfwFlx" (list#  2) Parms "SM      MR      ", Count=     144
 Computing Diagnostic #   198 "BRGhtFlx" (list#  2) Parms "SM      MR      ", Count=     144
 Computing Diagnostic #   199 "BRGmltRt" (list#  2) Parms "SM      MR      ", Count=     144
 Computing Diagnostic #   201 "BRG_TauX" (list#  2) Parms "UU      MR      ", Count=    1728
 Computing Diagnostic #   202 "BRG_TauY" (list#  2) Parms "VV      MR      ", Count=    1728
 Computing Diagnostic #   203 "BRGhFacC" (list#  2) Parms "SM      MR      ", Count=    1728
 cg2d: Sum(rhs),rhsMax =   1.42452184770381E-09  1.39915247360535E-02
 cg2d: Sum(rhs),rhsMax =   1.42458127239120E-09  1.39912996612836E-02
 cg2d: Sum(rhs),rhsMax =   1.42465593488961E-09  1.39910754407985E-02
 cg2d: Sum(rhs),rhsMax =   1.42472637854052E-09  1.39908519848224E-02
 cg2d: Sum(rhs),rhsMax =   1.42478966125292E-09  1.39906292012290E-02
 cg2d: Sum(rhs),rhsMax =   1.42484739285020E-09  1.39904069949608E-02
 cg2d: Sum(rhs),rhsMax =   1.42489908760979E-09  1.39901852707609E-02
 cg2d: Sum(rhs),rhsMax =   1.42498005062386E-09  1.39899639284745E-02
 cg2d: Sum(rhs),rhsMax =   1.42505318656561E-09  1.39897428714771E-02
 cg2d: Sum(rhs),rhsMax =   1.42511775991228E-09  1.39895220000626E-02
 cg2d: Sum(rhs),rhsMax =   1.42518218060328E-09  1.39893012054281E-02
 cg2d: Sum(rhs),rhsMax =   1.42523837176611E-09  1.39890804238390E-02
 cg2d: Sum(rhs),rhsMax =   1.42531914049115E-09  1.39888595386903E-02
 cg2d: Sum(rhs),rhsMax =   1.42538672531778E-09  1.39886384544911E-02
 cg2d: Sum(rhs),rhsMax =   1.42545761305790E-09  1.39884170847452E-02
 cg2d: Sum(rhs),rhsMax =   1.42552741833057E-09  1.39881953406350E-02
 cg2d: Sum(rhs),rhsMax =   1.42560671601011E-09  1.39879731349092E-02
 cg2d: Sum(rhs),rhsMax =   1.42568203076454E-09  1.39877503821014E-02
 cg2d: Sum(rhs),rhsMax =   1.42573783334932E-09  1.39875270000823E-02
 cg2d: Sum(rhs),rhsMax =   1.42579241468876E-09  1.39873029113017E-02
 cg2d: Sum(rhs),rhsMax =   1.42586487061891E-09  1.39870780399540E-02
 cg2d: Sum(rhs),rhsMax =   1.42594279439745E-09  1.39868523196844E-02
 cg2d: Sum(rhs),rhsMax =   1.42602557540172E-09  1.39866256825671E-02
 cg2d: Sum(rhs),rhsMax =   1.42608727604632E-09  1.39863980681740E-02
 cg2d: Sum(rhs),rhsMax =   1.42615111387023E-09  1.39861694208080E-02
 cg2d: Sum(rhs),rhsMax =   1.42621731091808E-09  1.39859396895742E-02
 cg2d: Sum(rhs),rhsMax =   1.42629368038438E-09  1.39857088313353E-02
 cg2d: Sum(rhs),rhsMax =   1.42635134259272E-09  1.39854768039042E-02
 cg2d: Sum(rhs),rhsMax =   1.42642905820445E-09  1.39852435739311E-02
 cg2d: Sum(rhs),rhsMax =   1.42650133372335E-09  1.39850091144993E-02
 cg2d: Sum(rhs),rhsMax =   1.42657068102903E-09  1.39847027601695E-02
 cg2d: Sum(rhs),rhsMax =   1.42666169156147E-09  1.39843927981434E-02
 cg2d: Sum(rhs),rhsMax =   1.42673428626949E-09  1.39840831036568E-02
 cg2d: Sum(rhs),rhsMax =   1.42682154979923E-09  1.39837728256305E-02
 cg2d: Sum(rhs),rhsMax =   1.42689975113353E-09  1.39834620333320E-02
 cg2d: Sum(rhs),rhsMax =   1.42696764127148E-09  1.39831509473485E-02
 cg2d: Sum(rhs),rhsMax =   1.42703492078677E-09  1.39828397401656E-02
 cg2d: Sum(rhs),rhsMax =   1.42711931161443E-09  1.39825286295790E-02
 cg2d: Sum(rhs),rhsMax =   1.42720645024408E-09  1.39822178287917E-02
 cg2d: Sum(rhs),rhsMax =   1.42727810126253E-09  1.39819075406044E-02
 cg2d: Sum(rhs),rhsMax =   1.42737303920892E-09  1.39815979652017E-02
 cg2d: Sum(rhs),rhsMax =   1.42743025732806E-09  1.39812893033673E-02
 cg2d: Sum(rhs),rhsMax =   1.42752738796492E-09  1.39809817530035E-02
 cg2d: Sum(rhs),rhsMax =   1.42759466748021E-09  1.39806755072325E-02
 cg2d: Sum(rhs),rhsMax =   1.42767178634706E-09  1.39803707599041E-02
 cg2d: Sum(rhs),rhsMax =   1.42775140321572E-09  1.39800676969176E-02
 cg2d: Sum(rhs),rhsMax =   1.42782588530288E-09  1.39797664994111E-02
 cg2d: Sum(rhs),rhsMax =   1.42789903512242E-09  1.39794673457139E-02
 cg2d: Sum(rhs),rhsMax =   1.42796971469572E-09  1.39791704083591E-02
 cg2d: Sum(rhs),rhsMax =   1.42804543190600E-09  1.39788758515789E-02
 cg2d: Sum(rhs),rhsMax =   1.42811179548730E-09  1.39785838373793E-02
 cg2d: Sum(rhs),rhsMax =   1.42819325810173E-09  1.39782945184309E-02
 cg2d: Sum(rhs),rhsMax =   1.42825777593725E-09  1.39780080388433E-02
 cg2d: Sum(rhs),rhsMax =   1.42833123106811E-09  1.39777245352580E-02
 cg2d: Sum(rhs),rhsMax =   1.42841330430521E-09  1.39774441351719E-02
 cg2d: Sum(rhs),rhsMax =   1.42848517736827E-09  1.39771662327198E-02
 cg2d: Sum(rhs),rhsMax =   1.42855310913959E-09  1.39768916696323E-02
 cg2d: Sum(rhs),rhsMax =   1.42862427443546E-09  1.39766205565700E-02
 cg2d: Sum(rhs),rhsMax =   1.42868786245920E-09  1.39763529875174E-02
 cg2d: Sum(rhs),rhsMax =   1.42878509024058E-09  1.39760890510708E-02
 cg2d: Sum(rhs),rhsMax =   1.42886277809673E-09  1.39758288132851E-02
 cg2d: Sum(rhs),rhsMax =   1.42893213928019E-09  1.39755722878559E-02
 cg2d: Sum(rhs),rhsMax =   1.42900583033345E-09  1.39753196961753E-02
 cg2d: Sum(rhs),rhsMax =   1.42908095079886E-09  1.39750709625308E-02
 cg2d: Sum(rhs),rhsMax =   1.42913510192688E-09  1.39748260932403E-02
 cg2d: Sum(rhs),rhsMax =   1.42921270651630E-09  1.39745851407635E-02
 cg2d: Sum(rhs),rhsMax =   1.42927654434022E-09  1.39743481227942E-02
 cg2d: Sum(rhs),rhsMax =   1.42933430369308E-09  1.39741150352316E-02
 cg2d: Sum(rhs),rhsMax =   1.42940589920038E-09  1.39738858601265E-02
 cg2d: Sum(rhs),rhsMax =   1.42948712589241E-09  1.39736605721336E-02
 cg2d: Sum(rhs),rhsMax =   1.42954897919267E-09  1.39734391343782E-02
 cg2d: Sum(rhs),rhsMax =   1.42964018401415E-09  1.39732215004236E-02
 cg2d: Sum(rhs),rhsMax =   1.42969938665694E-09  1.39730076152091E-02
 cg2d: Sum(rhs),rhsMax =   1.42976613881629E-09  1.39727974123232E-02
 cg2d: Sum(rhs),rhsMax =   1.42983631878923E-09  1.39725908143983E-02
 cg2d: Sum(rhs),rhsMax =   1.42990322360426E-09  1.39723877362719E-02
 cg2d: Sum(rhs),rhsMax =   1.42995648655386E-09  1.39721880828572E-02
 cg2d: Sum(rhs),rhsMax =   1.43001918639918E-09  1.39719917501397E-02
 cg2d: Sum(rhs),rhsMax =   1.43007364283854E-09  1.39717986265748E-02
 cg2d: Sum(rhs),rhsMax =   1.43013609288367E-09  1.39716085916448E-02
 cg2d: Sum(rhs),rhsMax =   1.43020247034276E-09  1.39714215194584E-02
 cg2d: Sum(rhs),rhsMax =   1.43027430177245E-09  1.39712372749372E-02
 cg2d: Sum(rhs),rhsMax =   1.43032209687366E-09  1.39710557197445E-02
 cg2d: Sum(rhs),rhsMax =   1.43038875188850E-09  1.39708767097596E-02
 cg2d: Sum(rhs),rhsMax =   1.43044780187562E-09  1.39707000944534E-02
 cg2d: Sum(rhs),rhsMax =   1.43050789269683E-09  1.39705257186648E-02
 cg2d: Sum(rhs),rhsMax =   1.43056133605768E-09  1.39703534272180E-02
 cg2d: Sum(rhs),rhsMax =   1.43064160518236E-09  1.39701830614127E-02
 cg2d: Sum(rhs),rhsMax =   1.43070381930510E-09  1.39700144579803E-02
 cg2d: Sum(rhs),rhsMax =   1.43075687408789E-09  1.39698474533383E-02
 cg2d: Sum(rhs),rhsMax =   1.43080568226761E-09  1.39696818860957E-02
 cg2d: Sum(rhs),rhsMax =   1.43086345549825E-09  1.39695175893654E-02
 cg2d: Sum(rhs),rhsMax =   1.43093206728118E-09  1.39693544003767E-02
 cg2d: Sum(rhs),rhsMax =   1.43097955707105E-09  1.39691921576260E-02
 cg2d: Sum(rhs),rhsMax =   1.43103606742301E-09  1.39690306997688E-02
 cg2d: Sum(rhs),rhsMax =   1.43109565864386E-09  1.39688698711732E-02
 cg2d: Sum(rhs),rhsMax =   1.43115863604493E-09  1.39687095152016E-02
 cg2d: Sum(rhs),rhsMax =   1.43121142714975E-09  1.39685494807737E-02
 cg2d: Sum(rhs),rhsMax =   1.43126560603335E-09  1.39683896226259E-02
 cg2d: Sum(rhs),rhsMax =   1.43134196162187E-09  1.39682297996635E-02
 cg2d: Sum(rhs),rhsMax =   1.43140138630926E-09  1.39680698746604E-02
 cg2d: Sum(rhs),rhsMax =   1.43147502185137E-09  1.39679097207261E-02
 cg2d: Sum(rhs),rhsMax =   1.43153520981709E-09  1.39677492143571E-02
 cg2d: Sum(rhs),rhsMax =   1.43159617493893E-09  1.39675882390504E-02
 cg2d: Sum(rhs),rhsMax =   1.43165761190556E-09  1.39674266855446E-02
 cg2d: Sum(rhs),rhsMax =   1.43171995092839E-09  1.39672644555359E-02
 cg2d: Sum(rhs),rhsMax =   1.43178104095032E-09  1.39671014578181E-02
 cg2d: Sum(rhs),rhsMax =   1.43184938905527E-09  1.39669376079236E-02
 cg2d: Sum(rhs),rhsMax =   1.43190534429571E-09  1.39667728316888E-02
 cg2d: Sum(rhs),rhsMax =   1.43197198543277E-09  1.39666070641157E-02
 cg2d: Sum(rhs),rhsMax =   1.43203608693465E-09  1.39664402512175E-02
 cg2d: Sum(rhs),rhsMax =   1.43209494263274E-09  1.39662723429975E-02
 cg2d: Sum(rhs),rhsMax =   1.43215095338434E-09  1.39661033050821E-02
 cg2d: Sum(rhs),rhsMax =   1.43221307036256E-09  1.39659331107158E-02
 cg2d: Sum(rhs),rhsMax =   1.43226339122116E-09  1.39657617411050E-02
 cg2d: Sum(rhs),rhsMax =   1.43231748683803E-09  1.39655891882436E-02
 cg2d: Sum(rhs),rhsMax =   1.43239078931323E-09  1.39654154554281E-02
 cg2d: Sum(rhs),rhsMax =   1.43245199035746E-09  1.39652405518659E-02
 cg2d: Sum(rhs),rhsMax =   1.43251073503325E-09  1.39650644987756E-02
 cg2d: Sum(rhs),rhsMax =   1.43256682905157E-09  1.39648873270201E-02
 cg2d: Sum(rhs),rhsMax =   1.43262518514931E-09  1.39647090731624E-02
 cg2d: Sum(rhs),rhsMax =   1.43269326957629E-09  1.39645297845109E-02
 cg2d: Sum(rhs),rhsMax =   1.43275710740021E-09  1.39643495157238E-02
 cg2d: Sum(rhs),rhsMax =   1.43282570530534E-09  1.39641683308021E-02
 cg2d: Sum(rhs),rhsMax =   1.43288582388212E-09  1.39639862982020E-02
 cg2d: Sum(rhs),rhsMax =   1.43293735210825E-09  1.39638034979210E-02
 cg2d: Sum(rhs),rhsMax =   1.43301079336133E-09  1.39636200109721E-02
 cg2d: Sum(rhs),rhsMax =   1.43308380440299E-09  1.39634359265730E-02
 cg2d: Sum(rhs),rhsMax =   1.43315259659715E-09  1.39632513420332E-02
 cg2d: Sum(rhs),rhsMax =   1.43322312351479E-09  1.39630663555035E-02
 cg2d: Sum(rhs),rhsMax =   1.43328267310228E-09  1.39628810722651E-02
 cg2d: Sum(rhs),rhsMax =   1.43333131474854E-09  1.39626955991252E-02
 cg2d: Sum(rhs),rhsMax =   1.43339688729593E-09  1.39625100459185E-02
 cg2d: Sum(rhs),rhsMax =   1.43345973979692E-09  1.39623245274473E-02
 cg2d: Sum(rhs),rhsMax =   1.43352361925420E-09  1.39621391359189E-02
 cg2d: Sum(rhs),rhsMax =   1.43358699911111E-09  1.39619538603071E-02
 cg2d: Sum(rhs),rhsMax =   1.43365017080122E-09  1.39617688850209E-02
 cg2d: Sum(rhs),rhsMax =   1.43371270411308E-09  1.39615841287991E-02
 cg2d: Sum(rhs),rhsMax =   1.43378660333315E-09  1.39613996691425E-02
 cg2d: Sum(rhs),rhsMax =   1.43385972539711E-09  1.39612155591709E-02
 cg2d: Sum(rhs),rhsMax =   1.43390600781945E-09  1.39610318469473E-02
 cg2d: Sum(rhs),rhsMax =   1.43397807517154E-09  1.39608485788459E-02
 cg2d: Sum(rhs),rhsMax =   1.43406067576457E-09  1.39606658078192E-02
 cg2d: Sum(rhs),rhsMax =   1.43412325070980E-09  1.39604835864382E-02
(PID.TID 0000.0001)      cg2d_init_res =   6.59565601021813E-05
(PID.TID 0000.0001)      cg2d_iters(min,last) =      -1      38
(PID.TID 0000.0001)      cg2d_last_res =   7.44399577118220E-14
(PID.TID 0000.0001) // =======================================================
(PID.TID 0000.0001) // Begin MONITOR dynamic field statistics
(PID.TID 0000.0001) // =======================================================
(PID.TID 0000.0001) %MON time_tsnumber                =                 29376
(PID.TID 0000.0001) %MON time_secondsf                =   7.3440000000000E+05
(PID.TID 0000.0001) %MON dynstat_eta_max              =   4.6787540047572E-03
(PID.TID 0000.0001) %MON dynstat_eta_min              =  -2.3336278870745E-03
(PID.TID 0000.0001) %MON dynstat_eta_mean             =  -1.3407288012057E-13
(PID.TID 0000.0001) %MON dynstat_eta_sd               =   2.3538428618006E-03
(PID.TID 0000.0001) %MON dynstat_eta_del2             =   1.8958594132826E-05
(PID.TID 0000.0001) %MON dynstat_uvel_max             =   4.3654338357171E-02
(PID.TID 0000.0001) %MON dynstat_uvel_min             =  -4.5312023881661E-02
(PID.TID 0000.0001) %MON dynstat_uvel_mean            =   4.4177090046456E-09
(PID.TID 0000.0001) %MON dynstat_uvel_sd              =   6.6987600719346E-03
(PID.TID 0000.0001) %MON dynstat_uvel_del2            =   1.0134796623564E-04
(PID.TID 0000.0001) %MON dynstat_vvel_max             =   2.3818605685846E-02
(PID.TID 0000.0001) %MON dynstat_vvel_min             =  -3.5252681235246E-02
(PID.TID 0000.0001) %MON dynstat_vvel_mean            =  -8.0919746300603E-03
(PID.TID 0000.0001) %MON dynstat_vvel_sd              =   1.1605949934615E-02
(PID.TID 0000.0001) %MON dynstat_vvel_del2            =   9.1318775020451E-05
(PID.TID 0000.0001) %MON dynstat_wvel_max             =   1.3723539694080E-03
(PID.TID 0000.0001) %MON dynstat_wvel_min             =  -1.1464039038345E-03
(PID.TID 0000.0001) %MON dynstat_wvel_mean            =   2.0526588086143E-20
(PID.TID 0000.0001) %MON dynstat_wvel_sd              =   1.2673449984983E-04
(PID.TID 0000.0001) %MON dynstat_wvel_del2            =   6.5056904480733E-06
(PID.TID 0000.0001) %MON dynstat_theta_max            =   2.6931451612903E+00
(PID.TID 0000.0001) %MON dynstat_theta_min            =  -7.5897486668914E-01
(PID.TID 0000.0001) %MON dynstat_theta_mean           =   2.2185586832820E+00
(PID.TID 0000.0001) %MON dynstat_theta_sd             =   5.3527843807639E-01
(PID.TID 0000.0001) %MON dynstat_theta_del2           =   1.6983844069725E-03
(PID.TID 0000.0001) %MON dynstat_salt_max             =   3.4699999999999E+01
(PID.TID 0000.0001) %MON dynstat_salt_min             =   3.3058737457316E+01
(PID.TID 0000.0001) %MON dynstat_salt_mean            =   3.4363959666441E+01
(PID.TID 0000.0001) %MON dynstat_salt_sd              =   3.2221906767237E-01
(PID.TID 0000.0001) %MON dynstat_salt_del2            =   1.9139875144766E-04
(PID.TID 0000.0001) %MON advcfl_uvel_max              =   2.2656011940830E-03
(PID.TID 0000.0001) %MON advcfl_vvel_max              =   1.7626340617623E-03
(PID.TID 0000.0001) %MON advcfl_wvel_max              =   6.6015692175856E-04
(PID.TID 0000.0001) %MON advcfl_W_hf_max              =   1.4134469481428E-03
(PID.TID 0000.0001) %MON pe_b_mean                    =   4.6227414704981E-08
(PID.TID 0000.0001) %MON ke_max                       =   1.0101697714455E-03
(PID.TID 0000.0001) %MON ke_mean                      =   1.1256172164835E-04
(PID.TID 0000.0001) %MON ke_vol                       =   3.2921708585402E+10
(PID.TID 0000.0001) // =======================================================
(PID.TID 0000.0001) // End MONITOR dynamic field statistics
(PID.TID 0000.0001) // =======================================================
(PID.TID 0000.0001) // =======================================================
(PID.TID 0000.0001) // Begin OBCS MONITOR field statistics
(PID.TID 0000.0001) // =======================================================
(PID.TID 0000.0001) %MON obc_E_uVel_max               =   0.0000000000000E+00
(PID.TID 0000.0001) %MON obc_E_uVel_min               =   0.0000000000000E+00
(PID.TID 0000.0001) %MON obc_E_uVel_mean              =   0.0000000000000E+00
(PID.TID 0000.0001) %MON obc_E_uVel_sd                =   0.0000000000000E+00
(PID.TID 0000.0001) %MON obc_E_uVel_Int               =   0.0000000000000E+00
(PID.TID 0000.0001) %MON obc_N_vVel_max               =  -3.6115799844846E-05
(PID.TID 0000.0001) %MON obc_N_vVel_min               =  -3.0000000000000E-02
(PID.TID 0000.0001) %MON obc_N_vVel_mean              =  -1.3225455303334E-02
(PID.TID 0000.0001) %MON obc_N_vVel_sd                =   1.1350864292742E-02
(PID.TID 0000.0001) %MON obc_N_vVel_Int               =  -5.9514548865004E+04
(PID.TID 0000.0001) %MON obc_S_vVel_max               =  -3.6115799844846E-05
(PID.TID 0000.0001) %MON obc_S_vVel_min               =  -3.0000000000000E-02
(PID.TID 0000.0001) %MON obc_S_vVel_mean              =  -1.3225455303334E-02
(PID.TID 0000.0001) %MON obc_S_vVel_sd                =   1.1350864292742E-02
(PID.TID 0000.0001) %MON obc_S_vVel_Int               =  -5.9514548865004E+04
(PID.TID 0000.0001) // =======================================================
(PID.TID 0000.0001) // End OBCS MONITOR field statistics
(PID.TID 0000.0001) // =======================================================
 Computing Diagnostic #    26 "THETA   " (list#  1) Parms "SMR     MR      ", Count=     144
 Computing Diagnostic #    27 "SALT    " (list#  1) Parms "SMR     MR      ", Count=     144
 Computing Diagnostic #    30 "UVEL    " (list#  1) Parms "UUR     MR      ", Count=     144
             Vector  Mate for "UVEL    " :  Diagnostic #     31 "VVEL    " exists
 Computing Diagnostic #    32 "WVEL    " (list#  1) Parms "WM      LR      ", Count=     144
 Computing Diagnostic #    31 "VVEL    " (list#  1) Parms "VVR     MR      ", Count=     144
             Vector  Mate for "VVEL    " :  Diagnostic #     30 "UVEL    " exists
 Computing Diagnostic #   197 "BRGfwFlx" (list#  2) Parms "SM      MR      ", Count=     144
 Computing Diagnostic #   198 "BRGhtFlx" (list#  2) Parms "SM      MR      ", Count=     144
 Computing Diagnostic #   199 "BRGmltRt" (list#  2) Parms "SM      MR      ", Count=     144
 Computing Diagnostic #   201 "BRG_TauX" (list#  2) Parms "UU      MR      ", Count=    1728
 Computing Diagnostic #   202 "BRG_TauY" (list#  2) Parms "VV      MR      ", Count=    1728
 Computing Diagnostic #   203 "BRGhFacC" (list#  2) Parms "SM      MR      ", Count=    1728
 cg2d: Sum(rhs),rhsMax =   1.43418192599665E-09  1.39603019697238E-02
 cg2d: Sum(rhs),rhsMax =   1.43423455056801E-09  1.39601210107401E-02
 cg2d: Sum(rhs),rhsMax =   1.43428117993505E-09  1.39599407650380E-02
 cg2d: Sum(rhs),rhsMax =   1.43434848720592E-09  1.39597612894193E-02
 cg2d: Sum(rhs),rhsMax =   1.43439175814830E-09  1.39595826394268E-02
 cg2d: Sum(rhs),rhsMax =   1.43445552658328E-09  1.39594048694485E-02
 cg2d: Sum(rhs),rhsMax =   1.43452180689785E-09  1.39592280279902E-02
 cg2d: Sum(rhs),rhsMax =   1.43458775414551E-09  1.39590521724699E-02
 cg2d: Sum(rhs),rhsMax =   1.43464928825665E-09  1.39588773536495E-02
 cg2d: Sum(rhs),rhsMax =   1.43470776925447E-09  1.39587036173466E-02
 cg2d: Sum(rhs),rhsMax =   1.43476779068674E-09  1.39585310093516E-02
 cg2d: Sum(rhs),rhsMax =   1.43482205283707E-09  1.39583595721786E-02
 cg2d: Sum(rhs),rhsMax =   1.43489642390193E-09  1.39581893434597E-02
 cg2d: Sum(rhs),rhsMax =   1.43495081095235E-09  1.39580203583537E-02
 cg2d: Sum(rhs),rhsMax =   1.43501090177356E-09  1.39578526470831E-02
 cg2d: Sum(rhs),rhsMax =   1.43507986050118E-09  1.39576862350894E-02
 cg2d: Sum(rhs),rhsMax =   1.43513345651769E-09  1.39575211433292E-02
 cg2d: Sum(rhs),rhsMax =   1.43519626738531E-09  1.39573573847504E-02
 cg2d: Sum(rhs),rhsMax =   1.43526451834575E-09  1.39571949688617E-02
 cg2d: Sum(rhs),rhsMax =   1.43532279117675E-09  1.39570338973398E-02
 cg2d: Sum(rhs),rhsMax =   1.43540329622383E-09  1.39568741669879E-02
 cg2d: Sum(rhs),rhsMax =   1.43546172171050E-09  1.39567157662324E-02
 cg2d: Sum(rhs),rhsMax =   1.43553313680655E-09  1.39565586770149E-02
 cg2d: Sum(rhs),rhsMax =   1.43559834853146E-09  1.39564028716032E-02
 cg2d: Sum(rhs),rhsMax =   1.43566095123226E-09  1.39562483188161E-02
 cg2d: Sum(rhs),rhsMax =   1.43572173594286E-09  1.39560949732511E-02
 cg2d: Sum(rhs),rhsMax =   1.43576750488705E-09  1.39559427876819E-02
 cg2d: Sum(rhs),rhsMax =   1.43582552791788E-09  1.39557917037430E-02
 cg2d: Sum(rhs),rhsMax =   1.43588077539114E-09  1.39556416540946E-02
 cg2d: Sum(rhs),rhsMax =   1.43594836021776E-09  1.39554925657191E-02
 cg2d: Sum(rhs),rhsMax =   1.43599958313256E-09  1.39553443567112E-02
 cg2d: Sum(rhs),rhsMax =   1.43605671798497E-09  1.39551969354614E-02
 cg2d: Sum(rhs),rhsMax =   1.43611045277936E-09  1.39550502034268E-02
 cg2d: Sum(rhs),rhsMax =   1.43616186998319E-09  1.39549040568313E-02
 cg2d: Sum(rhs),rhsMax =   1.43620694503799E-09  1.39547583796569E-02
 cg2d: Sum(rhs),rhsMax =   1.43625826509730E-09  1.39546130511878E-02
 cg2d: Sum(rhs),rhsMax =   1.43631026516822E-09  1.39544679445530E-02
 cg2d: Sum(rhs),rhsMax =   1.43637146621245E-09  1.39543229253625E-02
 cg2d: Sum(rhs),rhsMax =   1.43643021088824E-09  1.39541778521975E-02
 cg2d: Sum(rhs),rhsMax =   1.43649173112159E-09  1.39540325778408E-02
 cg2d: Sum(rhs),rhsMax =   1.43654248219161E-09  1.39538869511660E-02
 cg2d: Sum(rhs),rhsMax =   1.43660155993430E-09  1.39537408159803E-02
 cg2d: Sum(rhs),rhsMax =   1.43666754881533E-09  1.39535940114380E-02
 cg2d: Sum(rhs),rhsMax =   1.43671863295225E-09  1.39534463723204E-02
 cg2d: Sum(rhs),rhsMax =   1.43678426101079E-09  1.39532977316922E-02
 cg2d: Sum(rhs),rhsMax =   1.43683626108171E-09  1.39531479193196E-02
 cg2d: Sum(rhs),rhsMax =   1.43689835030436E-09  1.39529967646657E-02
 cg2d: Sum(rhs),rhsMax =   1.43695859378123E-09  1.39528440950645E-02
 cg2d: Sum(rhs),rhsMax =   1.43702436061766E-09  1.39526897383274E-02
 cg2d: Sum(rhs),rhsMax =   1.43709152911065E-09  1.39525335209110E-02
 cg2d: Sum(rhs),rhsMax =   1.43715146727619E-09  1.39523752743232E-02
 cg2d: Sum(rhs),rhsMax =   1.43722098111532E-09  1.39522148256848E-02
 cg2d: Sum(rhs),rhsMax =   1.43727223178569E-09  1.39520520092841E-02
 cg2d: Sum(rhs),rhsMax =   1.43733777657751E-09  1.39518866683327E-02
 cg2d: Sum(rhs),rhsMax =   1.43740097602318E-09  1.39517186437246E-02
 cg2d: Sum(rhs),rhsMax =   1.43745695901920E-09  1.39515477822165E-02
 cg2d: Sum(rhs),rhsMax =   1.43752570958000E-09  1.39513739366384E-02
 cg2d: Sum(rhs),rhsMax =   1.43757304671421E-09  1.39511969648644E-02
 cg2d: Sum(rhs),rhsMax =   1.43764165849714E-09  1.39510167361776E-02
 cg2d: Sum(rhs),rhsMax =   1.43770755023365E-09  1.39508331226641E-02
 cg2d: Sum(rhs),rhsMax =   1.43776575367571E-09  1.39506460098883E-02
 cg2d: Sum(rhs),rhsMax =   1.43782807882076E-09  1.39504552890116E-02
 cg2d: Sum(rhs),rhsMax =   1.43788796147515E-09  1.39502608648579E-02
 cg2d: Sum(rhs),rhsMax =   1.43794637308403E-09  1.39500626502007E-02
 cg2d: Sum(rhs),rhsMax =   1.43800886476253E-09  1.39498605680423E-02
 cg2d: Sum(rhs),rhsMax =   1.43807424302089E-09  1.39496545565281E-02
 cg2d: Sum(rhs),rhsMax =   1.43812810271537E-09  1.39494445599766E-02
 cg2d: Sum(rhs),rhsMax =   1.43820862164024E-09  1.39492305404718E-02
 cg2d: Sum(rhs),rhsMax =   1.43828668419665E-09  1.39490124692577E-02
 cg2d: Sum(rhs),rhsMax =   1.43835536536852E-09  1.39487903311927E-02
 cg2d: Sum(rhs),rhsMax =   1.43841116795329E-09  1.39485641231751E-02
 cg2d: Sum(rhs),rhsMax =   1.43847629641147E-09  1.39483338573188E-02
 cg2d: Sum(rhs),rhsMax =   1.43852604828076E-09  1.39480995581602E-02
 cg2d: Sum(rhs),rhsMax =   1.43858946977105E-09  1.39478612615455E-02
 cg2d: Sum(rhs),rhsMax =   1.43867540103315E-09  1.39476190193095E-02
 cg2d: Sum(rhs),rhsMax =   1.43874304137093E-09  1.39473728949123E-02
 cg2d: Sum(rhs),rhsMax =   1.43882104841619E-09  1.39471229659395E-02
 cg2d: Sum(rhs),rhsMax =   1.43887864123560E-09  1.39468693207516E-02
 cg2d: Sum(rhs),rhsMax =   1.43896394799725E-09  1.39466120628140E-02
 cg2d: Sum(rhs),rhsMax =   1.43903736149475E-09  1.39463513060540E-02
 cg2d: Sum(rhs),rhsMax =   1.43910920680224E-09  1.39460871765293E-02
 cg2d: Sum(rhs),rhsMax =   1.43919540174231E-09  1.39458198123018E-02
 cg2d: Sum(rhs),rhsMax =   1.43926616458234E-09  1.39455493604279E-02
 cg2d: Sum(rhs),rhsMax =   1.43932402107971E-09  1.39452759812123E-02
 cg2d: Sum(rhs),rhsMax =   1.43938366781171E-09  1.39449998429044E-02
 cg2d: Sum(rhs),rhsMax =   1.43945481922980E-09  1.39447211212224E-02
 cg2d: Sum(rhs),rhsMax =   1.43953909903516E-09  1.39444400036426E-02
 cg2d: Sum(rhs),rhsMax =   1.43960535159415E-09  1.39441566819837E-02
 cg2d: Sum(rhs),rhsMax =   1.43967644750109E-09  1.39438713584700E-02
 cg2d: Sum(rhs),rhsMax =   1.43974354660514E-09  1.39435842374725E-02
 cg2d: Sum(rhs),rhsMax =   1.43982906153362E-09  1.39432955304289E-02
 cg2d: Sum(rhs),rhsMax =   1.43990697143437E-09  1.39430054550130E-02
 cg2d: Sum(rhs),rhsMax =   1.43998384050104E-09  1.39427142291896E-02
 cg2d: Sum(rhs),rhsMax =   1.44006506719307E-09  1.39424220737472E-02
 cg2d: Sum(rhs),rhsMax =   1.44012569924801E-09  1.39421292139739E-02
 cg2d: Sum(rhs),rhsMax =   1.44020292913716E-09  1.39418358730025E-02
 cg2d: Sum(rhs),rhsMax =   1.44029546622626E-09  1.39415422750450E-02
 cg2d: Sum(rhs),rhsMax =   1.44036071958453E-09  1.39412486436903E-02
 cg2d: Sum(rhs),rhsMax =   1.44044128014276E-09  1.39409551982618E-02
 cg2d: Sum(rhs),rhsMax =   1.44051325035033E-09  1.39406621587078E-02
 cg2d: Sum(rhs),rhsMax =   1.44059125739560E-09  1.39403697366489E-02
 cg2d: Sum(rhs),rhsMax =   1.44066140961296E-09  1.39400781439845E-02
 cg2d: Sum(rhs),rhsMax =   1.44073358798735E-09  1.39397875829023E-02
 cg2d: Sum(rhs),rhsMax =   1.44079456698698E-09  1.39394982512330E-02
 cg2d: Sum(rhs),rhsMax =   1.44086584330516E-09  1.39392103396463E-02
 cg2d: Sum(rhs),rhsMax =   1.44093154075264E-09  1.39389240302722E-02
 cg2d: Sum(rhs),rhsMax =   1.44100127663638E-09  1.39386394977134E-02
 cg2d: Sum(rhs),rhsMax =   1.44108271149523E-09  1.39383569037522E-02
 cg2d: Sum(rhs),rhsMax =   1.44113798672407E-09  1.39380764056944E-02
 cg2d: Sum(rhs),rhsMax =   1.44121040102085E-09  1.39377981462688E-02
 cg2d: Sum(rhs),rhsMax =   1.44129912171831E-09  1.39375222585903E-02
 cg2d: Sum(rhs),rhsMax =   1.44136833024611E-09  1.39372488632362E-02
 cg2d: Sum(rhs),rhsMax =   1.44145673175444E-09  1.39369780704273E-02
 cg2d: Sum(rhs),rhsMax =   1.44153959602544E-09  1.39367099760923E-02
 cg2d: Sum(rhs),rhsMax =   1.44160014481365E-09  1.39364446661945E-02
 cg2d: Sum(rhs),rhsMax =   1.44167726368050E-09  1.39361822109452E-02
 cg2d: Sum(rhs),rhsMax =   1.44174544525200E-09  1.39359226690084E-02
 cg2d: Sum(rhs),rhsMax =   1.44181867833826E-09  1.39356660868752E-02
 cg2d: Sum(rhs),rhsMax =   1.44188377904086E-09  1.39354124953022E-02
 cg2d: Sum(rhs),rhsMax =   1.44195842766148E-09  1.39351619134140E-02
 cg2d: Sum(rhs),rhsMax =   1.44203614327321E-09  1.39349143470844E-02
 cg2d: Sum(rhs),rhsMax =   1.44211169395003E-09  1.39346697905298E-02
 cg2d: Sum(rhs),rhsMax =   1.44219229614162E-09  1.39344282226295E-02
 cg2d: Sum(rhs),rhsMax =   1.44227037257583E-09  1.39341896099659E-02
 cg2d: Sum(rhs),rhsMax =   1.44234439669599E-09  1.39339539085848E-02
 cg2d: Sum(rhs),rhsMax =   1.44238683497111E-09  1.39337210638936E-02
 cg2d: Sum(rhs),rhsMax =   1.44246453670505E-09  1.39334910059961E-02
 cg2d: Sum(rhs),rhsMax =   1.44252919331844E-09  1.39332636588294E-02
 cg2d: Sum(rhs),rhsMax =   1.44259518219947E-09  1.39330389304069E-02
 cg2d: Sum(rhs),rhsMax =   1.44264249157811E-09  1.39328167241335E-02
 cg2d: Sum(rhs),rhsMax =   1.44270875801489E-09  1.39325969292416E-02
 cg2d: Sum(rhs),rhsMax =   1.44277137459348E-09  1.39323794309992E-02
 cg2d: Sum(rhs),rhsMax =   1.44282634451098E-09  1.39321641038010E-02
 cg2d: Sum(rhs),rhsMax =   1.44288758718858E-09  1.39319508147531E-02
 cg2d: Sum(rhs),rhsMax =   1.44295542181538E-09  1.39317394275494E-02
 cg2d: Sum(rhs),rhsMax =   1.44301956495063E-09  1.39315297950995E-02
 cg2d: Sum(rhs),rhsMax =   1.44309710015111E-09  1.39313217704286E-02
 cg2d: Sum(rhs),rhsMax =   1.44315552563778E-09  1.39311151982176E-02
 cg2d: Sum(rhs),rhsMax =   1.44322941098007E-09  1.39309099209600E-02
 cg2d: Sum(rhs),rhsMax =   1.44329470597171E-09  1.39307057807003E-02
 cg2d: Sum(rhs),rhsMax =   1.44335855767341E-09  1.39305026125684E-02
 cg2d: Sum(rhs),rhsMax =   1.44342993113611E-09  1.39303002553961E-02
 cg2d: Sum(rhs),rhsMax =   1.44347830910441E-09  1.39300985448735E-02
 cg2d: Sum(rhs),rhsMax =   1.44354241060629E-09  1.39298973174759E-02
 Computing Diagnostic #    26 "THETA   " (list#  1) Parms "SMR     MR      ", Count=     144
 Computing Diagnostic #    27 "SALT    " (list#  1) Parms "SMR     MR      ", Count=     144
 Computing Diagnostic #    30 "UVEL    " (list#  1) Parms "UUR     MR      ", Count=     144
             Vector  Mate for "UVEL    " :  Diagnostic #     31 "VVEL    " exists
 Computing Diagnostic #    32 "WVEL    " (list#  1) Parms "WM      LR      ", Count=     144
 Computing Diagnostic #    31 "VVEL    " (list#  1) Parms "VVR     MR      ", Count=     144
             Vector  Mate for "VVEL    " :  Diagnostic #     30 "UVEL    " exists
 Computing Diagnostic #   197 "BRGfwFlx" (list#  2) Parms "SM      MR      ", Count=     144
 Computing Diagnostic #   198 "BRGhtFlx" (list#  2) Parms "SM      MR      ", Count=     144
 Computing Diagnostic #   199 "BRGmltRt" (list#  2) Parms "SM      MR      ", Count=     144
 Computing Diagnostic #   201 "BRG_TauX" (list#  2) Parms "UU      MR      ", Count=    1728
 Computing Diagnostic #   202 "BRG_TauY" (list#  2) Parms "VV      MR      ", Count=    1728
 Computing Diagnostic #   203 "BRGhFacC" (list#  2) Parms "SM      MR      ", Count=    1728
 cg2d: Sum(rhs),rhsMax =   1.44359885156931E-09  1.39296964108361E-02
 cg2d: Sum(rhs),rhsMax =   1.44367547083579E-09  1.39294956659836E-02
 cg2d: Sum(rhs),rhsMax =   1.44373304977741E-09  1.39292949228267E-02
 cg2d: Sum(rhs),rhsMax =   1.44380470079586E-09  1.39290940285055E-02
 cg2d: Sum(rhs),rhsMax =   1.44386981537625E-09  1.39288928305938E-02
 cg2d: Sum(rhs),rhsMax =   1.44394275702897E-09  1.39286911850210E-02
 cg2d: Sum(rhs),rhsMax =   1.44399664447903E-09  1.39284889461012E-02
 cg2d: Sum(rhs),rhsMax =   1.44406331337166E-09  1.39282859826123E-02
 cg2d: Sum(rhs),rhsMax =   1.44413492275675E-09  1.39280821628057E-02
 cg2d: Sum(rhs),rhsMax =   1.44422027115176E-09  1.39278773631067E-02
 cg2d: Sum(rhs),rhsMax =   1.44428291548593E-09  1.39276714666659E-02
 cg2d: Sum(rhs),rhsMax =   1.44436196336528E-09  1.39274643650375E-02
 cg2d: Sum(rhs),rhsMax =   1.44443285110540E-09  1.39272559570974E-02
 cg2d: Sum(rhs),rhsMax =   1.44450015837627E-09  1.39270461497055E-02
 cg2d: Sum(rhs),rhsMax =   1.44455691852841E-09  1.39268348564220E-02
 cg2d: Sum(rhs),rhsMax =   1.44461648199368E-09  1.39266220006855E-02
 cg2d: Sum(rhs),rhsMax =   1.44468702278910E-09  1.39264075128048E-02
 cg2d: Sum(rhs),rhsMax =   1.44475023611257E-09  1.39261913339770E-02
 cg2d: Sum(rhs),rhsMax =   1.44481854258416E-09  1.39259734122471E-02
 cg2d: Sum(rhs),rhsMax =   1.44489169240369E-09  1.39257618814345E-02
 cg2d: Sum(rhs),rhsMax =   1.44495328202598E-09  1.39255761937934E-02
 cg2d: Sum(rhs),rhsMax =   1.44501206833514E-09  1.39253885975832E-02
 cg2d: Sum(rhs),rhsMax =   1.44507120158899E-09  1.39251988656787E-02
 cg2d: Sum(rhs),rhsMax =   1.44513954969394E-09  1.39250070956125E-02
 cg2d: Sum(rhs),rhsMax =   1.44521183909063E-09  1.39248132094026E-02
 cg2d: Sum(rhs),rhsMax =   1.44527184664511E-09  1.39246171732782E-02
 cg2d: Sum(rhs),rhsMax =   1.44533290891147E-09  1.39244189707656E-02
 cg2d: Sum(rhs),rhsMax =   1.44541381641439E-09  1.39242185977246E-02
 cg2d: Sum(rhs),rhsMax =   1.44547650238191E-09  1.39240160508307E-02
 cg2d: Sum(rhs),rhsMax =   1.44551767777834E-09  1.39238113402891E-02
 cg2d: Sum(rhs),rhsMax =   1.44559481052298E-09  1.39236044802397E-02
 cg2d: Sum(rhs),rhsMax =   1.44565956428089E-09  1.39233954925874E-02
 cg2d: Sum(rhs),rhsMax =   1.44573636395862E-09  1.39231844035076E-02
 cg2d: Sum(rhs),rhsMax =   1.44579270777712E-09  1.39229712474081E-02
 cg2d: Sum(rhs),rhsMax =   1.44586095873755E-09  1.39227560631933E-02
 cg2d: Sum(rhs),rhsMax =   1.44593997886133E-09  1.39225388971282E-02
 cg2d: Sum(rhs),rhsMax =   1.44601187967996E-09  1.39223197972000E-02
 cg2d: Sum(rhs),rhsMax =   1.44608416907666E-09  1.39220988180611E-02
 cg2d: Sum(rhs),rhsMax =   1.44615809605231E-09  1.39218760168289E-02
 cg2d: Sum(rhs),rhsMax =   1.44622082365320E-09  1.39216514489199E-02
 cg2d: Sum(rhs),rhsMax =   1.44628684028980E-09  1.39214251926878E-02
 cg2d: Sum(rhs),rhsMax =   1.44635473042776E-09  1.39211973108153E-02
 cg2d: Sum(rhs),rhsMax =   1.44641744415086E-09  1.39209678656172E-02
 cg2d: Sum(rhs),rhsMax =   1.44648591715590E-09  1.39207369288785E-02
 cg2d: Sum(rhs),rhsMax =   1.44655125378090E-09  1.39205045734907E-02
 cg2d: Sum(rhs),rhsMax =   1.44661975454152E-09  1.39202708727243E-02
 cg2d: Sum(rhs),rhsMax =   1.44668470258846E-09  1.39200358996644E-02
 cg2d: Sum(rhs),rhsMax =   1.44676783053743E-09  1.39197997280620E-02
 cg2d: Sum(rhs),rhsMax =   1.44683495739706E-09  1.39195624296234E-02
 cg2d: Sum(rhs),rhsMax =   1.44690485981425E-09  1.39193240764972E-02
 cg2d: Sum(rhs),rhsMax =   1.44697503978719E-09  1.39190847375442E-02
 cg2d: Sum(rhs),rhsMax =   1.44704201399115E-09  1.39188444860178E-02
 cg2d: Sum(rhs),rhsMax =   1.44710948779547E-09  1.39186033903629E-02
 cg2d: Sum(rhs),rhsMax =   1.44716109928833E-09  1.39183615168364E-02
 cg2d: Sum(rhs),rhsMax =   1.44723845407757E-09  1.39181189321977E-02
 cg2d: Sum(rhs),rhsMax =   1.44731066020753E-09  1.39178756986434E-02
 cg2d: Sum(rhs),rhsMax =   1.44738174223669E-09  1.39176318889442E-02
 cg2d: Sum(rhs),rhsMax =   1.44745508634525E-09  1.39173875544735E-02
 cg2d: Sum(rhs),rhsMax =   1.44751371999874E-09  1.39171427448695E-02
 cg2d: Sum(rhs),rhsMax =   1.44757926479055E-09  1.39168975117012E-02
 cg2d: Sum(rhs),rhsMax =   1.44765274767700E-09  1.39166519135756E-02
 cg2d: Sum(rhs),rhsMax =   1.44772596688547E-09  1.39164060026997E-02
 cg2d: Sum(rhs),rhsMax =   1.44778961042036E-09  1.39161598271323E-02
 cg2d: Sum(rhs),rhsMax =   1.44785367028888E-09  1.39159134351378E-02
 cg2d: Sum(rhs),rhsMax =   1.44792319800580E-09  1.39156668718517E-02
 cg2d: Sum(rhs),rhsMax =   1.44798752155229E-09  1.39154201805332E-02
 cg2d: Sum(rhs),rhsMax =   1.44806679147624E-09  1.39151734055648E-02
 cg2d: Sum(rhs),rhsMax =   1.44812394020644E-09  1.39149265867219E-02
 cg2d: Sum(rhs),rhsMax =   1.44819892189396E-09  1.39146797668868E-02
 cg2d: Sum(rhs),rhsMax =   1.44829165327209E-09  1.39144329848161E-02
 cg2d: Sum(rhs),rhsMax =   1.44834505499958E-09  1.39141862797589E-02
 cg2d: Sum(rhs),rhsMax =   1.44841004467988E-09  1.39139396920815E-02
 cg2d: Sum(rhs),rhsMax =   1.44847429883743E-09  1.39136932627737E-02
 cg2d: Sum(rhs),rhsMax =   1.44853680439372E-09  1.39134470300853E-02
 cg2d: Sum(rhs),rhsMax =   1.44859403639064E-09  1.39132010362474E-02
 cg2d: Sum(rhs),rhsMax =   1.44866765805496E-09  1.39129553232291E-02
 cg2d: Sum(rhs),rhsMax =   1.44872326635070E-09  1.39127099333076E-02
 cg2d: Sum(rhs),rhsMax =   1.44878453678388E-09  1.39124649120395E-02
 cg2d: Sum(rhs),rhsMax =   1.44886146136169E-09  1.39122203043111E-02
 cg2d: Sum(rhs),rhsMax =   1.44892980946665E-09  1.39119761574239E-02
 cg2d: Sum(rhs),rhsMax =   1.44900590137720E-09  1.39117325257914E-02
 cg2d: Sum(rhs),rhsMax =   1.44906497911990E-09  1.39114894561468E-02
 cg2d: Sum(rhs),rhsMax =   1.44913089861198E-09  1.39112470014473E-02
 cg2d: Sum(rhs),rhsMax =   1.44920049571784E-09  1.39110052194690E-02
 cg2d: Sum(rhs),rhsMax =   1.44928387346699E-09  1.39107641660900E-02
 cg2d: Sum(rhs),rhsMax =   1.44934471368874E-09  1.39105239064451E-02
 cg2d: Sum(rhs),rhsMax =   1.44940962010232E-09  1.39102845017530E-02
 cg2d: Sum(rhs),rhsMax =   1.44949052760524E-09  1.39100460213077E-02
 cg2d: Sum(rhs),rhsMax =   1.44956831260590E-09  1.39098085310830E-02
 cg2d: Sum(rhs),rhsMax =   1.44963532844322E-09  1.39095721030231E-02
 cg2d: Sum(rhs),rhsMax =   1.44969437843034E-09  1.39093368115928E-02
 cg2d: Sum(rhs),rhsMax =   1.44976348981363E-09  1.39091027324137E-02
 cg2d: Sum(rhs),rhsMax =   1.44983107464025E-09  1.39088699431717E-02
 cg2d: Sum(rhs),rhsMax =   1.44991098294245E-09  1.39086385247860E-02
 cg2d: Sum(rhs),rhsMax =   1.44997484852194E-09  1.39084085589268E-02
 cg2d: Sum(rhs),rhsMax =   1.45005048246549E-09  1.39081801287587E-02
 cg2d: Sum(rhs),rhsMax =   1.45012001018241E-09  1.39079533198998E-02
 cg2d: Sum(rhs),rhsMax =   1.45017084451915E-09  1.39077282179575E-02
 cg2d: Sum(rhs),rhsMax =   1.45024875441990E-09  1.39075049087253E-02
 cg2d: Sum(rhs),rhsMax =   1.45031238407700E-09  1.39072834776304E-02
 cg2d: Sum(rhs),rhsMax =   1.45039064092245E-09  1.39070640136484E-02
 cg2d: Sum(rhs),rhsMax =   1.45046272215232E-09  1.39068466032165E-02
 cg2d: Sum(rhs),rhsMax =   1.45053367928138E-09  1.39066313290717E-02
 cg2d: Sum(rhs),rhsMax =   1.45059601830422E-09  1.39064182767901E-02
 cg2d: Sum(rhs),rhsMax =   1.45065973122804E-09  1.39062075285984E-02
 cg2d: Sum(rhs),rhsMax =   1.45073375534821E-09  1.39059991635677E-02
 cg2d: Sum(rhs),rhsMax =   1.45082117153361E-09  1.39057932602981E-02
 cg2d: Sum(rhs),rhsMax =   1.45087952763134E-09  1.39055898924676E-02
 cg2d: Sum(rhs),rhsMax =   1.45094365688880E-09  1.39053891300022E-02
 cg2d: Sum(rhs),rhsMax =   1.45099822435046E-09  1.39051910396672E-02
 cg2d: Sum(rhs),rhsMax =   1.45106217319668E-09  1.39049956832401E-02
 cg2d: Sum(rhs),rhsMax =   1.45112490079757E-09  1.39048031185268E-02
 cg2d: Sum(rhs),rhsMax =   1.45119426198104E-09  1.39046133948971E-02
 cg2d: Sum(rhs),rhsMax =   1.45126213824120E-09  1.39044265609988E-02
 cg2d: Sum(rhs),rhsMax =   1.45132256212932E-09  1.39042426533268E-02
 cg2d: Sum(rhs),rhsMax =   1.45139168739039E-09  1.39040617062302E-02
 cg2d: Sum(rhs),rhsMax =   1.45145247210099E-09  1.39038837443696E-02
 cg2d: Sum(rhs),rhsMax =   1.45151583808012E-09  1.39037087865169E-02
 cg2d: Sum(rhs),rhsMax =   1.45156671405022E-09  1.39035368435251E-02
 cg2d: Sum(rhs),rhsMax =   1.45161557774109E-09  1.39033679154774E-02
 cg2d: Sum(rhs),rhsMax =   1.45167958209846E-09  1.39032019978731E-02
 cg2d: Sum(rhs),rhsMax =   1.45176502763800E-09  1.39030390765095E-02
 cg2d: Sum(rhs),rhsMax =   1.45182663113808E-09  1.39028791281620E-02
 cg2d: Sum(rhs),rhsMax =   1.45189277267477E-09  1.39027221185276E-02
 cg2d: Sum(rhs),rhsMax =   1.45195849787783E-09  1.39025680095268E-02
 cg2d: Sum(rhs),rhsMax =   1.45202166956793E-09  1.39024167499563E-02
 cg2d: Sum(rhs),rhsMax =   1.45208250978968E-09  1.39022682808045E-02
 cg2d: Sum(rhs),rhsMax =   1.45212718238863E-09  1.39021225331931E-02
 cg2d: Sum(rhs),rhsMax =   1.45220356573272E-09  1.39019794313567E-02
 cg2d: Sum(rhs),rhsMax =   1.45225390046910E-09  1.39018388897405E-02
 cg2d: Sum(rhs),rhsMax =   1.45231834891568E-09  1.39017008134147E-02
 cg2d: Sum(rhs),rhsMax =   1.45236792037373E-09  1.39015651001867E-02
 cg2d: Sum(rhs),rhsMax =   1.45243550520036E-09  1.39014316395175E-02
 cg2d: Sum(rhs),rhsMax =   1.45247745775290E-09  1.39013003115428E-02
 cg2d: Sum(rhs),rhsMax =   1.45253360728237E-09  1.39011709917630E-02
 cg2d: Sum(rhs),rhsMax =   1.45258975681184E-09  1.39010435470887E-02
 cg2d: Sum(rhs),rhsMax =   1.45265224849034E-09  1.39009178361964E-02
 cg2d: Sum(rhs),rhsMax =   1.45270570572897E-09  1.39007937149497E-02
 cg2d: Sum(rhs),rhsMax =   1.45275987073479E-09  1.39006710320009E-02
 cg2d: Sum(rhs),rhsMax =   1.45281979502254E-09  1.39005496294276E-02
 cg2d: Sum(rhs),rhsMax =   1.45287958053242E-09  1.39004293468463E-02
 cg2d: Sum(rhs),rhsMax =   1.45293846398609E-09  1.39003100199301E-02
 cg2d: Sum(rhs),rhsMax =   1.45299496046025E-09  1.39001914808654E-02
 cg2d: Sum(rhs),rhsMax =   1.45307164911568E-09  1.39000735568899E-02
 Computing Diagnostic #    26 "THETA   " (list#  1) Parms "SMR     MR      ", Count=     144
 Computing Diagnostic #    27 "SALT    " (list#  1) Parms "SMR     MR      ", Count=     144
 Computing Diagnostic #    30 "UVEL    " (list#  1) Parms "UUR     MR      ", Count=     144
             Vector  Mate for "UVEL    " :  Diagnostic #     31 "VVEL    " exists
 Computing Diagnostic #    32 "WVEL    " (list#  1) Parms "WM      LR      ", Count=     144
 Computing Diagnostic #    31 "VVEL    " (list#  1) Parms "VVR     MR      ", Count=     144
             Vector  Mate for "VVEL    " :  Diagnostic #     30 "UVEL    " exists
 Computing Diagnostic #   197 "BRGfwFlx" (list#  2) Parms "SM      MR      ", Count=     144
 Computing Diagnostic #   198 "BRGhtFlx" (list#  2) Parms "SM      MR      ", Count=     144
 Computing Diagnostic #   199 "BRGmltRt" (list#  2) Parms "SM      MR      ", Count=     144
 Computing Diagnostic #   201 "BRG_TauX" (list#  2) Parms "UU      MR      ", Count=    1728
 Computing Diagnostic #   202 "BRG_TauY" (list#  2) Parms "VV      MR      ", Count=    1728
 Computing Diagnostic #   203 "BRGhFacC" (list#  2) Parms "SM      MR      ", Count=    1728
 cg2d: Sum(rhs),rhsMax =   1.45313780453016E-09  1.38999560779040E-02
 cg2d: Sum(rhs),rhsMax =   1.45319188626925E-09  1.38998388684025E-02
 cg2d: Sum(rhs),rhsMax =   1.45324914602174E-09  1.38997217553977E-02
 cg2d: Sum(rhs),rhsMax =   1.45332529344344E-09  1.38996045630975E-02
 cg2d: Sum(rhs),rhsMax =   1.45337462897910E-09  1.38994871206608E-02
 cg2d: Sum(rhs),rhsMax =   1.45343151403132E-09  1.38993692563713E-02
 cg2d: Sum(rhs),rhsMax =   1.45349610125578E-09  1.38992508003642E-02
 cg2d: Sum(rhs),rhsMax =   1.45355168179595E-09  1.38991315863635E-02
 cg2d: Sum(rhs),rhsMax =   1.45360390391147E-09  1.38990114550856E-02
 cg2d: Sum(rhs),rhsMax =   1.45367741455349E-09  1.38988902473178E-02
 cg2d: Sum(rhs),rhsMax =   1.45373155180373E-09  1.38987678120615E-02
 cg2d: Sum(rhs),rhsMax =   1.45377859750440E-09  1.38986440016025E-02
 cg2d: Sum(rhs),rhsMax =   1.45384122796077E-09  1.38985186763680E-02
 cg2d: Sum(rhs),rhsMax =   1.45390255390510E-09  1.38983917057408E-02
 cg2d: Sum(rhs),rhsMax =   1.45396113204743E-09  1.38982629619927E-02
 cg2d: Sum(rhs),rhsMax =   1.45402420659302E-09  1.38981323294866E-02
 cg2d: Sum(rhs),rhsMax =   1.45408332596908E-09  1.38979996994607E-02
 cg2d: Sum(rhs),rhsMax =   1.45415197938537E-09  1.38978649730755E-02
 cg2d: Sum(rhs),rhsMax =   1.45421759356612E-09  1.38977280597227E-02
 cg2d: Sum(rhs),rhsMax =   1.45427025977085E-09  1.38975888804809E-02
 cg2d: Sum(rhs),rhsMax =   1.45435229137458E-09  1.38974473659874E-02
 cg2d: Sum(rhs),rhsMax =   1.45440469390135E-09  1.38973034544952E-02
 cg2d: Sum(rhs),rhsMax =   1.45447827393230E-09  1.38971570981169E-02
 cg2d: Sum(rhs),rhsMax =   1.45454064071071E-09  1.38970082596695E-02
 cg2d: Sum(rhs),rhsMax =   1.45461037659445E-09  1.38968569108368E-02
 cg2d: Sum(rhs),rhsMax =   1.45467504708563E-09  1.38967030352606E-02
 cg2d: Sum(rhs),rhsMax =   1.45474920998367E-09  1.38965466272374E-02
 cg2d: Sum(rhs),rhsMax =   1.45481030000560E-09  1.38963876924197E-02
 cg2d: Sum(rhs),rhsMax =   1.45486805935846E-09  1.38962262473209E-02
 cg2d: Sum(rhs),rhsMax =   1.45494620518161E-09  1.38960623169941E-02
 cg2d: Sum(rhs),rhsMax =   1.45501052872810E-09  1.38958959378264E-02
 cg2d: Sum(rhs),rhsMax =   1.45507328408456E-09  1.38957271557813E-02
 cg2d: Sum(rhs),rhsMax =   1.45513705251954E-09  1.38955560298551E-02
 cg2d: Sum(rhs),rhsMax =   1.45518935790179E-09  1.38953826218432E-02
 cg2d: Sum(rhs),rhsMax =   1.45525599903884E-09  1.38952070086345E-02
 cg2d: Sum(rhs),rhsMax =   1.45531979522939E-09  1.38950292694934E-02
 cg2d: Sum(rhs),rhsMax =   1.45539634510694E-09  1.38948494981963E-02
 cg2d: Sum(rhs),rhsMax =   1.45547084107189E-09  1.38946677883918E-02
 cg2d: Sum(rhs),rhsMax =   1.45553750996452E-09  1.38944842468836E-02
 cg2d: Sum(rhs),rhsMax =   1.45560918873855E-09  1.38942989808025E-02
 cg2d: Sum(rhs),rhsMax =   1.45567007059366E-09  1.38941121067452E-02
 cg2d: Sum(rhs),rhsMax =   1.45574109711166E-09  1.38939237456159E-02
 cg2d: Sum(rhs),rhsMax =   1.45579844013088E-09  1.38937340178810E-02
 cg2d: Sum(rhs),rhsMax =   1.45586512290130E-09  1.38935430539662E-02
 cg2d: Sum(rhs),rhsMax =   1.45592862765831E-09  1.38933509791349E-02
 cg2d: Sum(rhs),rhsMax =   1.45600126399970E-09  1.38931579279076E-02
 cg2d: Sum(rhs),rhsMax =   1.45606054990921E-09  1.38929640291775E-02
 cg2d: Sum(rhs),rhsMax =   1.45611844803994E-09  1.38927694172442E-02
 cg2d: Sum(rhs),rhsMax =   1.45620102087740E-09  1.38925742231043E-02
 cg2d: Sum(rhs),rhsMax =   1.45626301295554E-09  1.38923785757445E-02
 cg2d: Sum(rhs),rhsMax =   1.45633043124871E-09  1.38921826037821E-02
 cg2d: Sum(rhs),rhsMax =   1.45639088289240E-09  1.38919864324665E-02
 cg2d: Sum(rhs),rhsMax =   1.45645984162002E-09  1.38917901843831E-02
 cg2d: Sum(rhs),rhsMax =   1.45652137573116E-09  1.38915939740967E-02
 cg2d: Sum(rhs),rhsMax =   1.45659646844098E-09  1.38913979182192E-02
 cg2d: Sum(rhs),rhsMax =   1.45666825823731E-09  1.38912021220306E-02
 cg2d: Sum(rhs),rhsMax =   1.45673138829405E-09  1.38910066869879E-02
 cg2d: Sum(rhs),rhsMax =   1.45679529550691E-09  1.38908117090976E-02
 cg2d: Sum(rhs),rhsMax =   1.45684501962062E-09  1.38906172757700E-02
 cg2d: Sum(rhs),rhsMax =   1.45690229325091E-09  1.38904234669293E-02
 cg2d: Sum(rhs),rhsMax =   1.45697645614895E-09  1.38902303577933E-02
 cg2d: Sum(rhs),rhsMax =   1.45704760756704E-09  1.38900380102580E-02
 cg2d: Sum(rhs),rhsMax =   1.45711331889231E-09  1.38898464812166E-02
 cg2d: Sum(rhs),rhsMax =   1.45716919086603E-09  1.38896558190632E-02
 cg2d: Sum(rhs),rhsMax =   1.45724464439834E-09  1.38894660612193E-02
 cg2d: Sum(rhs),rhsMax =   1.45730232048447E-09  1.38892772376403E-02
 cg2d: Sum(rhs),rhsMax =   1.45735377932166E-09  1.38890893698219E-02
 cg2d: Sum(rhs),rhsMax =   1.45740938761740E-09  1.38889024672502E-02
 cg2d: Sum(rhs),rhsMax =   1.45746889557152E-09  1.38887165328422E-02
 cg2d: Sum(rhs),rhsMax =   1.45752974967106E-09  1.38885315605699E-02
 cg2d: Sum(rhs),rhsMax =   1.45758850822464E-09  1.38883475349129E-02
 cg2d: Sum(rhs),rhsMax =   1.45766691772575E-09  1.38881644307868E-02
 cg2d: Sum(rhs),rhsMax =   1.45773071391631E-09  1.38879822184986E-02
 cg2d: Sum(rhs),rhsMax =   1.45779677218627E-09  1.38878008538517E-02
 cg2d: Sum(rhs),rhsMax =   1.45784316563091E-09  1.38876202918762E-02
 cg2d: Sum(rhs),rhsMax =   1.45791402561546E-09  1.38874404756870E-02
 cg2d: Sum(rhs),rhsMax =   1.45798330353220E-09  1.38872613436814E-02
 cg2d: Sum(rhs),rhsMax =   1.45803993878424E-09  1.38870828305538E-02
 cg2d: Sum(rhs),rhsMax =   1.45810623297660E-09  1.38869048624935E-02
 cg2d: Sum(rhs),rhsMax =   1.45815762242485E-09  1.38867273583713E-02
 cg2d: Sum(rhs),rhsMax =   1.45822298680542E-09  1.38865502336033E-02
 cg2d: Sum(rhs),rhsMax =   1.45828209230370E-09  1.38863734022484E-02
 cg2d: Sum(rhs),rhsMax =   1.45834147535773E-09  1.38861967713216E-02
 cg2d: Sum(rhs),rhsMax =   1.45839804122083E-09  1.38860202464318E-02
 cg2d: Sum(rhs),rhsMax =   1.45845976962100E-09  1.38858437328830E-02
 cg2d: Sum(rhs),rhsMax =   1.45851426769372E-09  1.38856671339527E-02
 cg2d: Sum(rhs),rhsMax =   1.45858797262477E-09  1.38854903493117E-02
 cg2d: Sum(rhs),rhsMax =   1.45864677281171E-09  1.38853132832013E-02
 cg2d: Sum(rhs),rhsMax =   1.45871230372574E-09  1.38851358393721E-02
 cg2d: Sum(rhs),rhsMax =   1.45877677992790E-09  1.38849579223389E-02
 cg2d: Sum(rhs),rhsMax =   1.45883971569560E-09  1.38847794384363E-02
 cg2d: Sum(rhs),rhsMax =   1.45891657088448E-09  1.38846002977852E-02
 cg2d: Sum(rhs),rhsMax =   1.45899227421697E-09  1.38844204158058E-02
 cg2d: Sum(rhs),rhsMax =   1.45904881232450E-09  1.38842397093269E-02
 cg2d: Sum(rhs),rhsMax =   1.45910421245343E-09  1.38840581011162E-02
 cg2d: Sum(rhs),rhsMax =   1.45915977911582E-09  1.38838755205203E-02
 cg2d: Sum(rhs),rhsMax =   1.45921950911454E-09  1.38836919003347E-02
 cg2d: Sum(rhs),rhsMax =   1.45929650308130E-09  1.38835071795535E-02
 cg2d: Sum(rhs),rhsMax =   1.45936245032896E-09  1.38833213090834E-02
 cg2d: Sum(rhs),rhsMax =   1.45943690466055E-09  1.38831342410939E-02
 cg2d: Sum(rhs),rhsMax =   1.45949860530514E-09  1.38829459372382E-02
 cg2d: Sum(rhs),rhsMax =   1.45955725283642E-09  1.38827563707602E-02
 cg2d: Sum(rhs),rhsMax =   1.45962539277456E-09  1.38825655155295E-02
 cg2d: Sum(rhs),rhsMax =   1.45969686338177E-09  1.38823733609250E-02
 cg2d: Sum(rhs),rhsMax =   1.45975830034839E-09  1.38821799015272E-02
 cg2d: Sum(rhs),rhsMax =   1.45982863297700E-09  1.38819851393396E-02
 cg2d: Sum(rhs),rhsMax =   1.45987701094530E-09  1.38817890880170E-02
 cg2d: Sum(rhs),rhsMax =   1.45994129285842E-09  1.38815917673154E-02
 cg2d: Sum(rhs),rhsMax =   1.46001873091439E-09  1.38813932049046E-02
 cg2d: Sum(rhs),rhsMax =   1.46008313772761E-09  1.38811934402135E-02
 cg2d: Sum(rhs),rhsMax =   1.46015730062565E-09  1.38809925173679E-02
 cg2d: Sum(rhs),rhsMax =   1.46022560709724E-09  1.38807904880216E-02
 cg2d: Sum(rhs),rhsMax =   1.46028485137339E-09  1.38805874161891E-02
 cg2d: Sum(rhs),rhsMax =   1.46035784853726E-09  1.38803833670659E-02
 cg2d: Sum(rhs),rhsMax =   1.46043473148172E-09  1.38801784143260E-02
 cg2d: Sum(rhs),rhsMax =   1.46050074811832E-09  1.38799726407220E-02
 cg2d: Sum(rhs),rhsMax =   1.46057241301456E-09  1.38797661325061E-02
 cg2d: Sum(rhs),rhsMax =   1.46063942885188E-09  1.38795589796629E-02
 cg2d: Sum(rhs),rhsMax =   1.46070373852059E-09  1.38793512807010E-02
 cg2d: Sum(rhs),rhsMax =   1.46078094065416E-09  1.38791431346582E-02
 cg2d: Sum(rhs),rhsMax =   1.46084572216765E-09  1.38789346513332E-02
 cg2d: Sum(rhs),rhsMax =   1.46091172492646E-09  1.38787259299341E-02
 cg2d: Sum(rhs),rhsMax =   1.46097514641674E-09  1.38785170719254E-02
 cg2d: Sum(rhs),rhsMax =   1.46104148224246E-09  1.38783081996334E-02
 cg2d: Sum(rhs),rhsMax =   1.46109242760151E-09  1.38780994266225E-02
 cg2d: Sum(rhs),rhsMax =   1.46117241917043E-09  1.38778908599236E-02
 cg2d: Sum(rhs),rhsMax =   1.46123418920396E-09  1.38776826091256E-02
 cg2d: Sum(rhs),rhsMax =   1.46130860190219E-09  1.38774747814110E-02
 cg2d: Sum(rhs),rhsMax =   1.46138369461202E-09  1.38772674850126E-02
 cg2d: Sum(rhs),rhsMax =   1.46144465973386E-09  1.38770608230045E-02
 cg2d: Sum(rhs),rhsMax =   1.46152320801285E-09  1.38768548966655E-02
 cg2d: Sum(rhs),rhsMax =   1.46158932179397E-09  1.38766498015378E-02
 cg2d: Sum(rhs),rhsMax =   1.46165210490601E-09  1.38764456283072E-02
 cg2d: Sum(rhs),rhsMax =   1.46171717785304E-09  1.38762424606614E-02
 cg2d: Sum(rhs),rhsMax =   1.46177643600698E-09  1.38760403798055E-02
 cg2d: Sum(rhs),rhsMax =   1.46183927463017E-09  1.38758394568726E-02
 cg2d: Sum(rhs),rhsMax =   1.46191227179404E-09  1.38756397587749E-02
 cg2d: Sum(rhs),rhsMax =   1.46196392492026E-09  1.38754413409494E-02
 cg2d: Sum(rhs),rhsMax =   1.46203592288341E-09  1.38752442540738E-02
 cg2d: Sum(rhs),rhsMax =   1.46209791496155E-09  1.38750485400478E-02
 cg2d: Sum(rhs),rhsMax =   1.46216130869625E-09  1.38748542317228E-02
 cg2d: Sum(rhs),rhsMax =   1.46222972619015E-09  1.38746613516770E-02
 cg2d: Sum(rhs),rhsMax =   1.46229882369564E-09  1.38744699156473E-02
 cg2d: Sum(rhs),rhsMax =   1.46236263376398E-09  1.38742799278848E-02
 Computing Diagnostic #    26 "THETA   " (list#  1) Parms "SMR     MR      ", Count=     144
 Computing Diagnostic #    27 "SALT    " (list#  1) Parms "SMR     MR      ", Count=     144
 Computing Diagnostic #    30 "UVEL    " (list#  1) Parms "UUR     MR      ", Count=     144
             Vector  Mate for "UVEL    " :  Diagnostic #     31 "VVEL    " exists
 Computing Diagnostic #    32 "WVEL    " (list#  1) Parms "WM      LR      ", Count=     144
 Computing Diagnostic #    31 "VVEL    " (list#  1) Parms "VVR     MR      ", Count=     144
             Vector  Mate for "VVEL    " :  Diagnostic #     30 "UVEL    " exists
 Computing Diagnostic #   197 "BRGfwFlx" (list#  2) Parms "SM      MR      ", Count=     144
 Computing Diagnostic #   198 "BRGhtFlx" (list#  2) Parms "SM      MR      ", Count=     144
 Computing Diagnostic #   199 "BRGmltRt" (list#  2) Parms "SM      MR      ", Count=     144
 Computing Diagnostic #   201 "BRG_TauX" (list#  2) Parms "UU      MR      ", Count=    1728
 Computing Diagnostic #   202 "BRG_TauY" (list#  2) Parms "VV      MR      ", Count=    1728
 Computing Diagnostic #   203 "BRGhFacC" (list#  2) Parms "SM      MR      ", Count=    1728
 cg2d: Sum(rhs),rhsMax =   1.46242330745228E-09  1.38740913856469E-02
 cg2d: Sum(rhs),rhsMax =   1.46248571586405E-09  1.38739042756487E-02
 cg2d: Sum(rhs),rhsMax =   1.46255411948015E-09  1.38737185742410E-02
 cg2d: Sum(rhs),rhsMax =   1.46262990607937E-09  1.38735342484897E-02
 cg2d: Sum(rhs),rhsMax =   1.46269348022532E-09  1.38733512603071E-02
 cg2d: Sum(rhs),rhsMax =   1.46276474266571E-09  1.38731695588290E-02
 cg2d: Sum(rhs),rhsMax =   1.46283991864227E-09  1.38729890845889E-02
 cg2d: Sum(rhs),rhsMax =   1.46290500546709E-09  1.38728097719152E-02
 cg2d: Sum(rhs),rhsMax =   1.46296250114197E-09  1.38726315460106E-02
 cg2d: Sum(rhs),rhsMax =   1.46302849002300E-09  1.38724543244415E-02
 cg2d: Sum(rhs),rhsMax =   1.46309243886922E-09  1.38722780188579E-02
 cg2d: Sum(rhs),rhsMax =   1.46315408400266E-09  1.38721025332896E-02
 cg2d: Sum(rhs),rhsMax =   1.46321429972396E-09  1.38719277669095E-02
 cg2d: Sum(rhs),rhsMax =   1.46326746552905E-09  1.38717536128657E-02
 cg2d: Sum(rhs),rhsMax =   1.46333292705414E-09  1.38715799605223E-02
 cg2d: Sum(rhs),rhsMax =   1.46338099971111E-09  1.38714066918538E-02
 cg2d: Sum(rhs),rhsMax =   1.46343435980523E-09  1.38712336927791E-02
 cg2d: Sum(rhs),rhsMax =   1.46350140339813E-09  1.38710608400975E-02
 cg2d: Sum(rhs),rhsMax =   1.46357442831757E-09  1.38708880093997E-02
 cg2d: Sum(rhs),rhsMax =   1.46364276254474E-09  1.38707150787508E-02
 cg2d: Sum(rhs),rhsMax =   1.46369516507150E-09  1.38705419226855E-02
 cg2d: Sum(rhs),rhsMax =   1.46376637200074E-09  1.38703684176352E-02
 cg2d: Sum(rhs),rhsMax =   1.46381856636069E-09  1.38701944392324E-02
 cg2d: Sum(rhs),rhsMax =   1.46387481303467E-09  1.38700198682868E-02
 cg2d: Sum(rhs),rhsMax =   1.46394292521723E-09  1.38698445857305E-02
 cg2d: Sum(rhs),rhsMax =   1.46401085698855E-09  1.38696684764014E-02
 cg2d: Sum(rhs),rhsMax =   1.46408361823003E-09  1.38694914287272E-02
 cg2d: Sum(rhs),rhsMax =   1.46414677604234E-09  1.38693133365371E-02
 cg2d: Sum(rhs),rhsMax =   1.46421555435872E-09  1.38691341014615E-02
 cg2d: Sum(rhs),rhsMax =   1.46429013359040E-09  1.38689536245114E-02
 cg2d: Sum(rhs),rhsMax =   1.46434961378894E-09  1.38687718208188E-02
 cg2d: Sum(rhs),rhsMax =   1.46442565018834E-09  1.38685886084461E-02
 cg2d: Sum(rhs),rhsMax =   1.46448374260810E-09  1.38684039134634E-02
 cg2d: Sum(rhs),rhsMax =   1.46454523508588E-09  1.38682176679744E-02
 cg2d: Sum(rhs),rhsMax =   1.46461424932465E-09  1.38680298174936E-02
 cg2d: Sum(rhs),rhsMax =   1.46468880080075E-09  1.38678403130688E-02
 cg2d: Sum(rhs),rhsMax =   1.46475123696810E-09  1.38676491171570E-02
 cg2d: Sum(rhs),rhsMax =   1.46480966245477E-09  1.38674561940659E-02
 cg2d: Sum(rhs),rhsMax =   1.46488168817349E-09  1.38672615255022E-02
 cg2d: Sum(rhs),rhsMax =   1.46494921748896E-09  1.38670650999827E-02
 cg2d: Sum(rhs),rhsMax =   1.46501731579374E-09  1.38668669154486E-02
 cg2d: Sum(rhs),rhsMax =   1.46507223020009E-09  1.38666669794247E-02
 cg2d: Sum(rhs),rhsMax =   1.46513627619083E-09  1.38664653078337E-02
 cg2d: Sum(rhs),rhsMax =   1.46519880950269E-09  1.38662619297207E-02
 cg2d: Sum(rhs),rhsMax =   1.46525350186444E-09  1.38660568795459E-02
 cg2d: Sum(rhs),rhsMax =   1.46532787292930E-09  1.38658502011348E-02
 cg2d: Sum(rhs),rhsMax =   1.46538332856938E-09  1.38656419487160E-02
 cg2d: Sum(rhs),rhsMax =   1.46545084400707E-09  1.38654321827352E-02
 cg2d: Sum(rhs),rhsMax =   1.46551851210042E-09  1.38652209719686E-02
 cg2d: Sum(rhs),rhsMax =   1.46558314095824E-09  1.38650083937215E-02
 cg2d: Sum(rhs),rhsMax =   1.46565579117741E-09  1.38647945325039E-02
 cg2d: Sum(rhs),rhsMax =   1.46572691483993E-09  1.38645794759899E-02
 cg2d: Sum(rhs),rhsMax =   1.46579026694127E-09  1.38643633202647E-02
 cg2d: Sum(rhs),rhsMax =   1.46586316696062E-09  1.38641461654371E-02
 cg2d: Sum(rhs),rhsMax =   1.46594354710761E-09  1.38639281164741E-02
 cg2d: Sum(rhs),rhsMax =   1.46602328887635E-09  1.38637092825386E-02
 cg2d: Sum(rhs),rhsMax =   1.46608869489029E-09  1.38634897738433E-02
 cg2d: Sum(rhs),rhsMax =   1.46616130347610E-09  1.38632633090148E-02
 cg2d: Sum(rhs),rhsMax =   1.46623341246155E-09  1.38630364736406E-02
 cg2d: Sum(rhs),rhsMax =   1.46630746433729E-09  1.38628094844262E-02
 cg2d: Sum(rhs),rhsMax =   1.46636441877845E-09  1.38625825193976E-02
 cg2d: Sum(rhs),rhsMax =   1.46643772125366E-09  1.38623557836844E-02
 cg2d: Sum(rhs),rhsMax =   1.46651854548985E-09  1.38621294698950E-02
 cg2d: Sum(rhs),rhsMax =   1.46659312472153E-09  1.38619037652818E-02
 cg2d: Sum(rhs),rhsMax =   1.46665223021980E-09  1.38616788477515E-02
 cg2d: Sum(rhs),rhsMax =   1.46672031464679E-09  1.38614548888540E-02
 cg2d: Sum(rhs),rhsMax =   1.46679730861354E-09  1.38612320528572E-02
 cg2d: Sum(rhs),rhsMax =   1.46687038904414E-09  1.38610104883805E-02
 cg2d: Sum(rhs),rhsMax =   1.46693035496526E-09  1.38607903369875E-02
 cg2d: Sum(rhs),rhsMax =   1.46699336012190E-09  1.38605717266890E-02
 cg2d: Sum(rhs),rhsMax =   1.46708598047773E-09  1.38603547719310E-02
 cg2d: Sum(rhs),rhsMax =   1.46717560323140E-09  1.38601395738095E-02
 cg2d: Sum(rhs),rhsMax =   1.46723071192678E-09  1.38599262162756E-02
 cg2d: Sum(rhs),rhsMax =   1.46729560446257E-09  1.38597147739136E-02
 cg2d: Sum(rhs),rhsMax =   1.46737917650075E-09  1.38595052987519E-02
 cg2d: Sum(rhs),rhsMax =   1.46744287554679E-09  1.38592978310002E-02
 cg2d: Sum(rhs),rhsMax =   1.46749855323147E-09  1.38590923930601E-02
 cg2d: Sum(rhs),rhsMax =   1.46754633445489E-09  1.38588889913983E-02
 cg2d: Sum(rhs),rhsMax =   1.46761930386319E-09  1.38586876160550E-02
 cg2d: Sum(rhs),rhsMax =   1.46769416065062E-09  1.38584882384999E-02
 cg2d: Sum(rhs),rhsMax =   1.46774445375364E-09  1.38582908152243E-02
 cg2d: Sum(rhs),rhsMax =   1.46781883869629E-09  1.38580952877554E-02
 cg2d: Sum(rhs),rhsMax =   1.46788695087885E-09  1.38579015812587E-02
 cg2d: Sum(rhs),rhsMax =   1.46794514044313E-09  1.38577096037349E-02
 cg2d: Sum(rhs),rhsMax =   1.46799836175937E-09  1.38575192483397E-02
 cg2d: Sum(rhs),rhsMax =   1.46806762579832E-09  1.38573303970586E-02
 cg2d: Sum(rhs),rhsMax =   1.46815251622634E-09  1.38571429172631E-02
 cg2d: Sum(rhs),rhsMax =   1.46821173274692E-09  1.38569566613825E-02
 cg2d: Sum(rhs),rhsMax =   1.46827888736212E-09  1.38567714728930E-02
 cg2d: Sum(rhs),rhsMax =   1.46834622238856E-09  1.38565871839076E-02
 cg2d: Sum(rhs),rhsMax =   1.46840796466652E-09  1.38564036169122E-02
 cg2d: Sum(rhs),rhsMax =   1.46846726445382E-09  1.38562205855197E-02
 cg2d: Sum(rhs),rhsMax =   1.46852269233833E-09  1.38560378958643E-02
 cg2d: Sum(rhs),rhsMax =   1.46858972205344E-09  1.38558553502249E-02
 cg2d: Sum(rhs),rhsMax =   1.46865915262584E-09  1.38556727438756E-02
 cg2d: Sum(rhs),rhsMax =   1.46873371797973E-09  1.38554898693510E-02
 cg2d: Sum(rhs),rhsMax =   1.46881562468337E-09  1.38553065172616E-02
 cg2d: Sum(rhs),rhsMax =   1.46889053698196E-09  1.38551224762730E-02
 cg2d: Sum(rhs),rhsMax =   1.46896229902271E-09  1.38549375413752E-02
 cg2d: Sum(rhs),rhsMax =   1.46902062736487E-09  1.38547515011845E-02
 cg2d: Sum(rhs),rhsMax =   1.46905847209222E-09  1.38545641469384E-02
 cg2d: Sum(rhs),rhsMax =   1.46912740306426E-09  1.38543752830476E-02
 cg2d: Sum(rhs),rhsMax =   1.46918981147603E-09  1.38541847268665E-02
 cg2d: Sum(rhs),rhsMax =   1.46925263622144E-09  1.38539922887872E-02
 cg2d: Sum(rhs),rhsMax =   1.46933033795538E-09  1.38537977885090E-02
 cg2d: Sum(rhs),rhsMax =   1.46938151923681E-09  1.38536010617710E-02
 cg2d: Sum(rhs),rhsMax =   1.46946824153282E-09  1.38534019552337E-02
 cg2d: Sum(rhs),rhsMax =   1.46954670654509E-09  1.38532003264102E-02
 cg2d: Sum(rhs),rhsMax =   1.46962678138074E-09  1.38529960441795E-02
 cg2d: Sum(rhs),rhsMax =   1.46969990344470E-09  1.38527889956329E-02
 cg2d: Sum(rhs),rhsMax =   1.46977580106622E-09  1.38525790818082E-02
 cg2d: Sum(rhs),rhsMax =   1.46983662741018E-09  1.38523662185005E-02
 cg2d: Sum(rhs),rhsMax =   1.46990654370516E-09  1.38521503404395E-02
 cg2d: Sum(rhs),rhsMax =   1.46997881922406E-09  1.38519313978158E-02
 cg2d: Sum(rhs),rhsMax =   1.47004158845832E-09  1.38517093607592E-02
 cg2d: Sum(rhs),rhsMax =   1.47011181006462E-09  1.38514842163791E-02
 cg2d: Sum(rhs),rhsMax =   1.47018114349251E-09  1.38512559725629E-02
 cg2d: Sum(rhs),rhsMax =   1.47024055430212E-09  1.38510247062822E-02
 cg2d: Sum(rhs),rhsMax =   1.47031678499054E-09  1.38507904894399E-02
 cg2d: Sum(rhs),rhsMax =   1.47039247444525E-09  1.38505533853423E-02
 cg2d: Sum(rhs),rhsMax =   1.47046523568672E-09  1.38503134740065E-02
 cg2d: Sum(rhs),rhsMax =   1.47053569321542E-09  1.38500708600740E-02
 cg2d: Sum(rhs),rhsMax =   1.47060930100196E-09  1.38498256591817E-02
 cg2d: Sum(rhs),rhsMax =   1.47065494504606E-09  1.38495780103519E-02
 cg2d: Sum(rhs),rhsMax =   1.47073603296022E-09  1.38493280659063E-02
 cg2d: Sum(rhs),rhsMax =   1.47080370105357E-09  1.38490759991381E-02
 cg2d: Sum(rhs),rhsMax =   1.47087345081509E-09  1.38488219934800E-02
 cg2d: Sum(rhs),rhsMax =   1.47094159075323E-09  1.38485662534292E-02
 cg2d: Sum(rhs),rhsMax =   1.47101363034974E-09  1.38483089956898E-02
 cg2d: Sum(rhs),rhsMax =   1.47108258907735E-09  1.38480504468041E-02
 cg2d: Sum(rhs),rhsMax =   1.47114978532592E-09  1.38477908509874E-02
 cg2d: Sum(rhs),rhsMax =   1.47123373206437E-09  1.38475304579761E-02
 cg2d: Sum(rhs),rhsMax =   1.47130813088481E-09  1.38472695320195E-02
 cg2d: Sum(rhs),rhsMax =   1.47138456974005E-09  1.38470083435173E-02
 cg2d: Sum(rhs),rhsMax =   1.47145180762198E-09  1.38467471697652E-02
 cg2d: Sum(rhs),rhsMax =   1.47153303431402E-09  1.38464862943851E-02
 cg2d: Sum(rhs),rhsMax =   1.47160041097383E-09  1.38462260046714E-02
 cg2d: Sum(rhs),rhsMax =   1.47165887809386E-09  1.38459665903354E-02
 cg2d: Sum(rhs),rhsMax =   1.47173682962798E-09  1.38457083450155E-02
 cg2d: Sum(rhs),rhsMax =   1.47180848064643E-09  1.38454515593222E-02
 cg2d: Sum(rhs),rhsMax =   1.47188294885581E-09  1.38451965255743E-02
 cg2d: Sum(rhs),rhsMax =   1.47196732580568E-09  1.38449435302287E-02
 cg2d: Sum(rhs),rhsMax =   1.47205228562264E-09  1.38446928546052E-02
 cg2d: Sum(rhs),rhsMax =   1.47212639300953E-09  1.38444447791190E-02
 Computing Diagnostic #    26 "THETA   " (list#  1) Parms "SMR     MR      ", Count=     144
 Computing Diagnostic #    27 "SALT    " (list#  1) Parms "SMR     MR      ", Count=     144
 Computing Diagnostic #    30 "UVEL    " (list#  1) Parms "UUR     MR      ", Count=     144
             Vector  Mate for "UVEL    " :  Diagnostic #     31 "VVEL    " exists
 Computing Diagnostic #    32 "WVEL    " (list#  1) Parms "WM      LR      ", Count=     144
 Computing Diagnostic #    31 "VVEL    " (list#  1) Parms "VVR     MR      ", Count=     144
             Vector  Mate for "VVEL    " :  Diagnostic #     30 "UVEL    " exists
 Computing Diagnostic #   197 "BRGfwFlx" (list#  2) Parms "SM      MR      ", Count=     144
 Computing Diagnostic #   198 "BRGhtFlx" (list#  2) Parms "SM      MR      ", Count=     144
 Computing Diagnostic #   199 "BRGmltRt" (list#  2) Parms "SM      MR      ", Count=     144
 Computing Diagnostic #   201 "BRG_TauX" (list#  2) Parms "UU      MR      ", Count=    1728
 Computing Diagnostic #   202 "BRG_TauY" (list#  2) Parms "VV      MR      ", Count=    1728
 Computing Diagnostic #   203 "BRGhFacC" (list#  2) Parms "SM      MR      ", Count=    1728
 cg2d: Sum(rhs),rhsMax =   1.47218162660501E-09  1.38441995713007E-02
 cg2d: Sum(rhs),rhsMax =   1.47227628699564E-09  1.38439574939845E-02
 cg2d: Sum(rhs),rhsMax =   1.47232617764281E-09  1.38437187970108E-02
 cg2d: Sum(rhs),rhsMax =   1.47240111769698E-09  1.38434837223702E-02
 cg2d: Sum(rhs),rhsMax =   1.47246695392234E-09  1.38432524968930E-02
 cg2d: Sum(rhs),rhsMax =   1.47253563509420E-09  1.38430253334975E-02
 cg2d: Sum(rhs),rhsMax =   1.47261026983703E-09  1.38428024318630E-02
 cg2d: Sum(rhs),rhsMax =   1.47266862593476E-09  1.38425839758035E-02
 cg2d: Sum(rhs),rhsMax =   1.47272941064536E-09  1.38423701327329E-02
 cg2d: Sum(rhs),rhsMax =   1.47278721163158E-09  1.38421610502812E-02
 cg2d: Sum(rhs),rhsMax =   1.47286360885346E-09  1.38419568614581E-02
 cg2d: Sum(rhs),rhsMax =   1.47292188168446E-09  1.38417576770949E-02
 cg2d: Sum(rhs),rhsMax =   1.47297907204802E-09  1.38415635911553E-02
 cg2d: Sum(rhs),rhsMax =   1.47304578257401E-09  1.38413746754118E-02
 cg2d: Sum(rhs),rhsMax =   1.47311247922222E-09  1.38411909824210E-02
 cg2d: Sum(rhs),rhsMax =   1.47316163434663E-09  1.38410125424697E-02
 cg2d: Sum(rhs),rhsMax =   1.47321047028193E-09  1.38408393595154E-02
 cg2d: Sum(rhs),rhsMax =   1.47327292032706E-09  1.38406714268774E-02
 cg2d: Sum(rhs),rhsMax =   1.47334572320190E-09  1.38405087117398E-02
 cg2d: Sum(rhs),rhsMax =   1.47339281053593E-09  1.38403511664861E-02
 cg2d: Sum(rhs),rhsMax =   1.47345985412883E-09  1.38401987201854E-02
 cg2d: Sum(rhs),rhsMax =   1.47352412216417E-09  1.38400512826598E-02
 cg2d: Sum(rhs),rhsMax =   1.47358604485337E-09  1.38399087441430E-02
 cg2d: Sum(rhs),rhsMax =   1.47365249170139E-09  1.38397709777976E-02
 cg2d: Sum(rhs),rhsMax =   1.47369678960008E-09  1.38396378379283E-02
 cg2d: Sum(rhs),rhsMax =   1.47375017744977E-09  1.38395091614183E-02
 cg2d: Sum(rhs),rhsMax =   1.47378953485600E-09  1.38393847699664E-02
 cg2d: Sum(rhs),rhsMax =   1.47384983384402E-09  1.38392644677086E-02
 cg2d: Sum(rhs),rhsMax =   1.47390358251620E-09  1.38391480450389E-02
 cg2d: Sum(rhs),rhsMax =   1.47396396477095E-09  1.38390352805631E-02
 cg2d: Sum(rhs),rhsMax =   1.47401342520670E-09  1.38389259379768E-02
 cg2d: Sum(rhs),rhsMax =   1.47406831185748E-09  1.38388197771570E-02
 cg2d: Sum(rhs),rhsMax =   1.47411788331553E-09  1.38387165313992E-02
 cg2d: Sum(rhs),rhsMax =   1.47416713558446E-09  1.38386159350022E-02
 cg2d: Sum(rhs),rhsMax =   1.47422662966079E-09  1.38385177267203E-02
 cg2d: Sum(rhs),rhsMax =   1.47427874075401E-09  1.38384216264702E-02
 cg2d: Sum(rhs),rhsMax =   1.47432538399883E-09  1.38383273476351E-02
 cg2d: Sum(rhs),rhsMax =   1.47438408704126E-09  1.38382346034571E-02
 cg2d: Sum(rhs),rhsMax =   1.47444798037633E-09  1.38381431068897E-02
 cg2d: Sum(rhs),rhsMax =   1.47448676879325E-09  1.38380525672082E-02
 cg2d: Sum(rhs),rhsMax =   1.47454506937983E-09  1.38379626966167E-02
 cg2d: Sum(rhs),rhsMax =   1.47460944843747E-09  1.38378732094216E-02
 cg2d: Sum(rhs),rhsMax =   1.47465788191692E-09  1.38377838209891E-02
 cg2d: Sum(rhs),rhsMax =   1.47470576028486E-09  1.38376942519349E-02
 cg2d: Sum(rhs),rhsMax =   1.47474733813713E-09  1.38376042312346E-02
 cg2d: Sum(rhs),rhsMax =   1.47481456214127E-09  1.38375134896831E-02
 cg2d: Sum(rhs),rhsMax =   1.47486366175453E-09  1.38374217692619E-02
 cg2d: Sum(rhs),rhsMax =   1.47493034452495E-09  1.38373288226643E-02
 cg2d: Sum(rhs),rhsMax =   1.47497901392679E-09  1.38372344079218E-02
 cg2d: Sum(rhs),rhsMax =   1.47503416425554E-09  1.38371382979742E-02
 cg2d: Sum(rhs),rhsMax =   1.47509754411246E-09  1.38370402748110E-02
 cg2d: Sum(rhs),rhsMax =   1.47515115400676E-09  1.38369401359719E-02
 cg2d: Sum(rhs),rhsMax =   1.47518958160120E-09  1.38368376914158E-02
 cg2d: Sum(rhs),rhsMax =   1.47524693849821E-09  1.38367327627849E-02
 cg2d: Sum(rhs),rhsMax =   1.47529929939161E-09  1.38366251890441E-02
 cg2d: Sum(rhs),rhsMax =   1.47535773875607E-09  1.38365148237729E-02
 cg2d: Sum(rhs),rhsMax =   1.47541985573429E-09  1.38364015346290E-02
 cg2d: Sum(rhs),rhsMax =   1.47547801754300E-09  1.38362852064526E-02
 cg2d: Sum(rhs),rhsMax =   1.47554581053644E-09  1.38361657384687E-02
 cg2d: Sum(rhs),rhsMax =   1.47559928165286E-09  1.38360430469474E-02
 cg2d: Sum(rhs),rhsMax =   1.47565501484870E-09  1.38359170640113E-02
 cg2d: Sum(rhs),rhsMax =   1.47570411446196E-09  1.38357877382464E-02
 cg2d: Sum(rhs),rhsMax =   1.47575947295753E-09  1.38356550324529E-02
 cg2d: Sum(rhs),rhsMax =   1.47581541432018E-09  1.38355189257695E-02
 cg2d: Sum(rhs),rhsMax =   1.47587897458834E-09  1.38353794146825E-02
 cg2d: Sum(rhs),rhsMax =   1.47593245958255E-09  1.38352365071685E-02
 cg2d: Sum(rhs),rhsMax =   1.47597191413329E-09  1.38350902264591E-02
 cg2d: Sum(rhs),rhsMax =   1.47603498867888E-09  1.38349406120634E-02
 cg2d: Sum(rhs),rhsMax =   1.47608125722343E-09  1.38347877141526E-02
 cg2d: Sum(rhs),rhsMax =   1.47614352685732E-09  1.38346315970645E-02
 cg2d: Sum(rhs),rhsMax =   1.47620321522268E-09  1.38344723364878E-02
 cg2d: Sum(rhs),rhsMax =   1.47625718593947E-09  1.38343100173979E-02
 cg2d: Sum(rhs),rhsMax =   1.47631699920492E-09  1.38341447385023E-02
 cg2d: Sum(rhs),rhsMax =   1.47638448688703E-09  1.38339766053338E-02
 cg2d: Sum(rhs),rhsMax =   1.47645885795189E-09  1.38338057343787E-02
 cg2d: Sum(rhs),rhsMax =   1.47652452764380E-09  1.38336322453814E-02
 cg2d: Sum(rhs),rhsMax =   1.47658056615096E-09  1.38334562704688E-02
 cg2d: Sum(rhs),rhsMax =   1.47664253047353E-09  1.38332779449098E-02
 cg2d: Sum(rhs),rhsMax =   1.47670392580679E-09  1.38330974049773E-02
 cg2d: Sum(rhs),rhsMax =   1.47676744444158E-09  1.38329147957770E-02
 cg2d: Sum(rhs),rhsMax =   1.47682480133859E-09  1.38327302655497E-02
 cg2d: Sum(rhs),rhsMax =   1.47690229490571E-09  1.38325439597857E-02
 cg2d: Sum(rhs),rhsMax =   1.47698259178597E-09  1.38323560284339E-02
 cg2d: Sum(rhs),rhsMax =   1.47704591613174E-09  1.38321666200757E-02
 cg2d: Sum(rhs),rhsMax =   1.47710871312157E-09  1.38319758827178E-02
 cg2d: Sum(rhs),rhsMax =   1.47716458509528E-09  1.38317839628170E-02
 cg2d: Sum(rhs),rhsMax =   1.47721920806809E-09  1.38315910019893E-02
 cg2d: Sum(rhs),rhsMax =   1.47727358124072E-09  1.38313971402035E-02
 cg2d: Sum(rhs),rhsMax =   1.47733823785412E-09  1.38312025139288E-02
 cg2d: Sum(rhs),rhsMax =   1.47741534284318E-09  1.38310072510062E-02
 cg2d: Sum(rhs),rhsMax =   1.47748077661269E-09  1.38308114773319E-02
 cg2d: Sum(rhs),rhsMax =   1.47752524104483E-09  1.38306153084887E-02
 cg2d: Sum(rhs),rhsMax =   1.47758533186604E-09  1.38304188583188E-02
 cg2d: Sum(rhs),rhsMax =   1.47765613633943E-09  1.38302222284846E-02
 cg2d: Sum(rhs),rhsMax =   1.47772484526687E-09  1.38300255145280E-02
 cg2d: Sum(rhs),rhsMax =   1.47779098680356E-09  1.38298288041428E-02
 cg2d: Sum(rhs),rhsMax =   1.47783998927231E-09  1.38296321768218E-02
 cg2d: Sum(rhs),rhsMax =   1.47789712412472E-09  1.38294356980683E-02
 cg2d: Sum(rhs),rhsMax =   1.47797400706917E-09  1.38292394339306E-02
 cg2d: Sum(rhs),rhsMax =   1.47803266847824E-09  1.38290434325519E-02
 cg2d: Sum(rhs),rhsMax =   1.47810527706405E-09  1.38288477358935E-02
 cg2d: Sum(rhs),rhsMax =   1.47817817708340E-09  1.38286523775962E-02
 cg2d: Sum(rhs),rhsMax =   1.47822064311409E-09  1.38284573814742E-02
 cg2d: Sum(rhs),rhsMax =   1.47829004593092E-09  1.38282627629307E-02
 cg2d: Sum(rhs),rhsMax =   1.47835056696355E-09  1.38280685260651E-02
 cg2d: Sum(rhs),rhsMax =   1.47840674424859E-09  1.38278746690160E-02
 cg2d: Sum(rhs),rhsMax =   1.47846698772547E-09  1.38276811818928E-02
 cg2d: Sum(rhs),rhsMax =   1.47853664034248E-09  1.38274880437670E-02
 cg2d: Sum(rhs),rhsMax =   1.47858972288084E-09  1.38272952272231E-02
 cg2d: Sum(rhs),rhsMax =   1.47866507926864E-09  1.38271027019401E-02
 cg2d: Sum(rhs),rhsMax =   1.47872354638867E-09  1.38269104259720E-02
 cg2d: Sum(rhs),rhsMax =   1.47877877998415E-09  1.38267183528825E-02
 cg2d: Sum(rhs),rhsMax =   1.47883329193466E-09  1.38265264306040E-02
 cg2d: Sum(rhs),rhsMax =   1.47888939983076E-09  1.38263346037465E-02
 cg2d: Sum(rhs),rhsMax =   1.47895334867698E-09  1.38261428100609E-02
 cg2d: Sum(rhs),rhsMax =   1.47902776137521E-09  1.38259509867139E-02
 cg2d: Sum(rhs),rhsMax =   1.47910650394323E-09  1.38257590646544E-02
 cg2d: Sum(rhs),rhsMax =   1.47916814907667E-09  1.38255669735575E-02
 cg2d: Sum(rhs),rhsMax =   1.47923537308081E-09  1.38253743330294E-02
 cg2d: Sum(rhs),rhsMax =   1.47929933580482E-09  1.38251805122489E-02
 cg2d: Sum(rhs),rhsMax =   1.47936125849402E-09  1.38249854251475E-02
 cg2d: Sum(rhs),rhsMax =   1.47942021133662E-09  1.38247890069350E-02
 cg2d: Sum(rhs),rhsMax =   1.47947359918632E-09  1.38245911893285E-02
 cg2d: Sum(rhs),rhsMax =   1.47954899720748E-09  1.38243919032816E-02
 cg2d: Sum(rhs),rhsMax =   1.47961784491280E-09  1.38241910831964E-02
 cg2d: Sum(rhs),rhsMax =   1.47969042574303E-09  1.38239886665253E-02
 cg2d: Sum(rhs),rhsMax =   1.47975856568117E-09  1.38237845938045E-02
 cg2d: Sum(rhs),rhsMax =   1.47981428499921E-09  1.38235788096207E-02
 cg2d: Sum(rhs),rhsMax =   1.47987920529058E-09  1.38233712643753E-02
 cg2d: Sum(rhs),rhsMax =   1.47994839994059E-09  1.38231619139055E-02
 cg2d: Sum(rhs),rhsMax =   1.48001050304103E-09  1.38229507163856E-02
 cg2d: Sum(rhs),rhsMax =   1.48006844280513E-09  1.38227376400161E-02
 cg2d: Sum(rhs),rhsMax =   1.48013648559875E-09  1.38225226569720E-02
 cg2d: Sum(rhs),rhsMax =   1.48020418144768E-09  1.38223057461369E-02
 cg2d: Sum(rhs),rhsMax =   1.48028575508441E-09  1.38220868930825E-02
 cg2d: Sum(rhs),rhsMax =   1.48036105596105E-09  1.38218660898851E-02
 cg2d: Sum(rhs),rhsMax =   1.48042211822741E-09  1.38216433367224E-02
 cg2d: Sum(rhs),rhsMax =   1.48049587866961E-09  1.38214186407293E-02
 cg2d: Sum(rhs),rhsMax =   1.48055875892616E-09  1.38211920137729E-02
 cg2d: Sum(rhs),rhsMax =   1.48063129812304E-09  1.38209634771802E-02
 cg2d: Sum(rhs),rhsMax =   1.48068346472741E-09  1.38207330580570E-02
 cg2d: Sum(rhs),rhsMax =   1.48076061134983E-09  1.38205007905808E-02
 cg2d: Sum(rhs),rhsMax =   1.48082653084192E-09  1.38202667169198E-02
 cg2d: Sum(rhs),rhsMax =   1.48088612206276E-09  1.38201459749698E-02
 Computing Diagnostic #    26 "THETA   " (list#  1) Parms "SMR     MR      ", Count=     144
 Computing Diagnostic #    27 "SALT    " (list#  1) Parms "SMR     MR      ", Count=     144
 Computing Diagnostic #    30 "UVEL    " (list#  1) Parms "UUR     MR      ", Count=     144
             Vector  Mate for "UVEL    " :  Diagnostic #     31 "VVEL    " exists
 Computing Diagnostic #    32 "WVEL    " (list#  1) Parms "WM      LR      ", Count=     144
 Computing Diagnostic #    31 "VVEL    " (list#  1) Parms "VVR     MR      ", Count=     144
             Vector  Mate for "VVEL    " :  Diagnostic #     30 "UVEL    " exists
 Computing Diagnostic #   197 "BRGfwFlx" (list#  2) Parms "SM      MR      ", Count=     144
 Computing Diagnostic #   198 "BRGhtFlx" (list#  2) Parms "SM      MR      ", Count=     144
 Computing Diagnostic #   199 "BRGmltRt" (list#  2) Parms "SM      MR      ", Count=     144
 Computing Diagnostic #   201 "BRG_TauX" (list#  2) Parms "UU      MR      ", Count=    1728
 Computing Diagnostic #   202 "BRG_TauY" (list#  2) Parms "VV      MR      ", Count=    1728
 Computing Diagnostic #   203 "BRGhFacC" (list#  2) Parms "SM      MR      ", Count=    1728
 cg2d: Sum(rhs),rhsMax =   1.48092775542619E-09  1.38200452784763E-02
 cg2d: Sum(rhs),rhsMax =   1.48098804053642E-09  1.38199432864524E-02
 cg2d: Sum(rhs),rhsMax =   1.48106243935686E-09  1.38198384721186E-02
 cg2d: Sum(rhs),rhsMax =   1.48111363451608E-09  1.38197306167200E-02
 cg2d: Sum(rhs),rhsMax =   1.48117135223558E-09  1.38196194170777E-02
 cg2d: Sum(rhs),rhsMax =   1.48122841769904E-09  1.38195045775221E-02
 cg2d: Sum(rhs),rhsMax =   1.48129283839005E-09  1.38193858248854E-02
 cg2d: Sum(rhs),rhsMax =   1.48135637090263E-09  1.38192628982018E-02
 cg2d: Sum(rhs),rhsMax =   1.48140080757919E-09  1.38191355528706E-02
 cg2d: Sum(rhs),rhsMax =   1.48147109857444E-09  1.38190035640008E-02
 cg2d: Sum(rhs),rhsMax =   1.48152971835014E-09  1.38188667194745E-02
 cg2d: Sum(rhs),rhsMax =   1.48160957114118E-09  1.38187248275894E-02
 cg2d: Sum(rhs),rhsMax =   1.48166676150474E-09  1.38185777100705E-02
 cg2d: Sum(rhs),rhsMax =   1.48170928304658E-09  1.38184252074902E-02
 cg2d: Sum(rhs),rhsMax =   1.48177126124693E-09  1.38182671805334E-02
 cg2d: Sum(rhs),rhsMax =   1.48183647297184E-09  1.38181035008247E-02
 cg2d: Sum(rhs),rhsMax =   1.48190687498939E-09  1.38179340614819E-02
 cg2d: Sum(rhs),rhsMax =   1.48196949156798E-09  1.38177587710673E-02
 cg2d: Sum(rhs),rhsMax =   1.48203040117867E-09  1.38175775564702E-02
 cg2d: Sum(rhs),rhsMax =   1.48208575967423E-09  1.38173903593752E-02
 cg2d: Sum(rhs),rhsMax =   1.48214801543034E-09  1.38171971397772E-02
 cg2d: Sum(rhs),rhsMax =   1.48221941664861E-09  1.38169978714551E-02
 cg2d: Sum(rhs),rhsMax =   1.48228262997208E-09  1.38167925488638E-02
 cg2d: Sum(rhs),rhsMax =   1.48234173547035E-09  1.38165811756075E-02
 cg2d: Sum(rhs),rhsMax =   1.48241088848700E-09  1.38163637770493E-02
 cg2d: Sum(rhs),rhsMax =   1.48248660569728E-09  1.38161403894048E-02
 cg2d: Sum(rhs),rhsMax =   1.48256459886476E-09  1.38159110629239E-02
 cg2d: Sum(rhs),rhsMax =   1.48262398191878E-09  1.38156758644878E-02
 cg2d: Sum(rhs),rhsMax =   1.48269693744929E-09  1.38154348709257E-02
 cg2d: Sum(rhs),rhsMax =   1.48275526579145E-09  1.38151881739837E-02
 cg2d: Sum(rhs),rhsMax =   1.48282516820863E-09  1.38149358756226E-02
 cg2d: Sum(rhs),rhsMax =   1.48290799084627E-09  1.38146780921917E-02
 cg2d: Sum(rhs),rhsMax =   1.48296563917683E-09  1.38144149476709E-02
 cg2d: Sum(rhs),rhsMax =   1.48304044045311E-09  1.38141465760342E-02
 cg2d: Sum(rhs),rhsMax =   1.48311393721734E-09  1.38138731224402E-02
 cg2d: Sum(rhs),rhsMax =   1.48316828263440E-09  1.38135947432694E-02
 cg2d: Sum(rhs),rhsMax =   1.48324687254675E-09  1.38133115969616E-02
 cg2d: Sum(rhs),rhsMax =   1.48330300819843E-09  1.38130238552992E-02
 cg2d: Sum(rhs),rhsMax =   1.48338361039002E-09  1.38127316926690E-02
 cg2d: Sum(rhs),rhsMax =   1.48345787043258E-09  1.38124352930129E-02
 cg2d: Sum(rhs),rhsMax =   1.48352892470616E-09  1.38121348423150E-02
 cg2d: Sum(rhs),rhsMax =   1.48360879137499E-09  1.38118305356462E-02
 cg2d: Sum(rhs),rhsMax =   1.48371710750883E-09  1.38115225695863E-02
 cg2d: Sum(rhs),rhsMax =   1.48377757303031E-09  1.38112111441455E-02
 cg2d: Sum(rhs),rhsMax =   1.48386757048424E-09  1.38108964638468E-02
 cg2d: Sum(rhs),rhsMax =   1.48394752041980E-09  1.38105787330719E-02
 cg2d: Sum(rhs),rhsMax =   1.48403879463022E-09  1.38102581630384E-02
 cg2d: Sum(rhs),rhsMax =   1.48412156175670E-09  1.38099349611924E-02
 cg2d: Sum(rhs),rhsMax =   1.48420445378328E-09  1.38096093374536E-02
 cg2d: Sum(rhs),rhsMax =   1.48428239143961E-09  1.38092815005046E-02
 cg2d: Sum(rhs),rhsMax =   1.48435899682831E-09  1.38089516607642E-02
 cg2d: Sum(rhs),rhsMax =   1.48444251335533E-09  1.38086200263359E-02
 cg2d: Sum(rhs),rhsMax =   1.48452886095107E-09  1.38082868039476E-02
 cg2d: Sum(rhs),rhsMax =   1.48461481996875E-09  1.38079521977419E-02
 cg2d: Sum(rhs),rhsMax =   1.48468656813172E-09  1.38076164108932E-02
 cg2d: Sum(rhs),rhsMax =   1.48477603822972E-09  1.38072796424600E-02
 cg2d: Sum(rhs),rhsMax =   1.48485644613228E-09  1.38069420861594E-02
 cg2d: Sum(rhs),rhsMax =   1.48493853324716E-09  1.38066039353826E-02
 cg2d: Sum(rhs),rhsMax =   1.48502860009003E-09  1.38062653781132E-02
 cg2d: Sum(rhs),rhsMax =   1.48510999331553E-09  1.38059265972476E-02
 cg2d: Sum(rhs),rhsMax =   1.48519208043041E-09  1.38055877706393E-02
 cg2d: Sum(rhs),rhsMax =   1.48527451448999E-09  1.38052490693458E-02
 cg2d: Sum(rhs),rhsMax =   1.48536066779670E-09  1.38049106621259E-02
 cg2d: Sum(rhs),rhsMax =   1.48543657929601E-09  1.38045727088740E-02
 cg2d: Sum(rhs),rhsMax =   1.48552148360181E-09  1.38042353642585E-02
 cg2d: Sum(rhs),rhsMax =   1.48558960966216E-09  1.38038987754679E-02
 cg2d: Sum(rhs),rhsMax =   1.48564668900342E-09  1.38035630844106E-02
 cg2d: Sum(rhs),rhsMax =   1.48573628400150E-09  1.38032284248526E-02
 cg2d: Sum(rhs),rhsMax =   1.48583036152505E-09  1.38028949210373E-02
 cg2d: Sum(rhs),rhsMax =   1.48591232373985E-09  1.38025626963070E-02
 cg2d: Sum(rhs),rhsMax =   1.48598733318295E-09  1.38022318586116E-02
 cg2d: Sum(rhs),rhsMax =   1.48606070504709E-09  1.38019025126811E-02
 cg2d: Sum(rhs),rhsMax =   1.48614144601655E-09  1.38015747521054E-02
 cg2d: Sum(rhs),rhsMax =   1.48622383844277E-09  1.38012486668922E-02
 cg2d: Sum(rhs),rhsMax =   1.48630555085738E-09  1.38009243322662E-02
 cg2d: Sum(rhs),rhsMax =   1.48636770946897E-09  1.38006018203766E-02
 cg2d: Sum(rhs),rhsMax =   1.48643861108688E-09  1.38002811940849E-02
 cg2d: Sum(rhs),rhsMax =   1.48650491915703E-09  1.37999625069431E-02
 cg2d: Sum(rhs),rhsMax =   1.48658435561444E-09  1.37996458025915E-02
 cg2d: Sum(rhs),rhsMax =   1.48666551291754E-09  1.37993311169778E-02
 cg2d: Sum(rhs),rhsMax =   1.48674873801102E-09  1.37990184795655E-02
 cg2d: Sum(rhs),rhsMax =   1.48683577949615E-09  1.37987079100729E-02
 cg2d: Sum(rhs),rhsMax =   1.48690851298205E-09  1.37983994182132E-02
 cg2d: Sum(rhs),rhsMax =   1.48699104418615E-09  1.37980930064177E-02
 cg2d: Sum(rhs),rhsMax =   1.48706627567385E-09  1.37977886706912E-02
 cg2d: Sum(rhs),rhsMax =   1.48715065262373E-09  1.37974863957968E-02
 cg2d: Sum(rhs),rhsMax =   1.48722657800082E-09  1.37971861603902E-02
 cg2d: Sum(rhs),rhsMax =   1.48730519566875E-09  1.37968879368292E-02
 cg2d: Sum(rhs),rhsMax =   1.48738064920106E-09  1.37965916848077E-02
 cg2d: Sum(rhs),rhsMax =   1.48744282169044E-09  1.37962973628395E-02
 cg2d: Sum(rhs),rhsMax =   1.48751840012284E-09  1.37960049180170E-02
 cg2d: Sum(rhs),rhsMax =   1.48759488061145E-09  1.37957142907677E-02
 cg2d: Sum(rhs),rhsMax =   1.48767567709207E-09  1.37954254177336E-02
 cg2d: Sum(rhs),rhsMax =   1.48775530783851E-09  1.37951382259056E-02
 cg2d: Sum(rhs),rhsMax =   1.48783502185168E-09  1.37948526383585E-02
 cg2d: Sum(rhs),rhsMax =   1.48791272358562E-09  1.37945685712451E-02
 cg2d: Sum(rhs),rhsMax =   1.48799368659969E-09  1.37942859376804E-02
 cg2d: Sum(rhs),rhsMax =   1.48806296451642E-09  1.37940046425243E-02
 cg2d: Sum(rhs),rhsMax =   1.48813499023515E-09  1.37937245887642E-02
 cg2d: Sum(rhs),rhsMax =   1.48820858414389E-09  1.37934456744964E-02
 cg2d: Sum(rhs),rhsMax =   1.48827868085011E-09  1.37931677934445E-02
 cg2d: Sum(rhs),rhsMax =   1.48835709035122E-09  1.37928908387976E-02
 cg2d: Sum(rhs),rhsMax =   1.48842239922065E-09  1.37926146939078E-02
 cg2d: Sum(rhs),rhsMax =   1.48849124692596E-09  1.37923392505881E-02
 cg2d: Sum(rhs),rhsMax =   1.48856287018884E-09  1.37920643904252E-02
 cg2d: Sum(rhs),rhsMax =   1.48865388072128E-09  1.37917899972583E-02
 cg2d: Sum(rhs),rhsMax =   1.48872887628659E-09  1.37915159527168E-02
 cg2d: Sum(rhs),rhsMax =   1.48880270611773E-09  1.37912421387173E-02
 cg2d: Sum(rhs),rhsMax =   1.48887921436192E-09  1.37909684391242E-02
 cg2d: Sum(rhs),rhsMax =   1.48895837326357E-09  1.37906947351843E-02
 cg2d: Sum(rhs),rhsMax =   1.48903246677268E-09  1.37904209128963E-02
 cg2d: Sum(rhs),rhsMax =   1.48911062647361E-09  1.37901468576860E-02
 cg2d: Sum(rhs),rhsMax =   1.48919018783111E-09  1.37898724576664E-02
 cg2d: Sum(rhs),rhsMax =   1.48927814525024E-09  1.37895976052814E-02
 cg2d: Sum(rhs),rhsMax =   1.48935201671474E-09  1.37893221992050E-02
 cg2d: Sum(rhs),rhsMax =   1.48944062638989E-09  1.37890461342655E-02
 cg2d: Sum(rhs),rhsMax =   1.48952053469209E-09  1.37887693102281E-02
 cg2d: Sum(rhs),rhsMax =   1.48958081980233E-09  1.37884916337599E-02
 cg2d: Sum(rhs),rhsMax =   1.48966561308583E-09  1.37882130186355E-02
 cg2d: Sum(rhs),rhsMax =   1.48973926250573E-09  1.37879333839605E-02
 cg2d: Sum(rhs),rhsMax =   1.48981661729497E-09  1.37876526535984E-02
 cg2d: Sum(rhs),rhsMax =   1.48989232062746E-09  1.37873707594727E-02
 cg2d: Sum(rhs),rhsMax =   1.48996377735688E-09  1.37870876391988E-02
 cg2d: Sum(rhs),rhsMax =   1.49005741079122E-09  1.37868032360731E-02
 cg2d: Sum(rhs),rhsMax =   1.49012559236272E-09  1.37865175005266E-02
 cg2d: Sum(rhs),rhsMax =   1.49019133144357E-09  1.37862303952094E-02
 cg2d: Sum(rhs),rhsMax =   1.49025335127728E-09  1.37859418837566E-02
 cg2d: Sum(rhs),rhsMax =   1.49032425289519E-09  1.37856519402491E-02
 cg2d: Sum(rhs),rhsMax =   1.49039823538200E-09  1.37853605488892E-02
 cg2d: Sum(rhs),rhsMax =   1.49048538788943E-09  1.37850677560806E-02
 cg2d: Sum(rhs),rhsMax =   1.49056463005781E-09  1.37847735823562E-02
 cg2d: Sum(rhs),rhsMax =   1.49062913401554E-09  1.37844780243873E-02
 cg2d: Sum(rhs),rhsMax =   1.49069465105178E-09  1.37841812227902E-02
 cg2d: Sum(rhs),rhsMax =   1.49076093136635E-09  1.37838831911916E-02
 cg2d: Sum(rhs),rhsMax =   1.49083718981036E-09  1.37835839886491E-02
 cg2d: Sum(rhs),rhsMax =   1.49091594625617E-09  1.37832836823145E-02
 cg2d: Sum(rhs),rhsMax =   1.49098812463055E-09  1.37829823451798E-02
 cg2d: Sum(rhs),rhsMax =   1.49106642310937E-09  1.37826800537413E-02
 cg2d: Sum(rhs),rhsMax =   1.49113923986199E-09  1.37823768904879E-02
 cg2d: Sum(rhs),rhsMax =   1.49121534565033E-09  1.37820729412526E-02
 cg2d: Sum(rhs),rhsMax =   1.49128465132264E-09  1.37817682970519E-02
 cg2d: Sum(rhs),rhsMax =   1.49137671656696E-09  1.37814630501564E-02
 cg2d: Sum(rhs),rhsMax =   1.49145149008767E-09  1.37811572960155E-02
 cg2d: Sum(rhs),rhsMax =   1.49153236983501E-09  1.37808511368219E-02
(PID.TID 0000.0001)      cg2d_init_res =   6.21024898520097E-05
(PID.TID 0000.0001)      cg2d_iters(min,last) =      -1      38
(PID.TID 0000.0001)      cg2d_last_res =   7.89401551128434E-14
(PID.TID 0000.0001) // =======================================================
(PID.TID 0000.0001) // Begin MONITOR dynamic field statistics
(PID.TID 0000.0001) // =======================================================
(PID.TID 0000.0001) %MON time_tsnumber                =                 30240
(PID.TID 0000.0001) %MON time_secondsf                =   7.5600000000000E+05
(PID.TID 0000.0001) %MON dynstat_eta_max              =   4.6526076331561E-03
(PID.TID 0000.0001) %MON dynstat_eta_min              =  -2.3210982643901E-03
(PID.TID 0000.0001) %MON dynstat_eta_mean             =  -1.3764653564636E-13
(PID.TID 0000.0001) %MON dynstat_eta_sd               =   2.3390652535688E-03
(PID.TID 0000.0001) %MON dynstat_eta_del2             =   1.8806241887168E-05
(PID.TID 0000.0001) %MON dynstat_uvel_max             =   4.3536205767256E-02
(PID.TID 0000.0001) %MON dynstat_uvel_min             =  -4.5396294131130E-02
(PID.TID 0000.0001) %MON dynstat_uvel_mean            =   4.2025584929823E-09
(PID.TID 0000.0001) %MON dynstat_uvel_sd              =   6.7115517502307E-03
(PID.TID 0000.0001) %MON dynstat_uvel_del2            =   1.0134913653197E-04
(PID.TID 0000.0001) %MON dynstat_vvel_max             =   2.3848706585468E-02
(PID.TID 0000.0001) %MON dynstat_vvel_min             =  -3.5382320071895E-02
(PID.TID 0000.0001) %MON dynstat_vvel_mean            =  -8.0919746347489E-03
(PID.TID 0000.0001) %MON dynstat_vvel_sd              =   1.1610557491092E-02
(PID.TID 0000.0001) %MON dynstat_vvel_del2            =   9.1417732997584E-05
(PID.TID 0000.0001) %MON dynstat_wvel_max             =   1.3726865578931E-03
(PID.TID 0000.0001) %MON dynstat_wvel_min             =  -1.1469212020335E-03
(PID.TID 0000.0001) %MON dynstat_wvel_mean            =  -2.3647364915689E-20
(PID.TID 0000.0001) %MON dynstat_wvel_sd              =   1.2713980001701E-04
(PID.TID 0000.0001) %MON dynstat_wvel_del2            =   6.5377979186206E-06
(PID.TID 0000.0001) %MON dynstat_theta_max            =   2.6931451612903E+00
(PID.TID 0000.0001) %MON dynstat_theta_min            =  -7.6766411817186E-01
(PID.TID 0000.0001) %MON dynstat_theta_mean           =   2.2182561925827E+00
(PID.TID 0000.0001) %MON dynstat_theta_sd             =   5.3625790381340E-01
(PID.TID 0000.0001) %MON dynstat_theta_del2           =   1.7094802281491E-03
(PID.TID 0000.0001) %MON dynstat_salt_max             =   3.4699999999999E+01
(PID.TID 0000.0001) %MON dynstat_salt_min             =   3.3061085626510E+01
(PID.TID 0000.0001) %MON dynstat_salt_mean            =   3.4363950658558E+01
(PID.TID 0000.0001) %MON dynstat_salt_sd              =   3.2219652762720E-01
(PID.TID 0000.0001) %MON dynstat_salt_del2            =   1.9157380387683E-04
(PID.TID 0000.0001) %MON advcfl_uvel_max              =   2.2698147065565E-03
(PID.TID 0000.0001) %MON advcfl_vvel_max              =   1.7691160035947E-03
(PID.TID 0000.0001) %MON advcfl_wvel_max              =   6.5965404387986E-04
(PID.TID 0000.0001) %MON advcfl_W_hf_max              =   1.4137894954665E-03
(PID.TID 0000.0001) %MON pe_b_mean                    =   4.5648798127311E-08
(PID.TID 0000.0001) %MON ke_max                       =   1.0151610730552E-03
(PID.TID 0000.0001) %MON ke_mean                      =   1.1270082058044E-04
(PID.TID 0000.0001) %MON ke_vol                       =   3.2921708585402E+10
(PID.TID 0000.0001) // =======================================================
(PID.TID 0000.0001) // End MONITOR dynamic field statistics
(PID.TID 0000.0001) // =======================================================
(PID.TID 0000.0001) // =======================================================
(PID.TID 0000.0001) // Begin OBCS MONITOR field statistics
(PID.TID 0000.0001) // =======================================================
(PID.TID 0000.0001) %MON obc_E_uVel_max               =   0.0000000000000E+00
(PID.TID 0000.0001) %MON obc_E_uVel_min               =   0.0000000000000E+00
(PID.TID 0000.0001) %MON obc_E_uVel_mean              =   0.0000000000000E+00
(PID.TID 0000.0001) %MON obc_E_uVel_sd                =   0.0000000000000E+00
(PID.TID 0000.0001) %MON obc_E_uVel_Int               =   0.0000000000000E+00
(PID.TID 0000.0001) %MON obc_N_vVel_max               =  -3.6115799844846E-05
(PID.TID 0000.0001) %MON obc_N_vVel_min               =  -3.0000000000000E-02
(PID.TID 0000.0001) %MON obc_N_vVel_mean              =  -1.3225455303334E-02
(PID.TID 0000.0001) %MON obc_N_vVel_sd                =   1.1350864292742E-02
(PID.TID 0000.0001) %MON obc_N_vVel_Int               =  -5.9514548865004E+04
(PID.TID 0000.0001) %MON obc_S_vVel_max               =  -3.6115799844846E-05
(PID.TID 0000.0001) %MON obc_S_vVel_min               =  -3.0000000000000E-02
(PID.TID 0000.0001) %MON obc_S_vVel_mean              =  -1.3225455303334E-02
(PID.TID 0000.0001) %MON obc_S_vVel_sd                =   1.1350864292742E-02
(PID.TID 0000.0001) %MON obc_S_vVel_Int               =  -5.9514548865004E+04
(PID.TID 0000.0001) // =======================================================
(PID.TID 0000.0001) // End OBCS MONITOR field statistics
(PID.TID 0000.0001) // =======================================================
 Computing Diagnostic #    26 "THETA   " (list#  1) Parms "SMR     MR      ", Count=     144
 Computing Diagnostic #    27 "SALT    " (list#  1) Parms "SMR     MR      ", Count=     144
 Computing Diagnostic #    30 "UVEL    " (list#  1) Parms "UUR     MR      ", Count=     144
             Vector  Mate for "UVEL    " :  Diagnostic #     31 "VVEL    " exists
 Computing Diagnostic #    32 "WVEL    " (list#  1) Parms "WM      LR      ", Count=     144
 Computing Diagnostic #    31 "VVEL    " (list#  1) Parms "VVR     MR      ", Count=     144
             Vector  Mate for "VVEL    " :  Diagnostic #     30 "UVEL    " exists
 Computing Diagnostic #   197 "BRGfwFlx" (list#  2) Parms "SM      MR      ", Count=     144
 Computing Diagnostic #   198 "BRGhtFlx" (list#  2) Parms "SM      MR      ", Count=     144
 Computing Diagnostic #   199 "BRGmltRt" (list#  2) Parms "SM      MR      ", Count=     144
 Computing Diagnostic #   201 "BRG_TauX" (list#  2) Parms "UU      MR      ", Count=    1728
 Computing Diagnostic #   202 "BRG_TauY" (list#  2) Parms "VV      MR      ", Count=    1728
 Computing Diagnostic #   203 "BRGhFacC" (list#  2) Parms "SM      MR      ", Count=    1728
 cg2d: Sum(rhs),rhsMax =   1.49160871154574E-09  1.37805446733006E-02
 cg2d: Sum(rhs),rhsMax =   1.49169006313787E-09  1.37802380088750E-02
 cg2d: Sum(rhs),rhsMax =   1.49177484254359E-09  1.37799312502296E-02
 cg2d: Sum(rhs),rhsMax =   1.49184153919180E-09  1.37796245028564E-02
 cg2d: Sum(rhs),rhsMax =   1.49192523613007E-09  1.37793178751755E-02
 cg2d: Sum(rhs),rhsMax =   1.49200155008522E-09  1.37790114709379E-02
 cg2d: Sum(rhs),rhsMax =   1.49207857180755E-09  1.37787053974792E-02
 cg2d: Sum(rhs),rhsMax =   1.49215023670379E-09  1.37783997599721E-02
 cg2d: Sum(rhs),rhsMax =   1.49223657042175E-09  1.37780946597100E-02
 cg2d: Sum(rhs),rhsMax =   1.49230812429568E-09  1.37777899472390E-02
 cg2d: Sum(rhs),rhsMax =   1.49238746360858E-09  1.37774857104208E-02
 cg2d: Sum(rhs),rhsMax =   1.49245790725949E-09  1.37771817995634E-02
 cg2d: Sum(rhs),rhsMax =   1.49254071601934E-09  1.37768780685285E-02
 cg2d: Sum(rhs),rhsMax =   1.49262238680059E-09  1.37765744724416E-02
 cg2d: Sum(rhs),rhsMax =   1.49270126814649E-09  1.37762709363164E-02
 cg2d: Sum(rhs),rhsMax =   1.49277781802404E-09  1.37759673843380E-02
 cg2d: Sum(rhs),rhsMax =   1.49285364625662E-09  1.37756637487985E-02
 cg2d: Sum(rhs),rhsMax =   1.49290659001711E-09  1.37753599762427E-02
 cg2d: Sum(rhs),rhsMax =   1.49297560425588E-09  1.37750560227555E-02
 cg2d: Sum(rhs),rhsMax =   1.49304617280688E-09  1.37747518583975E-02
 cg2d: Sum(rhs),rhsMax =   1.49313236774695E-09  1.37744474602123E-02
 cg2d: Sum(rhs),rhsMax =   1.49319646924884E-09  1.37741428226375E-02
 cg2d: Sum(rhs),rhsMax =   1.49326219445189E-09  1.37738379510916E-02
 cg2d: Sum(rhs),rhsMax =   1.49333843901811E-09  1.37735328612878E-02
 cg2d: Sum(rhs),rhsMax =   1.49341107535950E-09  1.37732275821185E-02
 cg2d: Sum(rhs),rhsMax =   1.49349255185172E-09  1.37729221574200E-02
 cg2d: Sum(rhs),rhsMax =   1.49359062617815E-09  1.37726166397736E-02
 cg2d: Sum(rhs),rhsMax =   1.49366703727782E-09  1.37723110980282E-02
 cg2d: Sum(rhs),rhsMax =   1.49372753055488E-09  1.37720056079362E-02
 cg2d: Sum(rhs),rhsMax =   1.49381414182859E-09  1.37717002902446E-02
 cg2d: Sum(rhs),rhsMax =   1.49390116943593E-09  1.37713952332725E-02
 cg2d: Sum(rhs),rhsMax =   1.49397952342589E-09  1.37710905200026E-02
 cg2d: Sum(rhs),rhsMax =   1.49405549043635E-09  1.37707862665312E-02
 cg2d: Sum(rhs),rhsMax =   1.49411492900153E-09  1.37704826098400E-02
 cg2d: Sum(rhs),rhsMax =   1.49420006922973E-09  1.37701796969536E-02
 cg2d: Sum(rhs),rhsMax =   1.49428339146773E-09  1.37698776828279E-02
 cg2d: Sum(rhs),rhsMax =   1.49437130725349E-09  1.37695767264847E-02
 cg2d: Sum(rhs),rhsMax =   1.49443768471258E-09  1.37692769887066E-02
 cg2d: Sum(rhs),rhsMax =   1.49450386788264E-09  1.37689786359393E-02
 cg2d: Sum(rhs),rhsMax =   1.49458011244885E-09  1.37686818309599E-02
 cg2d: Sum(rhs),rhsMax =   1.49464896015417E-09  1.37683867424028E-02
 cg2d: Sum(rhs),rhsMax =   1.49472596799871E-09  1.37680935385489E-02
 cg2d: Sum(rhs),rhsMax =   1.49479770228389E-09  1.37678023844584E-02
 cg2d: Sum(rhs),rhsMax =   1.49486045764036E-09  1.37675134454291E-02
 cg2d: Sum(rhs),rhsMax =   1.49493245560350E-09  1.37672268830663E-02
 cg2d: Sum(rhs),rhsMax =   1.49501444557387E-09  1.37669428524090E-02
 cg2d: Sum(rhs),rhsMax =   1.49510116786988E-09  1.37666615281494E-02
 cg2d: Sum(rhs),rhsMax =   1.49518732117659E-09  1.37663830339361E-02
 cg2d: Sum(rhs),rhsMax =   1.49526162285252E-09  1.37661075108770E-02
 cg2d: Sum(rhs),rhsMax =   1.49533901927512E-09  1.37658350923852E-02
 cg2d: Sum(rhs),rhsMax =   1.49541859451041E-09  1.37655658994151E-02
 cg2d: Sum(rhs),rhsMax =   1.49549422845396E-09  1.37653000388658E-02
 cg2d: Sum(rhs),rhsMax =   1.49556061979084E-09  1.37650376041110E-02
 cg2d: Sum(rhs),rhsMax =   1.49563153528653E-09  1.37647786800107E-02
 cg2d: Sum(rhs),rhsMax =   1.49572676466647E-09  1.37645233300762E-02
 cg2d: Sum(rhs),rhsMax =   1.49579328090343E-09  1.37642716053671E-02
 cg2d: Sum(rhs),rhsMax =   1.49587041364807E-09  1.37640235415919E-02
 cg2d: Sum(rhs),rhsMax =   1.49595111298417E-09  1.37637791539056E-02
 cg2d: Sum(rhs),rhsMax =   1.49601721288750E-09  1.37635384428585E-02
 cg2d: Sum(rhs),rhsMax =   1.49607606858559E-09  1.37633013935972E-02
 cg2d: Sum(rhs),rhsMax =   1.49614702571466E-09  1.37630679695485E-02
 cg2d: Sum(rhs),rhsMax =   1.49620420220042E-09  1.37628381170467E-02
 cg2d: Sum(rhs),rhsMax =   1.49627736589775E-09  1.37626117658178E-02
 cg2d: Sum(rhs),rhsMax =   1.49633806734162E-09  1.37623888289269E-02
 cg2d: Sum(rhs),rhsMax =   1.49640715096933E-09  1.37621692124384E-02
 cg2d: Sum(rhs),rhsMax =   1.49646897651401E-09  1.37619527374523E-02
 cg2d: Sum(rhs),rhsMax =   1.49653932302041E-09  1.37617392918239E-02
 cg2d: Sum(rhs),rhsMax =   1.49660606130197E-09  1.37615286960244E-02
 cg2d: Sum(rhs),rhsMax =   1.49666916360314E-09  1.37613207626486E-02
 cg2d: Sum(rhs),rhsMax =   1.49672522986588E-09  1.37611152885904E-02
 cg2d: Sum(rhs),rhsMax =   1.49680176586564E-09  1.37609120601905E-02
 cg2d: Sum(rhs),rhsMax =   1.49688354766919E-09  1.37607108495300E-02
 cg2d: Sum(rhs),rhsMax =   1.49696736950755E-09  1.37605114180016E-02
 cg2d: Sum(rhs),rhsMax =   1.49704808272144E-09  1.37603135153856E-02
 cg2d: Sum(rhs),rhsMax =   1.49713236252680E-09  1.37601168838581E-02
 cg2d: Sum(rhs),rhsMax =   1.49720504050155E-09  1.37599212535893E-02
 cg2d: Sum(rhs),rhsMax =   1.49727082121576E-09  1.37597263538807E-02
 cg2d: Sum(rhs),rhsMax =   1.49734891152775E-09  1.37595319031828E-02
 cg2d: Sum(rhs),rhsMax =   1.49741444244178E-09  1.37593376210191E-02
 cg2d: Sum(rhs),rhsMax =   1.49746680333518E-09  1.37591432221202E-02
 cg2d: Sum(rhs),rhsMax =   1.49753270894948E-09  1.37589484205080E-02
 cg2d: Sum(rhs),rhsMax =   1.49758928869037E-09  1.37587529319174E-02
 cg2d: Sum(rhs),rhsMax =   1.49765590207185E-09  1.37585564713842E-02
 cg2d: Sum(rhs),rhsMax =   1.49771701984935E-09  1.37583587605126E-02
 cg2d: Sum(rhs),rhsMax =   1.49779015579110E-09  1.37581595214402E-02
 cg2d: Sum(rhs),rhsMax =   1.49785725489515E-09  1.37579584872213E-02
 cg2d: Sum(rhs),rhsMax =   1.49792360459866E-09  1.37577553947249E-02
 cg2d: Sum(rhs),rhsMax =   1.49799402049400E-09  1.37575499866009E-02
 cg2d: Sum(rhs),rhsMax =   1.49805301496997E-09  1.37573420211875E-02
 cg2d: Sum(rhs),rhsMax =   1.49812773297953E-09  1.37571312641049E-02
 cg2d: Sum(rhs),rhsMax =   1.49819134875884E-09  1.37569174928909E-02
 cg2d: Sum(rhs),rhsMax =   1.49828395523688E-09  1.37567004979110E-02
 cg2d: Sum(rhs),rhsMax =   1.49835505114382E-09  1.37564800854614E-02
 cg2d: Sum(rhs),rhsMax =   1.49841955510155E-09  1.37562560730701E-02
 cg2d: Sum(rhs),rhsMax =   1.49848675135011E-09  1.37560282973038E-02
 cg2d: Sum(rhs),rhsMax =   1.49855589048897E-09  1.37557966067657E-02
 cg2d: Sum(rhs),rhsMax =   1.49861908993465E-09  1.37555608694671E-02
 cg2d: Sum(rhs),rhsMax =   1.49868671639464E-09  1.37553209697347E-02
 cg2d: Sum(rhs),rhsMax =   1.49875660493404E-09  1.37550768084732E-02
 cg2d: Sum(rhs),rhsMax =   1.49882305178206E-09  1.37548283036289E-02
 cg2d: Sum(rhs),rhsMax =   1.49889209377640E-09  1.37545753945249E-02
 cg2d: Sum(rhs),rhsMax =   1.49895856838000E-09  1.37543180359269E-02
 cg2d: Sum(rhs),rhsMax =   1.49903292556708E-09  1.37540561983949E-02
 cg2d: Sum(rhs),rhsMax =   1.49909998303777E-09  1.37537898753568E-02
 cg2d: Sum(rhs),rhsMax =   1.49917783742737E-09  1.37535190724081E-02
 cg2d: Sum(rhs),rhsMax =   1.49925119541372E-09  1.37532438174288E-02
 cg2d: Sum(rhs),rhsMax =   1.49932630200134E-09  1.37529641519166E-02
 cg2d: Sum(rhs),rhsMax =   1.49941313531965E-09  1.37526801372108E-02
 cg2d: Sum(rhs),rhsMax =   1.49948499450492E-09  1.37523918466390E-02
 cg2d: Sum(rhs),rhsMax =   1.49957465889194E-09  1.37520993710264E-02
 cg2d: Sum(rhs),rhsMax =   1.49965556639486E-09  1.37518028191917E-02
 cg2d: Sum(rhs),rhsMax =   1.49972774476925E-09  1.37515023093872E-02
 cg2d: Sum(rhs),rhsMax =   1.49980119990012E-09  1.37511979749309E-02
 cg2d: Sum(rhs),rhsMax =   1.49989522191252E-09  1.37508899625308E-02
 cg2d: Sum(rhs),rhsMax =   1.49996785825390E-09  1.37505784296695E-02
 cg2d: Sum(rhs),rhsMax =   1.50005823040811E-09  1.37502635446949E-02
 cg2d: Sum(rhs),rhsMax =   1.50014488331518E-09  1.37499454865501E-02
 cg2d: Sum(rhs),rhsMax =   1.50022978762099E-09  1.37496244435957E-02
 cg2d: Sum(rhs),rhsMax =   1.50031109757975E-09  1.37493006085331E-02
 cg2d: Sum(rhs),rhsMax =   1.50039292101667E-09  1.37489741839286E-02
 cg2d: Sum(rhs),rhsMax =   1.50047425873101E-09  1.37486453758047E-02
 cg2d: Sum(rhs),rhsMax =   1.50055147474237E-09  1.37483143965048E-02
 cg2d: Sum(rhs),rhsMax =   1.50062083592584E-09  1.37479814627835E-02
 cg2d: Sum(rhs),rhsMax =   1.50070748883291E-09  1.37476467923444E-02
 cg2d: Sum(rhs),rhsMax =   1.50078556526712E-09  1.37473106059034E-02
 cg2d: Sum(rhs),rhsMax =   1.50085820160850E-09  1.37469731246705E-02
 cg2d: Sum(rhs),rhsMax =   1.50093672213192E-09  1.37466345689816E-02
 cg2d: Sum(rhs),rhsMax =   1.50101005236269E-09  1.37462951582402E-02
 cg2d: Sum(rhs),rhsMax =   1.50109615015825E-09  1.37459551090802E-02
 cg2d: Sum(rhs),rhsMax =   1.50117748787260E-09  1.37456146350025E-02
 cg2d: Sum(rhs),rhsMax =   1.50126006071005E-09  1.37452739465548E-02
 cg2d: Sum(rhs),rhsMax =   1.50132946352688E-09  1.37449332491467E-02
 cg2d: Sum(rhs),rhsMax =   1.50141180044194E-09  1.37445927409574E-02
 cg2d: Sum(rhs),rhsMax =   1.50148869726419E-09  1.37442526136422E-02
 cg2d: Sum(rhs),rhsMax =   1.50155635147975E-09  1.37439130571264E-02
 cg2d: Sum(rhs),rhsMax =   1.50162600409676E-09  1.37435742449694E-02
 cg2d: Sum(rhs),rhsMax =   1.50170775814473E-09  1.37432363512079E-02
 cg2d: Sum(rhs),rhsMax =   1.50178233737641E-09  1.37428995344408E-02
 cg2d: Sum(rhs),rhsMax =   1.50186250935658E-09  1.37425639481929E-02
 cg2d: Sum(rhs),rhsMax =   1.50192219772194E-09  1.37422297336698E-02
 cg2d: Sum(rhs),rhsMax =   1.50201751036860E-09  1.37418970244084E-02
 cg2d: Sum(rhs),rhsMax =   1.50208791238615E-09  1.37415659437315E-02
 cg2d: Sum(rhs),rhsMax =   1.50217334404790E-09  1.37412366019629E-02
 cg2d: Sum(rhs),rhsMax =   1.50224689632328E-09  1.37409091010930E-02
 Computing Diagnostic #    26 "THETA   " (list#  1) Parms "SMR     MR      ", Count=     144
 Computing Diagnostic #    27 "SALT    " (list#  1) Parms "SMR     MR      ", Count=     144
 Computing Diagnostic #    30 "UVEL    " (list#  1) Parms "UUR     MR      ", Count=     144
             Vector  Mate for "UVEL    " :  Diagnostic #     31 "VVEL    " exists
 Computing Diagnostic #    32 "WVEL    " (list#  1) Parms "WM      LR      ", Count=     144
 Computing Diagnostic #    31 "VVEL    " (list#  1) Parms "VVR     MR      ", Count=     144
             Vector  Mate for "VVEL    " :  Diagnostic #     30 "UVEL    " exists
 Computing Diagnostic #   197 "BRGfwFlx" (list#  2) Parms "SM      MR      ", Count=     144
 Computing Diagnostic #   198 "BRGhtFlx" (list#  2) Parms "SM      MR      ", Count=     144
 Computing Diagnostic #   199 "BRGmltRt" (list#  2) Parms "SM      MR      ", Count=     144
 Computing Diagnostic #   201 "BRG_TauX" (list#  2) Parms "UU      MR      ", Count=    1728
 Computing Diagnostic #   202 "BRG_TauY" (list#  2) Parms "VV      MR      ", Count=    1728
 Computing Diagnostic #   203 "BRGhFacC" (list#  2) Parms "SM      MR      ", Count=    1728
 cg2d: Sum(rhs),rhsMax =   1.50232835893771E-09  1.37405835324791E-02
 cg2d: Sum(rhs),rhsMax =   1.50241612206781E-09  1.37402599750974E-02
 cg2d: Sum(rhs),rhsMax =   1.50250555053244E-09  1.37399384986908E-02
 cg2d: Sum(rhs),rhsMax =   1.50258100406475E-09  1.37396191615867E-02
 cg2d: Sum(rhs),rhsMax =   1.50265344611711E-09  1.37393020123683E-02
 cg2d: Sum(rhs),rhsMax =   1.50272347343439E-09  1.37389870876011E-02
 cg2d: Sum(rhs),rhsMax =   1.50280622668308E-09  1.37386744128863E-02
 cg2d: Sum(rhs),rhsMax =   1.50288756439743E-09  1.37383640082796E-02
 cg2d: Sum(rhs),rhsMax =   1.50296865231159E-09  1.37380558790018E-02
 cg2d: Sum(rhs),rhsMax =   1.50304033108561E-09  1.37377500219892E-02
 cg2d: Sum(rhs),rhsMax =   1.50312133573305E-09  1.37374464270810E-02
 cg2d: Sum(rhs),rhsMax =   1.50320425551520E-09  1.37371450724904E-02
 cg2d: Sum(rhs),rhsMax =   1.50328299808322E-09  1.37368459301703E-02
 cg2d: Sum(rhs),rhsMax =   1.50335992266104E-09  1.37365489613371E-02
 cg2d: Sum(rhs),rhsMax =   1.50343551497123E-09  1.37362541212560E-02
 cg2d: Sum(rhs),rhsMax =   1.50351654737424E-09  1.37359613582556E-02
 cg2d: Sum(rhs),rhsMax =   1.50359441564163E-09  1.37356706123425E-02
 cg2d: Sum(rhs),rhsMax =   1.50367278350938E-09  1.37353818196336E-02
 cg2d: Sum(rhs),rhsMax =   1.50376268381880E-09  1.37350949054101E-02
 cg2d: Sum(rhs),rhsMax =   1.50383148989075E-09  1.37348097951887E-02
 cg2d: Sum(rhs),rhsMax =   1.50391227249358E-09  1.37345264044285E-02
 cg2d: Sum(rhs),rhsMax =   1.50398102305438E-09  1.37342446476116E-02
 cg2d: Sum(rhs),rhsMax =   1.50405601861969E-09  1.37339644318416E-02
 cg2d: Sum(rhs),rhsMax =   1.50412354793517E-09  1.37336856637310E-02
 cg2d: Sum(rhs),rhsMax =   1.50419637856558E-09  1.37334082442185E-02
 cg2d: Sum(rhs),rhsMax =   1.50426789080615E-09  1.37331320709782E-02
 cg2d: Sum(rhs),rhsMax =   1.50434874279792E-09  1.37328570418688E-02
 cg2d: Sum(rhs),rhsMax =   1.50442727719913E-09  1.37325830490739E-02
 cg2d: Sum(rhs),rhsMax =   1.50449143421216E-09  1.37323099842952E-02
 cg2d: Sum(rhs),rhsMax =   1.50456079539563E-09  1.37320377392958E-02
 cg2d: Sum(rhs),rhsMax =   1.50465090387186E-09  1.37317662027166E-02
 cg2d: Sum(rhs),rhsMax =   1.50471968218824E-09  1.37314952631197E-02
 cg2d: Sum(rhs),rhsMax =   1.50479650962154E-09  1.37312248077993E-02
 cg2d: Sum(rhs),rhsMax =   1.50487056149728E-09  1.37309547248378E-02
 cg2d: Sum(rhs),rhsMax =   1.50496520801013E-09  1.37306849016139E-02
 cg2d: Sum(rhs),rhsMax =   1.50504189666556E-09  1.37304152268988E-02
 cg2d: Sum(rhs),rhsMax =   1.50511654528618E-09  1.37301455860038E-02
 cg2d: Sum(rhs),rhsMax =   1.50518925101650E-09  1.37298758704118E-02
 cg2d: Sum(rhs),rhsMax =   1.50524338826674E-09  1.37296059675278E-02
 cg2d: Sum(rhs),rhsMax =   1.50531857812108E-09  1.37293357687197E-02
 cg2d: Sum(rhs),rhsMax =   1.50537952936514E-09  1.37290651653867E-02
 cg2d: Sum(rhs),rhsMax =   1.50545706456562E-09  1.37287940496708E-02
 cg2d: Sum(rhs),rhsMax =   1.50552940947346E-09  1.37285223147868E-02
 cg2d: Sum(rhs),rhsMax =   1.50560615364004E-09  1.37282498583612E-02
 cg2d: Sum(rhs),rhsMax =   1.50568085777181E-09  1.37279765758148E-02
 cg2d: Sum(rhs),rhsMax =   1.50574150370453E-09  1.37277023657927E-02
 cg2d: Sum(rhs),rhsMax =   1.50583717717367E-09  1.37274271284825E-02
 cg2d: Sum(rhs),rhsMax =   1.50591406011813E-09  1.37271507659316E-02
 cg2d: Sum(rhs),rhsMax =   1.50597878612047E-09  1.37268731815176E-02
 cg2d: Sum(rhs),rhsMax =   1.50607387672252E-09  1.37265942806894E-02
 cg2d: Sum(rhs),rhsMax =   1.50615890592842E-09  1.37263139722298E-02
 cg2d: Sum(rhs),rhsMax =   1.50624016037604E-09  1.37260321645985E-02
 cg2d: Sum(rhs),rhsMax =   1.50631609963092E-09  1.37257487698058E-02
 cg2d: Sum(rhs),rhsMax =   1.50639475893222E-09  1.37254637028508E-02
 cg2d: Sum(rhs),rhsMax =   1.50646693730661E-09  1.37251768792300E-02
 cg2d: Sum(rhs),rhsMax =   1.50655742048311E-09  1.37248882145242E-02
 cg2d: Sum(rhs),rhsMax =   1.50663462261669E-09  1.37245976328121E-02
 cg2d: Sum(rhs),rhsMax =   1.50670481646742E-09  1.37243050564140E-02
 cg2d: Sum(rhs),rhsMax =   1.50676732202371E-09  1.37240104122269E-02
 cg2d: Sum(rhs),rhsMax =   1.50684512090216E-09  1.37237136259190E-02
 cg2d: Sum(rhs),rhsMax =   1.50692042177880E-09  1.37234146307528E-02
 cg2d: Sum(rhs),rhsMax =   1.50698770129409E-09  1.37231133591737E-02
 cg2d: Sum(rhs),rhsMax =   1.50705641022153E-09  1.37228097492839E-02
 cg2d: Sum(rhs),rhsMax =   1.50713400093316E-09  1.37225037428696E-02
 cg2d: Sum(rhs),rhsMax =   1.50721976566182E-09  1.37221928776043E-02
 cg2d: Sum(rhs),rhsMax =   1.50728668435463E-09  1.37218751366349E-02
 cg2d: Sum(rhs),rhsMax =   1.50736703674603E-09  1.37215549579910E-02
 cg2d: Sum(rhs),rhsMax =   1.50744711158168E-09  1.37212323591999E-02
 cg2d: Sum(rhs),rhsMax =   1.50752323124781E-09  1.37209073345551E-02
 cg2d: Sum(rhs),rhsMax =   1.50761969575086E-09  1.37205799146580E-02
 cg2d: Sum(rhs),rhsMax =   1.50769929874173E-09  1.37202501211383E-02
 cg2d: Sum(rhs),rhsMax =   1.50778514673711E-09  1.37199179764757E-02
 cg2d: Sum(rhs),rhsMax =   1.50787210495551E-09  1.37195835040404E-02
 cg2d: Sum(rhs),rhsMax =   1.50794400577414E-09  1.37192467306978E-02
 cg2d: Sum(rhs),rhsMax =   1.50802959009155E-09  1.37189076860387E-02
 cg2d: Sum(rhs),rhsMax =   1.50810647303601E-09  1.37185663997300E-02
 cg2d: Sum(rhs),rhsMax =   1.50819166877536E-09  1.37182229044032E-02
 cg2d: Sum(rhs),rhsMax =   1.50827515754681E-09  1.37178772323706E-02
 cg2d: Sum(rhs),rhsMax =   1.50836255985443E-09  1.37175294213067E-02
 cg2d: Sum(rhs),rhsMax =   1.50844735313793E-09  1.37171795086649E-02
 cg2d: Sum(rhs),rhsMax =   1.50852567937232E-09  1.37168275352655E-02
 cg2d: Sum(rhs),rhsMax =   1.50861434455862E-09  1.37164735427721E-02
 cg2d: Sum(rhs),rhsMax =   1.50869358672701E-09  1.37161175755228E-02
 cg2d: Sum(rhs),rhsMax =   1.50877492444135E-09  1.37157596818281E-02
 cg2d: Sum(rhs),rhsMax =   1.50886231287117E-09  1.37153999108688E-02
 cg2d: Sum(rhs),rhsMax =   1.50893535166841E-09  1.37150383147693E-02
 cg2d: Sum(rhs),rhsMax =   1.50902761120175E-09  1.37146749484273E-02
 cg2d: Sum(rhs),rhsMax =   1.50910710317032E-09  1.37143098687957E-02
 cg2d: Sum(rhs),rhsMax =   1.50920068109350E-09  1.37139431388623E-02
 cg2d: Sum(rhs),rhsMax =   1.50929471698369E-09  1.37135748206489E-02
 cg2d: Sum(rhs),rhsMax =   1.50936192711004E-09  1.37132049811906E-02
 cg2d: Sum(rhs),rhsMax =   1.50943753329802E-09  1.37128336919062E-02
 cg2d: Sum(rhs),rhsMax =   1.50952346456013E-09  1.37124610233363E-02
 cg2d: Sum(rhs),rhsMax =   1.50960625944219E-09  1.37120870519725E-02
 cg2d: Sum(rhs),rhsMax =   1.50969979573201E-09  1.37117118605288E-02
 cg2d: Sum(rhs),rhsMax =   1.50976715851403E-09  1.37113355290837E-02
 cg2d: Sum(rhs),rhsMax =   1.50984723334968E-09  1.37109581455065E-02
 cg2d: Sum(rhs),rhsMax =   1.50993145764389E-09  1.37105798001188E-02
 cg2d: Sum(rhs),rhsMax =   1.51002689519064E-09  1.37102005843213E-02
 cg2d: Sum(rhs),rhsMax =   1.51012737037437E-09  1.37098205946375E-02
 cg2d: Sum(rhs),rhsMax =   1.51021385674799E-09  1.37094399308088E-02
 cg2d: Sum(rhs),rhsMax =   1.51029257156043E-09  1.37090586965308E-02
 cg2d: Sum(rhs),rhsMax =   1.51038251350322E-09  1.37086769964314E-02
 cg2d: Sum(rhs),rhsMax =   1.51049209251575E-09  1.37082949377658E-02
 cg2d: Sum(rhs),rhsMax =   1.51057785724440E-09  1.37079126337843E-02
 cg2d: Sum(rhs),rhsMax =   1.51066475995165E-09  1.37075301968192E-02
 cg2d: Sum(rhs),rhsMax =   1.51076515186865E-09  1.37071477422485E-02
 cg2d: Sum(rhs),rhsMax =   1.51084249278011E-09  1.37067653879468E-02
 cg2d: Sum(rhs),rhsMax =   1.51092212352655E-09  1.37063832549821E-02
 cg2d: Sum(rhs),rhsMax =   1.51100741641041E-09  1.37060014638569E-02
 cg2d: Sum(rhs),rhsMax =   1.51108812962431E-09  1.37056201376874E-02
 cg2d: Sum(rhs),rhsMax =   1.51116799629314E-09  1.37052393992191E-02
 cg2d: Sum(rhs),rhsMax =   1.51125663372387E-09  1.37048593741835E-02
 cg2d: Sum(rhs),rhsMax =   1.51135262638213E-09  1.37044801867642E-02
 cg2d: Sum(rhs),rhsMax =   1.51146331561769E-09  1.37041019619936E-02
 cg2d: Sum(rhs),rhsMax =   1.51153442540242E-09  1.37037248246995E-02
 cg2d: Sum(rhs),rhsMax =   1.51163030703838E-09  1.37033488988468E-02
 cg2d: Sum(rhs),rhsMax =   1.51172054041471E-09  1.37029743082047E-02
 cg2d: Sum(rhs),rhsMax =   1.51179843643767E-09  1.37026011712598E-02
 cg2d: Sum(rhs),rhsMax =   1.51188481178899E-09  1.37022296112226E-02
 cg2d: Sum(rhs),rhsMax =   1.51197436515371E-09  1.37018597452003E-02
 cg2d: Sum(rhs),rhsMax =   1.51205875598137E-09  1.37014916895420E-02
 cg2d: Sum(rhs),rhsMax =   1.51214821220158E-09  1.37011255543744E-02
 cg2d: Sum(rhs),rhsMax =   1.51221951627534E-09  1.37007614505400E-02
 cg2d: Sum(rhs),rhsMax =   1.51230430955884E-09  1.37003994810710E-02
 cg2d: Sum(rhs),rhsMax =   1.51239332168984E-09  1.37000397530887E-02
 cg2d: Sum(rhs),rhsMax =   1.51248548407867E-09  1.36996823587172E-02
 cg2d: Sum(rhs),rhsMax =   1.51257716074493E-09  1.36993273923488E-02
 cg2d: Sum(rhs),rhsMax =   1.51265494574560E-09  1.36989749419851E-02
 cg2d: Sum(rhs),rhsMax =   1.51275100779280E-09  1.36986250902976E-02
 cg2d: Sum(rhs),rhsMax =   1.51282827931531E-09  1.36982779130342E-02
 cg2d: Sum(rhs),rhsMax =   1.51290710515006E-09  1.36979334804602E-02
 cg2d: Sum(rhs),rhsMax =   1.51299400785732E-09  1.36975918598406E-02
 cg2d: Sum(rhs),rhsMax =   1.51307147366886E-09  1.36972531033096E-02
 cg2d: Sum(rhs),rhsMax =   1.51316308094618E-09  1.36969172677977E-02
 cg2d: Sum(rhs),rhsMax =   1.51324715258472E-09  1.36965844100710E-02
 cg2d: Sum(rhs),rhsMax =   1.51332725517594E-09  1.36962545580421E-02
 cg2d: Sum(rhs),rhsMax =   1.51340268095268E-09  1.36959277400006E-02
 cg2d: Sum(rhs),rhsMax =   1.51348086840919E-09  1.36956037681799E-02
 cg2d: Sum(rhs),rhsMax =   1.51357119893003E-09  1.36952828790586E-02
 cg2d: Sum(rhs),rhsMax =   1.51365776857038E-09  1.36949650844789E-02
 cg2d: Sum(rhs),rhsMax =   1.51372361867352E-09  1.36946503847038E-02
 cg2d: Sum(rhs),rhsMax =   1.51381068791423E-09  1.36943387745171E-02
 cg2d: Sum(rhs),rhsMax =   1.51387520574975E-09  1.36940302426644E-02
 Computing Diagnostic #    26 "THETA   " (list#  1) Parms "SMR     MR      ", Count=     144
 Computing Diagnostic #    27 "SALT    " (list#  1) Parms "SMR     MR      ", Count=     144
 Computing Diagnostic #    30 "UVEL    " (list#  1) Parms "UUR     MR      ", Count=     144
             Vector  Mate for "UVEL    " :  Diagnostic #     31 "VVEL    " exists
 Computing Diagnostic #    32 "WVEL    " (list#  1) Parms "WM      LR      ", Count=     144
 Computing Diagnostic #    31 "VVEL    " (list#  1) Parms "VVR     MR      ", Count=     144
             Vector  Mate for "VVEL    " :  Diagnostic #     30 "UVEL    " exists
 Computing Diagnostic #   197 "BRGfwFlx" (list#  2) Parms "SM      MR      ", Count=     144
 Computing Diagnostic #   198 "BRGhtFlx" (list#  2) Parms "SM      MR      ", Count=     144
 Computing Diagnostic #   199 "BRGmltRt" (list#  2) Parms "SM      MR      ", Count=     144
 Computing Diagnostic #   201 "BRG_TauX" (list#  2) Parms "UU      MR      ", Count=    1728
 Computing Diagnostic #   202 "BRG_TauY" (list#  2) Parms "VV      MR      ", Count=    1728
 Computing Diagnostic #   203 "BRGhFacC" (list#  2) Parms "SM      MR      ", Count=    1728
 cg2d: Sum(rhs),rhsMax =   1.51396395420278E-09  1.36937247696302E-02
 cg2d: Sum(rhs),rhsMax =   1.51405461779053E-09  1.36934223262423E-02
 cg2d: Sum(rhs),rhsMax =   1.51412196669476E-09  1.36931228793025E-02
 cg2d: Sum(rhs),rhsMax =   1.51419829452770E-09  1.36928263838991E-02
 cg2d: Sum(rhs),rhsMax =   1.51427942407523E-09  1.36925327931148E-02
 cg2d: Sum(rhs),rhsMax =   1.51434920159232E-09  1.36922420489988E-02
 cg2d: Sum(rhs),rhsMax =   1.51443767248960E-09  1.36919540869582E-02
 cg2d: Sum(rhs),rhsMax =   1.51450950391929E-09  1.36916688378855E-02
 cg2d: Sum(rhs),rhsMax =   1.51458677544181E-09  1.36913862224521E-02
 cg2d: Sum(rhs),rhsMax =   1.51465325004541E-09  1.36911061603592E-02
 cg2d: Sum(rhs),rhsMax =   1.51475300358417E-09  1.36908285594484E-02
 cg2d: Sum(rhs),rhsMax =   1.51484473576158E-09  1.36905533259312E-02
 cg2d: Sum(rhs),rhsMax =   1.51492413058563E-09  1.36902803605739E-02
 cg2d: Sum(rhs),rhsMax =   1.51499990330706E-09  1.36900095551311E-02
 cg2d: Sum(rhs),rhsMax =   1.51508425250135E-09  1.36897407997461E-02
 cg2d: Sum(rhs),rhsMax =   1.51517111357524E-09  1.36894739825260E-02
 cg2d: Sum(rhs),rhsMax =   1.51523930902453E-09  1.36892089821109E-02
 cg2d: Sum(rhs),rhsMax =   1.51531402703409E-09  1.36889456749690E-02
 cg2d: Sum(rhs),rhsMax =   1.51538223636116E-09  1.36886839380432E-02
 cg2d: Sum(rhs),rhsMax =   1.51546646065537E-09  1.36884236403600E-02
 cg2d: Sum(rhs),rhsMax =   1.51554295502176E-09  1.36881646518524E-02
 cg2d: Sum(rhs),rhsMax =   1.51561284356116E-09  1.36879068398886E-02
 cg2d: Sum(rhs),rhsMax =   1.51568690931470E-09  1.36876500687367E-02
 cg2d: Sum(rhs),rhsMax =   1.51576427798172E-09  1.36873942024019E-02
 cg2d: Sum(rhs),rhsMax =   1.51584707286379E-09  1.36871391046494E-02
 cg2d: Sum(rhs),rhsMax =   1.51591267316675E-09  1.36868846370141E-02
 cg2d: Sum(rhs),rhsMax =   1.51599402475888E-09  1.36866306627509E-02
 cg2d: Sum(rhs),rhsMax =   1.51606011078442E-09  1.36863770447972E-02
 cg2d: Sum(rhs),rhsMax =   1.51612772336662E-09  1.36861236471325E-02
 cg2d: Sum(rhs),rhsMax =   1.51619479471510E-09  1.36858703346760E-02
 cg2d: Sum(rhs),rhsMax =   1.51627198297088E-09  1.36856169740618E-02
 cg2d: Sum(rhs),rhsMax =   1.51635774769954E-09  1.36853634325903E-02
 cg2d: Sum(rhs),rhsMax =   1.51642579049316E-09  1.36851095833175E-02
 cg2d: Sum(rhs),rhsMax =   1.51650351998267E-09  1.36848552993028E-02
 cg2d: Sum(rhs),rhsMax =   1.51657437996722E-09  1.36846004551886E-02
 cg2d: Sum(rhs),rhsMax =   1.51665011105528E-09  1.36843449311575E-02
 cg2d: Sum(rhs),rhsMax =   1.51671723791491E-09  1.36840886089071E-02
 cg2d: Sum(rhs),rhsMax =   1.51680648596830E-09  1.36838313766660E-02
 cg2d: Sum(rhs),rhsMax =   1.51686538329976E-09  1.36835731251840E-02
 cg2d: Sum(rhs),rhsMax =   1.51695910000083E-09  1.36833137497454E-02
 cg2d: Sum(rhs),rhsMax =   1.51704944439945E-09  1.36830531475754E-02
 cg2d: Sum(rhs),rhsMax =   1.51712245544111E-09  1.36827912244847E-02
 cg2d: Sum(rhs),rhsMax =   1.51720269681022E-09  1.36825278881221E-02
 cg2d: Sum(rhs),rhsMax =   1.51728100916682E-09  1.36822630543168E-02
 cg2d: Sum(rhs),rhsMax =   1.51735700393285E-09  1.36819966421103E-02
 cg2d: Sum(rhs),rhsMax =   1.51741483267465E-09  1.36817285735525E-02
 cg2d: Sum(rhs),rhsMax =   1.51748649757089E-09  1.36814587806905E-02
 cg2d: Sum(rhs),rhsMax =   1.51756762711841E-09  1.36811871971584E-02
 cg2d: Sum(rhs),rhsMax =   1.51764067979343E-09  1.36809137622018E-02
 cg2d: Sum(rhs),rhsMax =   1.51771427370218E-09  1.36806384243919E-02
 cg2d: Sum(rhs),rhsMax =   1.51778566104266E-09  1.36803611344043E-02
 cg2d: Sum(rhs),rhsMax =   1.51786785917984E-09  1.36800818479765E-02
 cg2d: Sum(rhs),rhsMax =   1.51795497005391E-09  1.36798005294084E-02
 cg2d: Sum(rhs),rhsMax =   1.51803652981286E-09  1.36795171457821E-02
 cg2d: Sum(rhs),rhsMax =   1.51810054804802E-09  1.36792316707366E-02
 cg2d: Sum(rhs),rhsMax =   1.51819254390340E-09  1.36789440823968E-02
 cg2d: Sum(rhs),rhsMax =   1.51826794192456E-09  1.36786543654604E-02
 cg2d: Sum(rhs),rhsMax =   1.51836127004756E-09  1.36783625081145E-02
 cg2d: Sum(rhs),rhsMax =   1.51843983220434E-09  1.36780685046774E-02
 cg2d: Sum(rhs),rhsMax =   1.51851774210510E-09  1.36777723520813E-02
 cg2d: Sum(rhs),rhsMax =   1.51859061436888E-09  1.36774740557990E-02
 cg2d: Sum(rhs),rhsMax =   1.51867250719473E-09  1.36771736213381E-02
 cg2d: Sum(rhs),rhsMax =   1.51873895404275E-09  1.36768710626575E-02
 cg2d: Sum(rhs),rhsMax =   1.51882351140387E-09  1.36765663947243E-02
 cg2d: Sum(rhs),rhsMax =   1.51890577892999E-09  1.36762596366089E-02
 cg2d: Sum(rhs),rhsMax =   1.51897533440248E-09  1.36759508134907E-02
 cg2d: Sum(rhs),rhsMax =   1.51905164835764E-09  1.36756399488083E-02
 cg2d: Sum(rhs),rhsMax =   1.51913430446182E-09  1.36753270768332E-02
 cg2d: Sum(rhs),rhsMax =   1.51921361601914E-09  1.36750122278186E-02
 cg2d: Sum(rhs),rhsMax =   1.51930833192093E-09  1.36746954379267E-02
 cg2d: Sum(rhs),rhsMax =   1.51938951697961E-09  1.36743767474750E-02
 cg2d: Sum(rhs),rhsMax =   1.51946753790266E-09  1.36740561943934E-02
 cg2d: Sum(rhs),rhsMax =   1.51953595539656E-09  1.36737338219464E-02
 cg2d: Sum(rhs),rhsMax =   1.51962854799681E-09  1.36734096747284E-02
 cg2d: Sum(rhs),rhsMax =   1.51971323025801E-09  1.36730837988665E-02
 cg2d: Sum(rhs),rhsMax =   1.51979630269583E-09  1.36727562393013E-02
 cg2d: Sum(rhs),rhsMax =   1.51987741836557E-09  1.36724270457456E-02
 cg2d: Sum(rhs),rhsMax =   1.51996056019232E-09  1.36720962671265E-02
 cg2d: Sum(rhs),rhsMax =   1.52004482611989E-09  1.36717639519812E-02
 cg2d: Sum(rhs),rhsMax =   1.52011730980561E-09  1.36714301516764E-02
 cg2d: Sum(rhs),rhsMax =   1.52020684929255E-09  1.36710949144068E-02
 cg2d: Sum(rhs),rhsMax =   1.52028588329411E-09  1.36707582908754E-02
 cg2d: Sum(rhs),rhsMax =   1.52035381506543E-09  1.36704203299130E-02
 cg2d: Sum(rhs),rhsMax =   1.52044918322325E-09  1.36700810815826E-02
 cg2d: Sum(rhs),rhsMax =   1.52053149238274E-09  1.36697405933548E-02
 cg2d: Sum(rhs),rhsMax =   1.52062015756904E-09  1.36693989132935E-02
 cg2d: Sum(rhs),rhsMax =   1.52070037118257E-09  1.36690560876213E-02
 cg2d: Sum(rhs),rhsMax =   1.52078000192901E-09  1.36687121625619E-02
 cg2d: Sum(rhs),rhsMax =   1.52086267191098E-09  1.36683671749477E-02
 cg2d: Sum(rhs),rhsMax =   1.52095946948094E-09  1.36680211650137E-02
 cg2d: Sum(rhs),rhsMax =   1.52102365424955E-09  1.36676741848850E-02
 cg2d: Sum(rhs),rhsMax =   1.52110243845094E-09  1.36673262783813E-02
 cg2d: Sum(rhs),rhsMax =   1.52120155361146E-09  1.36669774818486E-02
 cg2d: Sum(rhs),rhsMax =   1.52128837305199E-09  1.36666278307583E-02
 cg2d: Sum(rhs),rhsMax =   1.52138332487617E-09  1.36662773550889E-02
 cg2d: Sum(rhs),rhsMax =   1.52146066578762E-09  1.36659260833906E-02
 cg2d: Sum(rhs),rhsMax =   1.52155013588562E-09  1.36655740430480E-02
 cg2d: Sum(rhs),rhsMax =   1.52163208422262E-09  1.36652212630879E-02
 cg2d: Sum(rhs),rhsMax =   1.52171715506189E-09  1.36648677686661E-02
 cg2d: Sum(rhs),rhsMax =   1.52179777113126E-09  1.36645135843456E-02
 cg2d: Sum(rhs),rhsMax =   1.52189350011156E-09  1.36641587283147E-02
 cg2d: Sum(rhs),rhsMax =   1.52196695524243E-09  1.36638032224198E-02
 cg2d: Sum(rhs),rhsMax =   1.52205846537523E-09  1.36634470817522E-02
 cg2d: Sum(rhs),rhsMax =   1.52213960880054E-09  1.36630903238185E-02
 cg2d: Sum(rhs),rhsMax =   1.52223497695836E-09  1.36627329576757E-02
 cg2d: Sum(rhs),rhsMax =   1.52231278971460E-09  1.36623749965056E-02
 cg2d: Sum(rhs),rhsMax =   1.52239286455025E-09  1.36620164457978E-02
 cg2d: Sum(rhs),rhsMax =   1.52248184892567E-09  1.36616573107524E-02
 cg2d: Sum(rhs),rhsMax =   1.52255935637058E-09  1.36612975975798E-02
 cg2d: Sum(rhs),rhsMax =   1.52264985342487E-09  1.36609373048192E-02
 cg2d: Sum(rhs),rhsMax =   1.52274713671741E-09  1.36605764336696E-02
 cg2d: Sum(rhs),rhsMax =   1.52284437837658E-09  1.36602149818438E-02
 cg2d: Sum(rhs),rhsMax =   1.52291694532902E-09  1.36598529444745E-02
 cg2d: Sum(rhs),rhsMax =   1.52299990674454E-09  1.36594903181028E-02
 cg2d: Sum(rhs),rhsMax =   1.52309631573644E-09  1.36591270958195E-02
 cg2d: Sum(rhs),rhsMax =   1.52318131718676E-09  1.36587632704027E-02
 cg2d: Sum(rhs),rhsMax =   1.52327365998683E-09  1.36583988320145E-02
 cg2d: Sum(rhs),rhsMax =   1.52336043779400E-09  1.36580337722803E-02
 cg2d: Sum(rhs),rhsMax =   1.52344467596599E-09  1.36576680793913E-02
 cg2d: Sum(rhs),rhsMax =   1.52353142601758E-09  1.36573017432904E-02
 cg2d: Sum(rhs),rhsMax =   1.52360443705923E-09  1.36569347491492E-02
 cg2d: Sum(rhs),rhsMax =   1.52368778705281E-09  1.36565670855319E-02
 cg2d: Sum(rhs),rhsMax =   1.52378408502241E-09  1.36561987397473E-02
 cg2d: Sum(rhs),rhsMax =   1.52387086282957E-09  1.36558296970516E-02
 cg2d: Sum(rhs),rhsMax =   1.52394767638508E-09  1.36554599435573E-02
 cg2d: Sum(rhs),rhsMax =   1.52403631381581E-09  1.36550894655654E-02
 cg2d: Sum(rhs),rhsMax =   1.52411537557295E-09  1.36547182492360E-02
 cg2d: Sum(rhs),rhsMax =   1.52420324972535E-09  1.36543462791843E-02
 cg2d: Sum(rhs),rhsMax =   1.52428743238620E-09  1.36539735450934E-02
 cg2d: Sum(rhs),rhsMax =   1.52438150990974E-09  1.36536000318485E-02
 cg2d: Sum(rhs),rhsMax =   1.52446232026815E-09  1.36532257281693E-02
 cg2d: Sum(rhs),rhsMax =   1.52454258939283E-09  1.36528506245490E-02
 cg2d: Sum(rhs),rhsMax =   1.52461875069232E-09  1.36524747066953E-02
 cg2d: Sum(rhs),rhsMax =   1.52469717407122E-09  1.36520979687889E-02
 cg2d: Sum(rhs),rhsMax =   1.52479195936195E-09  1.36517204011709E-02
 cg2d: Sum(rhs),rhsMax =   1.52488015270347E-09  1.36513419962841E-02
 cg2d: Sum(rhs),rhsMax =   1.52496933136792E-09  1.36509627482639E-02
 cg2d: Sum(rhs),rhsMax =   1.52506615669346E-09  1.36505826541643E-02
 cg2d: Sum(rhs),rhsMax =   1.52514148532568E-09  1.36502017042714E-02
 cg2d: Sum(rhs),rhsMax =   1.52523348118105E-09  1.36498198963202E-02
 cg2d: Sum(rhs),rhsMax =   1.52532463049138E-09  1.36494372376754E-02
 cg2d: Sum(rhs),rhsMax =   1.52541207443235E-09  1.36490537344815E-02
 cg2d: Sum(rhs),rhsMax =   1.52550587440015E-09  1.36486693848108E-02
 cg2d: Sum(rhs),rhsMax =   1.52557902421968E-09  1.36482841927336E-02
 Computing Diagnostic #    26 "THETA   " (list#  1) Parms "SMR     MR      ", Count=     144
 Computing Diagnostic #    27 "SALT    " (list#  1) Parms "SMR     MR      ", Count=     144
 Computing Diagnostic #    30 "UVEL    " (list#  1) Parms "UUR     MR      ", Count=     144
             Vector  Mate for "UVEL    " :  Diagnostic #     31 "VVEL    " exists
 Computing Diagnostic #    32 "WVEL    " (list#  1) Parms "WM      LR      ", Count=     144
 Computing Diagnostic #    31 "VVEL    " (list#  1) Parms "VVR     MR      ", Count=     144
             Vector  Mate for "VVEL    " :  Diagnostic #     30 "UVEL    " exists
 Computing Diagnostic #   197 "BRGfwFlx" (list#  2) Parms "SM      MR      ", Count=     144
 Computing Diagnostic #   198 "BRGhtFlx" (list#  2) Parms "SM      MR      ", Count=     144
 Computing Diagnostic #   199 "BRGmltRt" (list#  2) Parms "SM      MR      ", Count=     144
 Computing Diagnostic #   201 "BRG_TauX" (list#  2) Parms "UU      MR      ", Count=    1728
 Computing Diagnostic #   202 "BRG_TauY" (list#  2) Parms "VV      MR      ", Count=    1728
 Computing Diagnostic #   203 "BRGhFacC" (list#  2) Parms "SM      MR      ", Count=    1728
 cg2d: Sum(rhs),rhsMax =   1.52568234434991E-09  1.36478981659915E-02
 cg2d: Sum(rhs),rhsMax =   1.52577089851391E-09  1.36475113126741E-02
 cg2d: Sum(rhs),rhsMax =   1.52585453994103E-09  1.36471236426109E-02
 cg2d: Sum(rhs),rhsMax =   1.52594047120314E-09  1.36467351716046E-02
 cg2d: Sum(rhs),rhsMax =   1.52602937231183E-09  1.36463459117268E-02
 cg2d: Sum(rhs),rhsMax =   1.52611483172915E-09  1.36459558799572E-02
 cg2d: Sum(rhs),rhsMax =   1.52621180971035E-09  1.36455650949958E-02
 cg2d: Sum(rhs),rhsMax =   1.52630144634180E-09  1.36451735762229E-02
 cg2d: Sum(rhs),rhsMax =   1.52639140216237E-09  1.36447813460378E-02
 cg2d: Sum(rhs),rhsMax =   1.52648159390534E-09  1.36443884266798E-02
 cg2d: Sum(rhs),rhsMax =   1.52656540186591E-09  1.36439948439336E-02
 cg2d: Sum(rhs),rhsMax =   1.52666153330205E-09  1.36436006260165E-02
 cg2d: Sum(rhs),rhsMax =   1.52674879683179E-09  1.36432058000929E-02
 cg2d: Sum(rhs),rhsMax =   1.52683779508500E-09  1.36428103961678E-02
 cg2d: Sum(rhs),rhsMax =   1.52693395427672E-09  1.36424144475163E-02
 cg2d: Sum(rhs),rhsMax =   1.52701891409368E-09  1.36420179849707E-02
 cg2d: Sum(rhs),rhsMax =   1.52711450429610E-09  1.36416210431859E-02
 cg2d: Sum(rhs),rhsMax =   1.52721094104358E-09  1.36412236585592E-02
 cg2d: Sum(rhs),rhsMax =   1.52731384484017E-09  1.36408258686831E-02
 cg2d: Sum(rhs),rhsMax =   1.52739826342341E-09  1.36404277086053E-02
 cg2d: Sum(rhs),rhsMax =   1.52749461690416E-09  1.36400292184200E-02
 cg2d: Sum(rhs),rhsMax =   1.52759539739922E-09  1.36396304359962E-02
 cg2d: Sum(rhs),rhsMax =   1.52767418160060E-09  1.36392314026664E-02
 cg2d: Sum(rhs),rhsMax =   1.52775564421503E-09  1.36388321586102E-02
 cg2d: Sum(rhs),rhsMax =   1.52784290774477E-09  1.36384327460826E-02
 cg2d: Sum(rhs),rhsMax =   1.52794034369297E-09  1.36380332058848E-02
 cg2d: Sum(rhs),rhsMax =   1.52801588049201E-09  1.36376335782544E-02
 cg2d: Sum(rhs),rhsMax =   1.52811323317348E-09  1.36372339057566E-02
 cg2d: Sum(rhs),rhsMax =   1.52819985832497E-09  1.36368342310348E-02
 cg2d: Sum(rhs),rhsMax =   1.52829934818577E-09  1.36364345945797E-02
 cg2d: Sum(rhs),rhsMax =   1.52837971445496E-09  1.36360350385549E-02
 cg2d: Sum(rhs),rhsMax =   1.52848460277522E-09  1.36356356025739E-02
 cg2d: Sum(rhs),rhsMax =   1.52857761170910E-09  1.36352363291406E-02
 cg2d: Sum(rhs),rhsMax =   1.52866165559207E-09  1.36348372577294E-02
 cg2d: Sum(rhs),rhsMax =   1.52876451775530E-09  1.36344384273452E-02
 cg2d: Sum(rhs),rhsMax =   1.52884978288359E-09  1.36340398756774E-02
 cg2d: Sum(rhs),rhsMax =   1.52892334903676E-09  1.36336416428735E-02
 cg2d: Sum(rhs),rhsMax =   1.52900983541038E-09  1.36332437638121E-02
 cg2d: Sum(rhs),rhsMax =   1.52911594497596E-09  1.36328462744700E-02
 cg2d: Sum(rhs),rhsMax =   1.52919940599183E-09  1.36324492094468E-02
 cg2d: Sum(rhs),rhsMax =   1.52929521823886E-09  1.36320526038724E-02
 cg2d: Sum(rhs),rhsMax =   1.52939365338778E-09  1.36316564863040E-02
 cg2d: Sum(rhs),rhsMax =   1.52947499110212E-09  1.36312608912955E-02
 cg2d: Sum(rhs),rhsMax =   1.52956627919032E-09  1.36308658390411E-02
 cg2d: Sum(rhs),rhsMax =   1.52966576905111E-09  1.36304713671837E-02
 cg2d: Sum(rhs),rhsMax =   1.52976420420003E-09  1.36300775072610E-02
 cg2d: Sum(rhs),rhsMax =   1.52985824009022E-09  1.36296842773696E-02
 cg2d: Sum(rhs),rhsMax =   1.52994887592239E-09  1.36292917003326E-02
 cg2d: Sum(rhs),rhsMax =   1.53004045544414E-09  1.36288997972493E-02
 cg2d: Sum(rhs),rhsMax =   1.53013600401319E-09  1.36285085921698E-02
 cg2d: Sum(rhs),rhsMax =   1.53022666760094E-09  1.36281181038121E-02
 cg2d: Sum(rhs),rhsMax =   1.53031827487826E-09  1.36277283486809E-02
 cg2d: Sum(rhs),rhsMax =   1.53040059791554E-09  1.36273393418571E-02
 cg2d: Sum(rhs),rhsMax =   1.53048809736767E-09  1.36269510982871E-02
 cg2d: Sum(rhs),rhsMax =   1.53057003182688E-09  1.36265636312786E-02
 cg2d: Sum(rhs),rhsMax =   1.53065934926921E-09  1.36261769503868E-02
 cg2d: Sum(rhs),rhsMax =   1.53075678521741E-09  1.36257910686189E-02
 cg2d: Sum(rhs),rhsMax =   1.53082804765781E-09  1.36254059923732E-02
 cg2d: Sum(rhs),rhsMax =   1.53091936350158E-09  1.36250217308967E-02
 cg2d: Sum(rhs),rhsMax =   1.53101964439628E-09  1.36246382868966E-02
 cg2d: Sum(rhs),rhsMax =   1.53111059941757E-09  1.36242556829043E-02
 cg2d: Sum(rhs),rhsMax =   1.53120066626045E-09  1.36238739238230E-02
 cg2d: Sum(rhs),rhsMax =   1.53128862367957E-09  1.36234930100692E-02
 cg2d: Sum(rhs),rhsMax =   1.53136636704687E-09  1.36231129431506E-02
 cg2d: Sum(rhs),rhsMax =   1.53144706638297E-09  1.36227337226749E-02
 cg2d: Sum(rhs),rhsMax =   1.53153588422494E-09  1.36223553441569E-02
 cg2d: Sum(rhs),rhsMax =   1.53162958704822E-09  1.36219778085072E-02
 cg2d: Sum(rhs),rhsMax =   1.53170678918180E-09  1.36216011097261E-02
 cg2d: Sum(rhs),rhsMax =   1.53178621176142E-09  1.36212252409469E-02
 cg2d: Sum(rhs),rhsMax =   1.53186384410642E-09  1.36208501989760E-02
 cg2d: Sum(rhs),rhsMax =   1.53195894858627E-09  1.36204759758995E-02
 cg2d: Sum(rhs),rhsMax =   1.53205761965758E-09  1.36201025645104E-02
 cg2d: Sum(rhs),rhsMax =   1.53215448661648E-09  1.36197299548066E-02
 cg2d: Sum(rhs),rhsMax =   1.53223651822021E-09  1.36193581401957E-02
 cg2d: Sum(rhs),rhsMax =   1.53231308197554E-09  1.36189871088620E-02
 cg2d: Sum(rhs),rhsMax =   1.53239000655336E-09  1.36186168509705E-02
 cg2d: Sum(rhs),rhsMax =   1.53247319001348E-09  1.36182473551050E-02
 cg2d: Sum(rhs),rhsMax =   1.53254434143157E-09  1.36178786112489E-02
 cg2d: Sum(rhs),rhsMax =   1.53262628976858E-09  1.36175106063183E-02
 cg2d: Sum(rhs),rhsMax =   1.53270647562653E-09  1.36171433284494E-02
 cg2d: Sum(rhs),rhsMax =   1.53279944292706E-09  1.36167767647577E-02
 cg2d: Sum(rhs),rhsMax =   1.53289464455142E-09  1.36164109010067E-02
 cg2d: Sum(rhs),rhsMax =   1.53297645411055E-09  1.36160457245191E-02
 cg2d: Sum(rhs),rhsMax =   1.53305351746624E-09  1.36156812216733E-02
 cg2d: Sum(rhs),rhsMax =   1.53313374495756E-09  1.36153173767111E-02
 cg2d: Sum(rhs),rhsMax =   1.53321674800644E-09  1.36149541759167E-02
 cg2d: Sum(rhs),rhsMax =   1.53330463603663E-09  1.36145916051401E-02
 cg2d: Sum(rhs),rhsMax =   1.53339407837905E-09  1.36142296477087E-02
 cg2d: Sum(rhs),rhsMax =   1.53347354259203E-09  1.36138682893199E-02
 cg2d: Sum(rhs),rhsMax =   1.53355210474881E-09  1.36135075121167E-02
 cg2d: Sum(rhs),rhsMax =   1.53363416410812E-09  1.36131473013081E-02
 cg2d: Sum(rhs),rhsMax =   1.53372331501700E-09  1.36127876372462E-02
 cg2d: Sum(rhs),rhsMax =   1.53381971013111E-09  1.36124285071613E-02
 cg2d: Sum(rhs),rhsMax =   1.53390836143963E-09  1.36120698899862E-02
 cg2d: Sum(rhs),rhsMax =   1.53399505598006E-09  1.36117117693318E-02
 cg2d: Sum(rhs),rhsMax =   1.53407686553919E-09  1.36113541251857E-02
 cg2d: Sum(rhs),rhsMax =   1.53417617498874E-09  1.36109969386617E-02
 cg2d: Sum(rhs),rhsMax =   1.53426833737758E-09  1.36106401916631E-02
 cg2d: Sum(rhs),rhsMax =   1.53435605887431E-09  1.36102838620994E-02
 cg2d: Sum(rhs),rhsMax =   1.53443439898648E-09  1.36099279293059E-02
 cg2d: Sum(rhs),rhsMax =   1.53451890083645E-09  1.36095723717239E-02
 cg2d: Sum(rhs),rhsMax =   1.53459336904582E-09  1.36092171687113E-02
 cg2d: Sum(rhs),rhsMax =   1.53468621144626E-09  1.36088622977416E-02
 cg2d: Sum(rhs),rhsMax =   1.53476832631672E-09  1.36085077327298E-02
 cg2d: Sum(rhs),rhsMax =   1.53485711640311E-09  1.36081534512137E-02
 cg2d: Sum(rhs),rhsMax =   1.53494653098996E-09  1.36077994275649E-02
 cg2d: Sum(rhs),rhsMax =   1.53502421884610E-09  1.36074456375164E-02
 cg2d: Sum(rhs),rhsMax =   1.53512111356058E-09  1.36070920540089E-02
 cg2d: Sum(rhs),rhsMax =   1.53519733037122E-09  1.36067386500513E-02
 cg2d: Sum(rhs),rhsMax =   1.53526724666619E-09  1.36063853970631E-02
 cg2d: Sum(rhs),rhsMax =   1.53535613389710E-09  1.36060322684683E-02
 cg2d: Sum(rhs),rhsMax =   1.53543429359804E-09  1.36056792339864E-02
 cg2d: Sum(rhs),rhsMax =   1.53553879334023E-09  1.36053262639782E-02
 cg2d: Sum(rhs),rhsMax =   1.53561348359421E-09  1.36049733279916E-02
 cg2d: Sum(rhs),rhsMax =   1.53569977567880E-09  1.36046203955211E-02
 cg2d: Sum(rhs),rhsMax =   1.53578312567237E-09  1.36042674347149E-02
 cg2d: Sum(rhs),rhsMax =   1.53585968942771E-09  1.36039144138065E-02
 cg2d: Sum(rhs),rhsMax =   1.53594313656580E-09  1.36035613002929E-02
 cg2d: Sum(rhs),rhsMax =   1.53601689700800E-09  1.36032080624615E-02
 cg2d: Sum(rhs),rhsMax =   1.53610847652974E-09  1.36028546651575E-02
 cg2d: Sum(rhs),rhsMax =   1.53620141607469E-09  1.36025010773603E-02
 cg2d: Sum(rhs),rhsMax =   1.53629196864014E-09  1.36021472661462E-02
 cg2d: Sum(rhs),rhsMax =   1.53638247957222E-09  1.36017931954230E-02
 cg2d: Sum(rhs),rhsMax =   1.53645836331595E-09  1.36014388345057E-02
 cg2d: Sum(rhs),rhsMax =   1.53653105516849E-09  1.36010841504641E-02
 cg2d: Sum(rhs),rhsMax =   1.53661211532707E-09  1.36007291094713E-02
 cg2d: Sum(rhs),rhsMax =   1.53668586189148E-09  1.36003736795211E-02
 cg2d: Sum(rhs),rhsMax =   1.53677238989847E-09  1.36000178293129E-02
 cg2d: Sum(rhs),rhsMax =   1.53686613435511E-09  1.35996615281720E-02
 cg2d: Sum(rhs),rhsMax =   1.53694140747618E-09  1.35993047464726E-02
 cg2d: Sum(rhs),rhsMax =   1.53702678362677E-09  1.35989474546323E-02
 cg2d: Sum(rhs),rhsMax =   1.53711081363195E-09  1.35985896230694E-02
 cg2d: Sum(rhs),rhsMax =   1.53720769446863E-09  1.35982312263344E-02
 cg2d: Sum(rhs),rhsMax =   1.53729314000817E-09  1.35978722390109E-02
 cg2d: Sum(rhs),rhsMax =   1.53738627384215E-09  1.35975126344089E-02
 cg2d: Sum(rhs),rhsMax =   1.53746941566890E-09  1.35971523914620E-02
 cg2d: Sum(rhs),rhsMax =   1.53755652654297E-09  1.35967914895905E-02
 cg2d: Sum(rhs),rhsMax =   1.53765074284440E-09  1.35964299073690E-02
 cg2d: Sum(rhs),rhsMax =   1.53773552225012E-09  1.35960676288358E-02
 cg2d: Sum(rhs),rhsMax =   1.53782553358184E-09  1.35957046385145E-02
 cg2d: Sum(rhs),rhsMax =   1.53791648860313E-09  1.35953409219664E-02
 cg2d: Sum(rhs),rhsMax =   1.53801202329440E-09  1.35949764673686E-02
 cg2d: Sum(rhs),rhsMax =   1.53808671354838E-09  1.35946112669420E-02
 cg2d: Sum(rhs),rhsMax =   1.53817641956877E-09  1.35942453129012E-02
 Computing Diagnostic #    26 "THETA   " (list#  1) Parms "SMR     MR      ", Count=     144
 Computing Diagnostic #    27 "SALT    " (list#  1) Parms "SMR     MR      ", Count=     144
 Computing Diagnostic #    30 "UVEL    " (list#  1) Parms "UUR     MR      ", Count=     144
             Vector  Mate for "UVEL    " :  Diagnostic #     31 "VVEL    " exists
 Computing Diagnostic #    32 "WVEL    " (list#  1) Parms "WM      LR      ", Count=     144
 Computing Diagnostic #    31 "VVEL    " (list#  1) Parms "VVR     MR      ", Count=     144
             Vector  Mate for "VVEL    " :  Diagnostic #     30 "UVEL    " exists
 Computing Diagnostic #   197 "BRGfwFlx" (list#  2) Parms "SM      MR      ", Count=     144
 Computing Diagnostic #   198 "BRGhtFlx" (list#  2) Parms "SM      MR      ", Count=     144
 Computing Diagnostic #   199 "BRGmltRt" (list#  2) Parms "SM      MR      ", Count=     144
 Computing Diagnostic #   201 "BRG_TauX" (list#  2) Parms "UU      MR      ", Count=    1728
 Computing Diagnostic #   202 "BRG_TauY" (list#  2) Parms "VV      MR      ", Count=    1728
 Computing Diagnostic #   203 "BRGhFacC" (list#  2) Parms "SM      MR      ", Count=    1728
 cg2d: Sum(rhs),rhsMax =   1.53827485471769E-09  1.35938786005491E-02
 cg2d: Sum(rhs),rhsMax =   1.53836188232503E-09  1.35935111288848E-02
 cg2d: Sum(rhs),rhsMax =   1.53844584294127E-09  1.35931428972184E-02
 cg2d: Sum(rhs),rhsMax =   1.53853009499105E-09  1.35927739089528E-02
 cg2d: Sum(rhs),rhsMax =   1.53861887119966E-09  1.35924041687872E-02
 cg2d: Sum(rhs),rhsMax =   1.53870817476420E-09  1.35920336849072E-02
 cg2d: Sum(rhs),rhsMax =   1.53881089814956E-09  1.35916624678091E-02
 cg2d: Sum(rhs),rhsMax =   1.53890365728326E-09  1.35912905303175E-02
 cg2d: Sum(rhs),rhsMax =   1.53899952504144E-09  1.35909178869819E-02
 cg2d: Sum(rhs),rhsMax =   1.53908154276738E-09  1.35905445555215E-02
 cg2d: Sum(rhs),rhsMax =   1.53917405210091E-09  1.35901705576054E-02
 cg2d: Sum(rhs),rhsMax =   1.53927162682699E-09  1.35897959126416E-02
 cg2d: Sum(rhs),rhsMax =   1.53935497682056E-09  1.35894206481592E-02
 cg2d: Sum(rhs),rhsMax =   1.53943900682574E-09  1.35890447874166E-02
 cg2d: Sum(rhs),rhsMax =   1.53952811610125E-09  1.35886683577194E-02
 cg2d: Sum(rhs),rhsMax =   1.53962624593884E-09  1.35882913958687E-02
 cg2d: Sum(rhs),rhsMax =   1.53970772243106E-09  1.35879139325604E-02
 cg2d: Sum(rhs),rhsMax =   1.53979616557276E-09  1.35875359965136E-02
 cg2d: Sum(rhs),rhsMax =   1.53989042350755E-09  1.35871576241873E-02
 cg2d: Sum(rhs),rhsMax =   1.53997199714428E-09  1.35867788534196E-02
 cg2d: Sum(rhs),rhsMax =   1.54005705410576E-09  1.35863997211026E-02
 cg2d: Sum(rhs),rhsMax =   1.54014860587193E-09  1.35860202649953E-02
 cg2d: Sum(rhs),rhsMax =   1.54022712639534E-09  1.35856405230867E-02
 cg2d: Sum(rhs),rhsMax =   1.54030976862174E-09  1.35852605354701E-02
 cg2d: Sum(rhs),rhsMax =   1.54040800948163E-09  1.35848803412836E-02
 cg2d: Sum(rhs),rhsMax =   1.54048485079272E-09  1.35844999791116E-02
 cg2d: Sum(rhs),rhsMax =   1.54058985013528E-09  1.35841194903227E-02
 cg2d: Sum(rhs),rhsMax =   1.54068251212447E-09  1.35837389122257E-02
 cg2d: Sum(rhs),rhsMax =   1.54077212100034E-09  1.35833582831994E-02
 cg2d: Sum(rhs),rhsMax =   1.54085681713934E-09  1.35829776397606E-02
 cg2d: Sum(rhs),rhsMax =   1.54093723891968E-09  1.35825970203376E-02
 cg2d: Sum(rhs),rhsMax =   1.54102265670364E-09  1.35822164567788E-02
 cg2d: Sum(rhs),rhsMax =   1.54110561811915E-09  1.35818359853153E-02
 cg2d: Sum(rhs),rhsMax =   1.54119662865160E-09  1.35814556354113E-02
 cg2d: Sum(rhs),rhsMax =   1.54129109475321E-09  1.35810754374126E-02
 cg2d: Sum(rhs),rhsMax =   1.54137229368967E-09  1.35806954186966E-02
 cg2d: Sum(rhs),rhsMax =   1.54146269359945E-09  1.35803156027447E-02
 cg2d: Sum(rhs),rhsMax =   1.54153995124418E-09  1.35799360128189E-02
 cg2d: Sum(rhs),rhsMax =   1.54162795029666E-09  1.35795566702406E-02
 cg2d: Sum(rhs),rhsMax =   1.54170566590839E-09  1.35791775891630E-02
 cg2d: Sum(rhs),rhsMax =   1.54180555822503E-09  1.35787987841504E-02
 cg2d: Sum(rhs),rhsMax =   1.54189447321151E-09  1.35784202655453E-02
 cg2d: Sum(rhs),rhsMax =   1.54200370527935E-09  1.35780420397011E-02
 cg2d: Sum(rhs),rhsMax =   1.54209590930154E-09  1.35776641100987E-02
 cg2d: Sum(rhs),rhsMax =   1.54219356729435E-09  1.35772864768173E-02
 cg2d: Sum(rhs),rhsMax =   1.54226516280165E-09  1.35769091364363E-02
 cg2d: Sum(rhs),rhsMax =   1.54235391125468E-09  1.35765320816441E-02
 cg2d: Sum(rhs),rhsMax =   1.54244571282103E-09  1.35761553017085E-02
 cg2d: Sum(rhs),rhsMax =   1.54252693951307E-09  1.35757787783531E-02
 cg2d: Sum(rhs),rhsMax =   1.54260956786167E-09  1.35754024964785E-02
 cg2d: Sum(rhs),rhsMax =   1.54269851060373E-09  1.35750264320206E-02
 cg2d: Sum(rhs),rhsMax =   1.54278491371063E-09  1.35746505572736E-02
 cg2d: Sum(rhs),rhsMax =   1.54286237952217E-09  1.35742748451068E-02
 cg2d: Sum(rhs),rhsMax =   1.54294309273606E-09  1.35738992587642E-02
 cg2d: Sum(rhs),rhsMax =   1.54303435306868E-09  1.35735237628611E-02
 cg2d: Sum(rhs),rhsMax =   1.54311674549490E-09  1.35731483154496E-02
 cg2d: Sum(rhs),rhsMax =   1.54322556122910E-09  1.35727728751466E-02
 cg2d: Sum(rhs),rhsMax =   1.54330104251699E-09  1.35723973913612E-02
 cg2d: Sum(rhs),rhsMax =   1.54338855584690E-09  1.35720218167135E-02
 cg2d: Sum(rhs),rhsMax =   1.54347547243194E-09  1.35716460959727E-02
 cg2d: Sum(rhs),rhsMax =   1.54355385417748E-09  1.35712701750700E-02
 cg2d: Sum(rhs),rhsMax =   1.54364733495616E-09  1.35708939961153E-02
 cg2d: Sum(rhs),rhsMax =   1.54373586136458E-09  1.35705174978240E-02
 cg2d: Sum(rhs),rhsMax =   1.54381626926714E-09  1.35701406193930E-02
 cg2d: Sum(rhs),rhsMax =   1.54389717677006E-09  1.35697632974340E-02
 cg2d: Sum(rhs),rhsMax =   1.54398530072264E-09  1.35693854649686E-02
 cg2d: Sum(rhs),rhsMax =   1.54409236785558E-09  1.35690070583143E-02
 cg2d: Sum(rhs),rhsMax =   1.54417868769574E-09  1.35686280067867E-02
 cg2d: Sum(rhs),rhsMax =   1.54426496590254E-09  1.35682482454614E-02
 cg2d: Sum(rhs),rhsMax =   1.54435338128867E-09  1.35678677065539E-02
 cg2d: Sum(rhs),rhsMax =   1.54443945132865E-09  1.35674863204630E-02
 cg2d: Sum(rhs),rhsMax =   1.54452273193328E-09  1.35671040216076E-02
 cg2d: Sum(rhs),rhsMax =   1.54460194634609E-09  1.35667207418850E-02
 cg2d: Sum(rhs),rhsMax =   1.54469755042630E-09  1.35663364143222E-02
 cg2d: Sum(rhs),rhsMax =   1.54479960767784E-09  1.35659509763982E-02
 cg2d: Sum(rhs),rhsMax =   1.54486794190500E-09  1.35655643646881E-02
 cg2d: Sum(rhs),rhsMax =   1.54495471971217E-09  1.35651765165953E-02
 cg2d: Sum(rhs),rhsMax =   1.54504140037481E-09  1.35647873751825E-02
 cg2d: Sum(rhs),rhsMax =   1.54514699646224E-09  1.35643968819356E-02
 cg2d: Sum(rhs),rhsMax =   1.54522741824259E-09  1.35640049845077E-02
 cg2d: Sum(rhs),rhsMax =   1.54531891449761E-09  1.35636116330949E-02
 cg2d: Sum(rhs),rhsMax =   1.54541249242079E-09  1.35632167632498E-02
 cg2d: Sum(rhs),rhsMax =   1.54551030306926E-09  1.35628203267313E-02
 cg2d: Sum(rhs),rhsMax =   1.54560565734929E-09  1.35624222612742E-02
 cg2d: Sum(rhs),rhsMax =   1.54569579358110E-09  1.35620225179993E-02
 cg2d: Sum(rhs),rhsMax =   1.54578327915544E-09  1.35616210515453E-02
 cg2d: Sum(rhs),rhsMax =   1.54587337375389E-09  1.35612178242283E-02
 cg2d: Sum(rhs),rhsMax =   1.54598826795915E-09  1.35608128007009E-02
 cg2d: Sum(rhs),rhsMax =   1.54609094971114E-09  1.35604059533649E-02
 cg2d: Sum(rhs),rhsMax =   1.54617404990454E-09  1.35599972610313E-02
 cg2d: Sum(rhs),rhsMax =   1.54627845250221E-09  1.35595867080201E-02
 cg2d: Sum(rhs),rhsMax =   1.54636818627818E-09  1.35591742873140E-02
 cg2d: Sum(rhs),rhsMax =   1.54646731531649E-09  1.35587599985601E-02
 cg2d: Sum(rhs),rhsMax =   1.54655932504966E-09  1.35583438471406E-02
 cg2d: Sum(rhs),rhsMax =   1.54665805163212E-09  1.35579258472815E-02
 cg2d: Sum(rhs),rhsMax =   1.54674921482023E-09  1.35575060201883E-02
 cg2d: Sum(rhs),rhsMax =   1.54685074471583E-09  1.35570843947748E-02
 cg2d: Sum(rhs),rhsMax =   1.54695316278985E-09  1.35566610044585E-02
 cg2d: Sum(rhs),rhsMax =   1.54703785892885E-09  1.35562358948084E-02
 cg2d: Sum(rhs),rhsMax =   1.54711835009813E-09  1.35558091135003E-02
 cg2d: Sum(rhs),rhsMax =   1.54721914447098E-09  1.35553807181443E-02
 cg2d: Sum(rhs),rhsMax =   1.54731226442717E-09  1.35549507726415E-02
 cg2d: Sum(rhs),rhsMax =   1.54741035263140E-09  1.35545193462192E-02
 cg2d: Sum(rhs),rhsMax =   1.54749281444655E-09  1.35540865150609E-02
 cg2d: Sum(rhs),rhsMax =   1.54761453652341E-09  1.35536523594684E-02
 cg2d: Sum(rhs),rhsMax =   1.54771256921649E-09  1.35532169708667E-02
 cg2d: Sum(rhs),rhsMax =   1.54780568917268E-09  1.35527804372036E-02
 cg2d: Sum(rhs),rhsMax =   1.54791052198178E-09  1.35523428588951E-02
 cg2d: Sum(rhs),rhsMax =   1.54799914553472E-09  1.35519043805619E-02
 cg2d: Sum(rhs),rhsMax =   1.54810432528851E-09  1.35514649495770E-02
 cg2d: Sum(rhs),rhsMax =   1.54821520881310E-09  1.35510248133095E-02
 cg2d: Sum(rhs),rhsMax =   1.54828891374414E-09  1.35505840955793E-02
 cg2d: Sum(rhs),rhsMax =   1.54838247778954E-09  1.35501428662930E-02
 cg2d: Sum(rhs),rhsMax =   1.54848212030601E-09  1.35497012360548E-02
 cg2d: Sum(rhs),rhsMax =   1.54858025014359E-09  1.35492593232252E-02
 cg2d: Sum(rhs),rhsMax =   1.54868835811062E-09  1.35488172491262E-02
 cg2d: Sum(rhs),rhsMax =   1.54879353786441E-09  1.35483751320969E-02
 cg2d: Sum(rhs),rhsMax =   1.54888099568318E-09  1.35479330874893E-02
 cg2d: Sum(rhs),rhsMax =   1.54897418502831E-09  1.35474912289281E-02
 cg2d: Sum(rhs),rhsMax =   1.54906405758215E-09  1.35470496679711E-02
 cg2d: Sum(rhs),rhsMax =   1.54915588690407E-09  1.35466085120927E-02
 cg2d: Sum(rhs),rhsMax =   1.54925815232243E-09  1.35461678676544E-02
 cg2d: Sum(rhs),rhsMax =   1.54935869689510E-09  1.35457278387253E-02
 cg2d: Sum(rhs),rhsMax =   1.54944679309210E-09  1.35452885229758E-02
 cg2d: Sum(rhs),rhsMax =   1.54954014897069E-09  1.35448500151755E-02
 cg2d: Sum(rhs),rhsMax =   1.54963655796259E-09  1.35444124067679E-02
 cg2d: Sum(rhs),rhsMax =   1.54972490395977E-09  1.35439757827166E-02
 cg2d: Sum(rhs),rhsMax =   1.54982608691068E-09  1.35435402210590E-02
 cg2d: Sum(rhs),rhsMax =   1.54991623702028E-09  1.35431057980105E-02
 cg2d: Sum(rhs),rhsMax =   1.55002626012202E-09  1.35426725773366E-02
 cg2d: Sum(rhs),rhsMax =   1.55011459224141E-09  1.35422406227516E-02
 cg2d: Sum(rhs),rhsMax =   1.55022090997381E-09  1.35418099863603E-02
 cg2d: Sum(rhs),rhsMax =   1.55030813187018E-09  1.35413807165781E-02
 cg2d: Sum(rhs),rhsMax =   1.55040094651504E-09  1.35409528519255E-02
 cg2d: Sum(rhs),rhsMax =   1.55050296213322E-09  1.35405264266217E-02
 cg2d: Sum(rhs),rhsMax =   1.55058439699207E-09  1.35401014629529E-02
 cg2d: Sum(rhs),rhsMax =   1.55066580409535E-09  1.35396779807739E-02
 cg2d: Sum(rhs),rhsMax =   1.55077047037100E-09  1.35392559915396E-02
 cg2d: Sum(rhs),rhsMax =   1.55086438136109E-09  1.35388354974433E-02
 cg2d: Sum(rhs),rhsMax =   1.55095333798094E-09  1.35384164960055E-02
 cg2d: Sum(rhs),rhsMax =   1.55103761778630E-09  1.35379989756754E-02
 cg2d: Sum(rhs),rhsMax =   1.55112753197351E-09  1.35375829221359E-02
 cg2d: Sum(rhs),rhsMax =   1.55122861777990E-09  1.35371683100207E-02
 cg2d: Sum(rhs),rhsMax =   1.55130457091257E-09  1.35367551116975E-02
 Computing Diagnostic #    26 "THETA   " (list#  1) Parms "SMR     MR      ", Count=     144
 Computing Diagnostic #    27 "SALT    " (list#  1) Parms "SMR     MR      ", Count=     144
 Computing Diagnostic #    30 "UVEL    " (list#  1) Parms "UUR     MR      ", Count=     144
             Vector  Mate for "UVEL    " :  Diagnostic #     31 "VVEL    " exists
 Computing Diagnostic #    32 "WVEL    " (list#  1) Parms "WM      LR      ", Count=     144
 Computing Diagnostic #    31 "VVEL    " (list#  1) Parms "VVR     MR      ", Count=     144
             Vector  Mate for "VVEL    " :  Diagnostic #     30 "UVEL    " exists
 Computing Diagnostic #   197 "BRGfwFlx" (list#  2) Parms "SM      MR      ", Count=     144
 Computing Diagnostic #   198 "BRGhtFlx" (list#  2) Parms "SM      MR      ", Count=     144
 Computing Diagnostic #   199 "BRGmltRt" (list#  2) Parms "SM      MR      ", Count=     144
 Computing Diagnostic #   201 "BRG_TauX" (list#  2) Parms "UU      MR      ", Count=    1728
 Computing Diagnostic #   202 "BRG_TauY" (list#  2) Parms "VV      MR      ", Count=    1728
 Computing Diagnostic #   203 "BRGhFacC" (list#  2) Parms "SM      MR      ", Count=    1728
 cg2d: Sum(rhs),rhsMax =   1.55139295854312E-09  1.35363432925122E-02
 cg2d: Sum(rhs),rhsMax =   1.55148045799525E-09  1.35359328090416E-02
 cg2d: Sum(rhs),rhsMax =   1.55156607006823E-09  1.35355236193940E-02
 cg2d: Sum(rhs),rhsMax =   1.55164918413941E-09  1.35351156730579E-02
 cg2d: Sum(rhs),rhsMax =   1.55173865423741E-09  1.35347089132027E-02
 cg2d: Sum(rhs),rhsMax =   1.55181599514886E-09  1.35343032849095E-02
 cg2d: Sum(rhs),rhsMax =   1.55192464434961E-09  1.35338987244906E-02
 cg2d: Sum(rhs),rhsMax =   1.55202098395257E-09  1.35334951717371E-02
 cg2d: Sum(rhs),rhsMax =   1.55212125096948E-09  1.35330925565482E-02
 cg2d: Sum(rhs),rhsMax =   1.55221106801218E-09  1.35326908116179E-02
 cg2d: Sum(rhs),rhsMax =   1.55230031606557E-09  1.35322898693758E-02
 cg2d: Sum(rhs),rhsMax =   1.55240356680686E-09  1.35318896585320E-02
 cg2d: Sum(rhs),rhsMax =   1.55250137745533E-09  1.35314901101026E-02
 cg2d: Sum(rhs),rhsMax =   1.55259297085486E-09  1.35310911541767E-02
 cg2d: Sum(rhs),rhsMax =   1.55268048418478E-09  1.35306927212307E-02
 cg2d: Sum(rhs),rhsMax =   1.55276320967790E-09  1.35302947458783E-02
 cg2d: Sum(rhs),rhsMax =   1.55284646252696E-09  1.35298971605086E-02
 cg2d: Sum(rhs),rhsMax =   1.55295511172771E-09  1.35294999040861E-02
 cg2d: Sum(rhs),rhsMax =   1.55304258342426E-09  1.35291029150052E-02
 cg2d: Sum(rhs),rhsMax =   1.55313684135905E-09  1.35287061367393E-02
 cg2d: Sum(rhs),rhsMax =   1.55323584549727E-09  1.35283091828311E-02
 cg2d: Sum(rhs),rhsMax =   1.55332138818132E-09  1.35279123413761E-02
 cg2d: Sum(rhs),rhsMax =   1.55340269814008E-09  1.35275155708858E-02
 cg2d: Sum(rhs),rhsMax =   1.55349456909537E-09  1.35271188333236E-02
 cg2d: Sum(rhs),rhsMax =   1.55358924336380E-09  1.35267220973614E-02
 cg2d: Sum(rhs),rhsMax =   1.55367610443768E-09  1.35263253451536E-02
 cg2d: Sum(rhs),rhsMax =   1.55377256894074E-09  1.35259285686272E-02
 cg2d: Sum(rhs),rhsMax =   1.55387169797905E-09  1.35255317532597E-02
 cg2d: Sum(rhs),rhsMax =   1.55395192547036E-09  1.35251348859804E-02
 cg2d: Sum(rhs),rhsMax =   1.55403172275026E-09  1.35247379610086E-02
 cg2d: Sum(rhs),rhsMax =   1.55412988034342E-09  1.35243409779557E-02
 cg2d: Sum(rhs),rhsMax =   1.55421858716309E-09  1.35239439411713E-02
 cg2d: Sum(rhs),rhsMax =   1.55432208770456E-09  1.35235468598056E-02
 cg2d: Sum(rhs),rhsMax =   1.55441227944753E-09  1.35231497485344E-02
 cg2d: Sum(rhs),rhsMax =   1.55451809757956E-09  1.35227526259807E-02
 cg2d: Sum(rhs),rhsMax =   1.55460111450623E-09  1.35223555185962E-02
 cg2d: Sum(rhs),rhsMax =   1.55467048956748E-09  1.35219584548686E-02
 cg2d: Sum(rhs),rhsMax =   1.55476659324805E-09  1.35215614690919E-02
 cg2d: Sum(rhs),rhsMax =   1.55486712394293E-09  1.35211645972386E-02
 cg2d: Sum(rhs),rhsMax =   1.55495299969388E-09  1.35207678831026E-02
 cg2d: Sum(rhs),rhsMax =   1.55505022747526E-09  1.35203713706391E-02
 cg2d: Sum(rhs),rhsMax =   1.55513679711561E-09  1.35199751090912E-02
 cg2d: Sum(rhs),rhsMax =   1.55522149325460E-09  1.35195791496399E-02
 cg2d: Sum(rhs),rhsMax =   1.55532405010650E-09  1.35191835456717E-02
 cg2d: Sum(rhs),rhsMax =   1.55542034807610E-09  1.35187883533127E-02
 cg2d: Sum(rhs),rhsMax =   1.55550729241671E-09  1.35183936302916E-02
 cg2d: Sum(rhs),rhsMax =   1.55559566616947E-09  1.35179994353858E-02
 cg2d: Sum(rhs),rhsMax =   1.55568960491514E-09  1.35176058273833E-02
 cg2d: Sum(rhs),rhsMax =   1.55578944172063E-09  1.35172128666369E-02
 cg2d: Sum(rhs),rhsMax =   1.55588548989005E-09  1.35168206125062E-02
 cg2d: Sum(rhs),rhsMax =   1.55595776540896E-09  1.35164291242772E-02
 cg2d: Sum(rhs),rhsMax =   1.55604923390840E-09  1.35160384607020E-02
 cg2d: Sum(rhs),rhsMax =   1.55614675312332E-09  1.35156486762897E-02
 cg2d: Sum(rhs),rhsMax =   1.55624169106972E-09  1.35152598269043E-02
 cg2d: Sum(rhs),rhsMax =   1.55633426979218E-09  1.35148719650424E-02
 cg2d: Sum(rhs),rhsMax =   1.55641985410959E-09  1.35144851402291E-02
 cg2d: Sum(rhs),rhsMax =   1.55651350142172E-09  1.35140993982832E-02
 cg2d: Sum(rhs),rhsMax =   1.55661063205859E-09  1.35137147832482E-02
 cg2d: Sum(rhs),rhsMax =   1.55669988011198E-09  1.35133313324245E-02
 cg2d: Sum(rhs),rhsMax =   1.55679172331169E-09  1.35129490825895E-02
 cg2d: Sum(rhs),rhsMax =   1.55689165726169E-09  1.35125680641125E-02
 cg2d: Sum(rhs),rhsMax =   1.55698712256402E-09  1.35121883010941E-02
 cg2d: Sum(rhs),rhsMax =   1.55707853555231E-09  1.35118098149373E-02
 cg2d: Sum(rhs),rhsMax =   1.55717828909108E-09  1.35114326219681E-02
 cg2d: Sum(rhs),rhsMax =   1.55727558626140E-09  1.35110567325268E-02
 cg2d: Sum(rhs),rhsMax =   1.55736734619438E-09  1.35106821502612E-02
 cg2d: Sum(rhs),rhsMax =   1.55745985552791E-09  1.35103088748961E-02
 cg2d: Sum(rhs),rhsMax =   1.55754749375792E-09  1.35099368995366E-02
 cg2d: Sum(rhs),rhsMax =   1.55763646425555E-09  1.35095662126106E-02
 cg2d: Sum(rhs),rhsMax =   1.55772382492980E-09  1.35091967781604E-02
 cg2d: Sum(rhs),rhsMax =   1.55780749411250E-09  1.35088285605964E-02
 cg2d: Sum(rhs),rhsMax =   1.55789096900616E-09  1.35084615263781E-02
 cg2d: Sum(rhs),rhsMax =   1.55797330592122E-09  1.35080956428205E-02
 cg2d: Sum(rhs),rhsMax =   1.55806383073109E-09  1.35077308698054E-02
 cg2d: Sum(rhs),rhsMax =   1.55815563229744E-09  1.35073671651416E-02
 cg2d: Sum(rhs),rhsMax =   1.55824404768357E-09  1.35070044785474E-02
 cg2d: Sum(rhs),rhsMax =   1.55834402326693E-09  1.35066427572565E-02
 cg2d: Sum(rhs),rhsMax =   1.55841953231040E-09  1.35062819437972E-02
 cg2d: Sum(rhs),rhsMax =   1.55850211902564E-09  1.35059219775962E-02
 cg2d: Sum(rhs),rhsMax =   1.55860051254120E-09  1.35055627937654E-02
 cg2d: Sum(rhs),rhsMax =   1.55870084894705E-09  1.35052043248951E-02
 cg2d: Sum(rhs),rhsMax =   1.55878283891742E-09  1.35048465007112E-02
 cg2d: Sum(rhs),rhsMax =   1.55886011043993E-09  1.35044892469362E-02
 cg2d: Sum(rhs),rhsMax =   1.55894926134881E-09  1.35041324874593E-02
 cg2d: Sum(rhs),rhsMax =   1.55903549792225E-09  1.35037761468332E-02
 cg2d: Sum(rhs),rhsMax =   1.55911387966778E-09  1.35034201456986E-02
 cg2d: Sum(rhs),rhsMax =   1.55919521738213E-09  1.35030644045913E-02
 cg2d: Sum(rhs),rhsMax =   1.55927377953891E-09  1.35027088448458E-02
 cg2d: Sum(rhs),rhsMax =   1.55936984158611E-09  1.35023533842083E-02
 cg2d: Sum(rhs),rhsMax =   1.55946208724167E-09  1.35019979461054E-02
 cg2d: Sum(rhs),rhsMax =   1.55954947567150E-09  1.35016424509762E-02
 cg2d: Sum(rhs),rhsMax =   1.55964083314863E-09  1.35012868240119E-02
 cg2d: Sum(rhs),rhsMax =   1.55972258719661E-09  1.35009309879520E-02
 cg2d: Sum(rhs),rhsMax =   1.55981431937402E-09  1.35005748693754E-02
 cg2d: Sum(rhs),rhsMax =   1.55991378147924E-09  1.35002184003569E-02
 cg2d: Sum(rhs),rhsMax =   1.56000025397507E-09  1.34998615117523E-02
 cg2d: Sum(rhs),rhsMax =   1.56009989649153E-09  1.34995041400951E-02
 cg2d: Sum(rhs),rhsMax =   1.56018815922199E-09  1.34991462257069E-02
 cg2d: Sum(rhs),rhsMax =   1.56026928876951E-09  1.34987877124864E-02
 cg2d: Sum(rhs),rhsMax =   1.56035036280588E-09  1.34984285482231E-02
 cg2d: Sum(rhs),rhsMax =   1.56044931143295E-09  1.34980686861613E-02
 cg2d: Sum(rhs),rhsMax =   1.56053775457465E-09  1.34977080838199E-02
 cg2d: Sum(rhs),rhsMax =   1.56060865619256E-09  1.34973467035788E-02
 cg2d: Sum(rhs),rhsMax =   1.56069798751268E-09  1.34969845134340E-02
 cg2d: Sum(rhs),rhsMax =   1.56078980295682E-09  1.34966214867492E-02
 cg2d: Sum(rhs),rhsMax =   1.56086914226972E-09  1.34962576025261E-02
 cg2d: Sum(rhs),rhsMax =   1.56095408820889E-09  1.34958928458364E-02
 cg2d: Sum(rhs),rhsMax =   1.56103903414806E-09  1.34955272047594E-02
 cg2d: Sum(rhs),rhsMax =   1.56114049465472E-09  1.34951606765366E-02
 cg2d: Sum(rhs),rhsMax =   1.56122625938337E-09  1.34947932627236E-02
 cg2d: Sum(rhs),rhsMax =   1.56131586825925E-09  1.34944249698227E-02
 cg2d: Sum(rhs),rhsMax =   1.56139529083887E-09  1.34940558090717E-02
 cg2d: Sum(rhs),rhsMax =   1.56147929308847E-09  1.34936858010077E-02
 cg2d: Sum(rhs),rhsMax =   1.56157453634620E-09  1.34933149680614E-02
 cg2d: Sum(rhs),rhsMax =   1.56165866349589E-09  1.34929433367285E-02
 cg2d: Sum(rhs),rhsMax =   1.56174713439317E-09  1.34925709412083E-02
 cg2d: Sum(rhs),rhsMax =   1.56183659061337E-09  1.34921978202252E-02
 cg2d: Sum(rhs),rhsMax =   1.56193387390591E-09  1.34918240137755E-02
 cg2d: Sum(rhs),rhsMax =   1.56201716838833E-09  1.34914495687461E-02
 cg2d: Sum(rhs),rhsMax =   1.56210330781725E-09  1.34910745359976E-02
 cg2d: Sum(rhs),rhsMax =   1.56219352731579E-09  1.34906989665209E-02
 cg2d: Sum(rhs),rhsMax =   1.56227332459569E-09  1.34903229173995E-02
 cg2d: Sum(rhs),rhsMax =   1.56237453530217E-09  1.34899464482527E-02
 cg2d: Sum(rhs),rhsMax =   1.56246486582301E-09  1.34895696204381E-02
 cg2d: Sum(rhs),rhsMax =   1.56253572580756E-09  1.34891924959679E-02
 cg2d: Sum(rhs),rhsMax =   1.56262937311968E-09  1.34888151397066E-02
 cg2d: Sum(rhs),rhsMax =   1.56272357554332E-09  1.34884376171482E-02
 cg2d: Sum(rhs),rhsMax =   1.56281078356191E-09  1.34880599941992E-02
 cg2d: Sum(rhs),rhsMax =   1.56290073938248E-09  1.34876823382317E-02
 cg2d: Sum(rhs),rhsMax =   1.56298912701303E-09  1.34873047129711E-02
 cg2d: Sum(rhs),rhsMax =   1.56308113674619E-09  1.34869271863132E-02
 cg2d: Sum(rhs),rhsMax =   1.56317070398870E-09  1.34865498220795E-02
 cg2d: Sum(rhs),rhsMax =   1.56325595523921E-09  1.34861726820615E-02
 cg2d: Sum(rhs),rhsMax =   1.56335057399648E-09  1.34857958275624E-02
 cg2d: Sum(rhs),rhsMax =   1.56343980817208E-09  1.34854193169408E-02
 cg2d: Sum(rhs),rhsMax =   1.56353845148782E-09  1.34850432068823E-02
 cg2d: Sum(rhs),rhsMax =   1.56362042758040E-09  1.34846675489124E-02
 cg2d: Sum(rhs),rhsMax =   1.56371905701835E-09  1.34842923924152E-02
 cg2d: Sum(rhs),rhsMax =   1.56381477212086E-09  1.34839177848093E-02
 cg2d: Sum(rhs),rhsMax =   1.56389734495832E-09  1.34835437674239E-02
 cg2d: Sum(rhs),rhsMax =   1.56398889672449E-09  1.34831703761977E-02
 cg2d: Sum(rhs),rhsMax =   1.56410416563002E-09  1.34827244433884E-02
 cg2d: Sum(rhs),rhsMax =   1.56419772967542E-09  1.34822358119161E-02
 cg2d: Sum(rhs),rhsMax =   1.56431088915721E-09  1.34817477300692E-02
(PID.TID 0000.0001)      cg2d_init_res =   8.21004382566936E-05
(PID.TID 0000.0001)      cg2d_iters(min,last) =      -1      38
(PID.TID 0000.0001)      cg2d_last_res =   8.42530259528340E-14
(PID.TID 0000.0001) // =======================================================
(PID.TID 0000.0001) // Begin MONITOR dynamic field statistics
(PID.TID 0000.0001) // =======================================================
(PID.TID 0000.0001) %MON time_tsnumber                =                 31104
(PID.TID 0000.0001) %MON time_secondsf                =   7.7760000000000E+05
(PID.TID 0000.0001) %MON dynstat_eta_max              =   4.6280886606689E-03
(PID.TID 0000.0001) %MON dynstat_eta_min              =  -2.3089672771295E-03
(PID.TID 0000.0001) %MON dynstat_eta_mean             =  -1.4122972558058E-13
(PID.TID 0000.0001) %MON dynstat_eta_sd               =   2.3251260099501E-03
(PID.TID 0000.0001) %MON dynstat_eta_del2             =   1.8625879254515E-05
(PID.TID 0000.0001) %MON dynstat_uvel_max             =   4.3451486777097E-02
(PID.TID 0000.0001) %MON dynstat_uvel_min             =  -4.5469663089680E-02
(PID.TID 0000.0001) %MON dynstat_uvel_mean            =   3.9675446157677E-09
(PID.TID 0000.0001) %MON dynstat_uvel_sd              =   6.7235461114922E-03
(PID.TID 0000.0001) %MON dynstat_uvel_del2            =   1.0134826012844E-04
(PID.TID 0000.0001) %MON dynstat_vvel_max             =   2.3874533007177E-02
(PID.TID 0000.0001) %MON dynstat_vvel_min             =  -3.5492481999913E-02
(PID.TID 0000.0001) %MON dynstat_vvel_mean            =  -8.0919746369940E-03
(PID.TID 0000.0001) %MON dynstat_vvel_sd              =   1.1615014821042E-02
(PID.TID 0000.0001) %MON dynstat_vvel_del2            =   9.1503612491042E-05
(PID.TID 0000.0001) %MON dynstat_wvel_max             =   1.3734063053070E-03
(PID.TID 0000.0001) %MON dynstat_wvel_min             =  -1.1572794808519E-03
(PID.TID 0000.0001) %MON dynstat_wvel_mean            =   5.2616121075599E-21
(PID.TID 0000.0001) %MON dynstat_wvel_sd              =   1.2750772737707E-04
(PID.TID 0000.0001) %MON dynstat_wvel_del2            =   6.5646831430795E-06
(PID.TID 0000.0001) %MON dynstat_theta_max            =   2.6931451612903E+00
(PID.TID 0000.0001) %MON dynstat_theta_min            =  -7.7576391604987E-01
(PID.TID 0000.0001) %MON dynstat_theta_mean           =   2.2179719293339E+00
(PID.TID 0000.0001) %MON dynstat_theta_sd             =   5.3717878907525E-01
(PID.TID 0000.0001) %MON dynstat_theta_del2           =   1.7194006331161E-03
(PID.TID 0000.0001) %MON dynstat_salt_max             =   3.4699999999999E+01
(PID.TID 0000.0001) %MON dynstat_salt_min             =   3.3063360175578E+01
(PID.TID 0000.0001) %MON dynstat_salt_mean            =   3.4363942526108E+01
(PID.TID 0000.0001) %MON dynstat_salt_sd              =   3.2217260449707E-01
(PID.TID 0000.0001) %MON dynstat_salt_del2            =   1.9174775141570E-04
(PID.TID 0000.0001) %MON advcfl_uvel_max              =   2.2734831544840E-03
(PID.TID 0000.0001) %MON advcfl_vvel_max              =   1.7746240999956E-03
(PID.TID 0000.0001) %MON advcfl_wvel_max              =   6.5934542949348E-04
(PID.TID 0000.0001) %MON advcfl_W_hf_max              =   1.4145307945834E-03
(PID.TID 0000.0001) %MON pe_b_mean                    =   4.5106347479816E-08
(PID.TID 0000.0001) %MON ke_max                       =   1.0188361861836E-03
(PID.TID 0000.0001) %MON ke_mean                      =   1.1283301590542E-04
(PID.TID 0000.0001) %MON ke_vol                       =   3.2921708585402E+10
(PID.TID 0000.0001) // =======================================================
(PID.TID 0000.0001) // End MONITOR dynamic field statistics
(PID.TID 0000.0001) // =======================================================
(PID.TID 0000.0001) // =======================================================
(PID.TID 0000.0001) // Begin OBCS MONITOR field statistics
(PID.TID 0000.0001) // =======================================================
(PID.TID 0000.0001) %MON obc_E_uVel_max               =   0.0000000000000E+00
(PID.TID 0000.0001) %MON obc_E_uVel_min               =   0.0000000000000E+00
(PID.TID 0000.0001) %MON obc_E_uVel_mean              =   0.0000000000000E+00
(PID.TID 0000.0001) %MON obc_E_uVel_sd                =   0.0000000000000E+00
(PID.TID 0000.0001) %MON obc_E_uVel_Int               =   0.0000000000000E+00
(PID.TID 0000.0001) %MON obc_N_vVel_max               =  -3.6115799844846E-05
(PID.TID 0000.0001) %MON obc_N_vVel_min               =  -3.0000000000000E-02
(PID.TID 0000.0001) %MON obc_N_vVel_mean              =  -1.3225455303334E-02
(PID.TID 0000.0001) %MON obc_N_vVel_sd                =   1.1350864292742E-02
(PID.TID 0000.0001) %MON obc_N_vVel_Int               =  -5.9514548865004E+04
(PID.TID 0000.0001) %MON obc_S_vVel_max               =  -3.6115799844846E-05
(PID.TID 0000.0001) %MON obc_S_vVel_min               =  -3.0000000000000E-02
(PID.TID 0000.0001) %MON obc_S_vVel_mean              =  -1.3225455303334E-02
(PID.TID 0000.0001) %MON obc_S_vVel_sd                =   1.1350864292742E-02
(PID.TID 0000.0001) %MON obc_S_vVel_Int               =  -5.9514548865004E+04
(PID.TID 0000.0001) // =======================================================
(PID.TID 0000.0001) // End OBCS MONITOR field statistics
(PID.TID 0000.0001) // =======================================================
 Computing Diagnostic #    26 "THETA   " (list#  1) Parms "SMR     MR      ", Count=     144
 Computing Diagnostic #    27 "SALT    " (list#  1) Parms "SMR     MR      ", Count=     144
 Computing Diagnostic #    30 "UVEL    " (list#  1) Parms "UUR     MR      ", Count=     144
             Vector  Mate for "UVEL    " :  Diagnostic #     31 "VVEL    " exists
 Computing Diagnostic #    32 "WVEL    " (list#  1) Parms "WM      LR      ", Count=     144
 Computing Diagnostic #    31 "VVEL    " (list#  1) Parms "VVR     MR      ", Count=     144
             Vector  Mate for "VVEL    " :  Diagnostic #     30 "UVEL    " exists
 Computing Diagnostic #   197 "BRGfwFlx" (list#  2) Parms "SM      MR      ", Count=     144
 Computing Diagnostic #   198 "BRGhtFlx" (list#  2) Parms "SM      MR      ", Count=     144
 Computing Diagnostic #   199 "BRGmltRt" (list#  2) Parms "SM      MR      ", Count=     144
 Computing Diagnostic #   201 "BRG_TauX" (list#  2) Parms "UU      MR      ", Count=    1728
 Computing Diagnostic #   202 "BRG_TauY" (list#  2) Parms "VV      MR      ", Count=    1728
 Computing Diagnostic #   203 "BRGhFacC" (list#  2) Parms "SM      MR      ", Count=    1728
(PID.TID 0000.0001) %CHECKPOINT     31104 0000031104
 cg2d: Sum(rhs),rhsMax =   1.56441062881818E-09  1.34812613845523E-02
 cg2d: Sum(rhs),rhsMax =   1.56451096522403E-09  1.34807760720819E-02
 cg2d: Sum(rhs),rhsMax =   1.56461625600013E-09  1.34802917757285E-02
 cg2d: Sum(rhs),rhsMax =   1.56472909629279E-09  1.34798085551028E-02
 cg2d: Sum(rhs),rhsMax =   1.56483372093508E-09  1.34793264591354E-02
 cg2d: Sum(rhs),rhsMax =   1.56495037761939E-09  1.34788455284763E-02
 cg2d: Sum(rhs),rhsMax =   1.56504488535436E-09  1.34783657927425E-02
 cg2d: Sum(rhs),rhsMax =   1.56514193272450E-09  1.34778884779533E-02
 cg2d: Sum(rhs),rhsMax =   1.56525593875134E-09  1.34774127298468E-02
 cg2d: Sum(rhs),rhsMax =   1.56534056550139E-09  1.34769384733094E-02
 cg2d: Sum(rhs),rhsMax =   1.56543730756020E-09  1.34764657234742E-02
 cg2d: Sum(rhs),rhsMax =   1.56553685293215E-09  1.34759944783000E-02
 cg2d: Sum(rhs),rhsMax =   1.56562367237267E-09  1.34755247274406E-02
 cg2d: Sum(rhs),rhsMax =   1.56571135223604E-09  1.34750564530592E-02
 cg2d: Sum(rhs),rhsMax =   1.56582050103715E-09  1.34745896308952E-02
 cg2d: Sum(rhs),rhsMax =   1.56592672162503E-09  1.34741242337812E-02
 cg2d: Sum(rhs),rhsMax =   1.56603888190610E-09  1.34736602244886E-02
 cg2d: Sum(rhs),rhsMax =   1.56613587376508E-09  1.34731975523871E-02
 cg2d: Sum(rhs),rhsMax =   1.56623840286141E-09  1.34727361702308E-02
 cg2d: Sum(rhs),rhsMax =   1.56633518655358E-09  1.34722760263645E-02
 cg2d: Sum(rhs),rhsMax =   1.56643441273641E-09  1.34718170616047E-02
 cg2d: Sum(rhs),rhsMax =   1.56653259808515E-09  1.34713592156205E-02
 cg2d: Sum(rhs),rhsMax =   1.56662223471660E-09  1.34709024220073E-02
 cg2d: Sum(rhs),rhsMax =   1.56671936535346E-09  1.34704466104119E-02
 cg2d: Sum(rhs),rhsMax =   1.56683153951231E-09  1.34699917025759E-02
 cg2d: Sum(rhs),rhsMax =   1.56692865627139E-09  1.34695376223816E-02
 cg2d: Sum(rhs),rhsMax =   1.56702675835341E-09  1.34690842878150E-02
 cg2d: Sum(rhs),rhsMax =   1.56711300880463E-09  1.34686316161646E-02
 cg2d: Sum(rhs),rhsMax =   1.56720400545929E-09  1.34681795216073E-02
 cg2d: Sum(rhs),rhsMax =   1.56729976219516E-09  1.34677279170883E-02
 cg2d: Sum(rhs),rhsMax =   1.56739035639397E-09  1.34672767132613E-02
 cg2d: Sum(rhs),rhsMax =   1.56749258017896E-09  1.34668258226283E-02
 cg2d: Sum(rhs),rhsMax =   1.56759090430558E-09  1.34663751565561E-02
 cg2d: Sum(rhs),rhsMax =   1.56768797943130E-09  1.34659246263247E-02
 cg2d: Sum(rhs),rhsMax =   1.56779715598798E-09  1.34654741431994E-02
 cg2d: Sum(rhs),rhsMax =   1.56789362049103E-09  1.34650236209648E-02
 cg2d: Sum(rhs),rhsMax =   1.56798789230361E-09  1.34645729718701E-02
 cg2d: Sum(rhs),rhsMax =   1.56808742379777E-09  1.34641221127172E-02
 cg2d: Sum(rhs),rhsMax =   1.56818655283608E-09  1.34636709594485E-02
 cg2d: Sum(rhs),rhsMax =   1.56829332853547E-09  1.34632194328718E-02
 cg2d: Sum(rhs),rhsMax =   1.56838496356837E-09  1.34627674524147E-02
 cg2d: Sum(rhs),rhsMax =   1.56847458632203E-09  1.34623149446986E-02
 cg2d: Sum(rhs),rhsMax =   1.56855699262604E-09  1.34618618354669E-02
 cg2d: Sum(rhs),rhsMax =   1.56865838374376E-09  1.34614080553823E-02
 cg2d: Sum(rhs),rhsMax =   1.56875627765896E-09  1.34609535391647E-02
 cg2d: Sum(rhs),rhsMax =   1.56884544244562E-09  1.34604982238460E-02
 cg2d: Sum(rhs),rhsMax =   1.56894980340994E-09  1.34600420518721E-02
 cg2d: Sum(rhs),rhsMax =   1.56903821879606E-09  1.34595849995437E-02
 cg2d: Sum(rhs),rhsMax =   1.56912410842480E-09  1.34591270286141E-02
 cg2d: Sum(rhs),rhsMax =   1.56922258520709E-09  1.34586680935431E-02
 cg2d: Sum(rhs),rhsMax =   1.56932629391537E-09  1.34582081527329E-02
 cg2d: Sum(rhs),rhsMax =   1.56940845041920E-09  1.34577471695395E-02
 cg2d: Sum(rhs),rhsMax =   1.56950676066803E-09  1.34572851096198E-02
 cg2d: Sum(rhs),rhsMax =   1.56960772157433E-09  1.34568219481528E-02
 cg2d: Sum(rhs),rhsMax =   1.56969889864023E-09  1.34563576584220E-02
 cg2d: Sum(rhs),rhsMax =   1.56978771648220E-09  1.34558922226322E-02
 cg2d: Sum(rhs),rhsMax =   1.56987053911983E-09  1.34554256248877E-02
 cg2d: Sum(rhs),rhsMax =   1.56997098654799E-09  1.34549578557842E-02
 cg2d: Sum(rhs),rhsMax =   1.57007570833478E-09  1.34544889090473E-02
 cg2d: Sum(rhs),rhsMax =   1.57018420487987E-09  1.34540187822591E-02
 cg2d: Sum(rhs),rhsMax =   1.57028928748915E-09  1.34535474798216E-02
 cg2d: Sum(rhs),rhsMax =   1.57040411230547E-09  1.34530750076238E-02
 cg2d: Sum(rhs),rhsMax =   1.57051183169443E-09  1.34526013778673E-02
 cg2d: Sum(rhs),rhsMax =   1.57061530448033E-09  1.34521266050767E-02
 cg2d: Sum(rhs),rhsMax =   1.57072499451516E-09  1.34516507106129E-02
 cg2d: Sum(rhs),rhsMax =   1.57083439311645E-09  1.34511737167908E-02
 cg2d: Sum(rhs),rhsMax =   1.57092588937147E-09  1.34506956509535E-02
 cg2d: Sum(rhs),rhsMax =   1.57103921538670E-09  1.34502165443990E-02
 cg2d: Sum(rhs),rhsMax =   1.57115469245905E-09  1.34497364334416E-02
 cg2d: Sum(rhs),rhsMax =   1.57126343880432E-09  1.34492553548110E-02
 cg2d: Sum(rhs),rhsMax =   1.57136562095594E-09  1.34487733505851E-02
 cg2d: Sum(rhs),rhsMax =   1.57148204171786E-09  1.34482904664957E-02
 cg2d: Sum(rhs),rhsMax =   1.57158980274019E-09  1.34478067514862E-02
 cg2d: Sum(rhs),rhsMax =   1.57171450854143E-09  1.34473222561318E-02
 cg2d: Sum(rhs),rhsMax =   1.57181979931753E-09  1.34468370346122E-02
 cg2d: Sum(rhs),rhsMax =   1.57191197558415E-09  1.34463511454385E-02
 cg2d: Sum(rhs),rhsMax =   1.57202334483131E-09  1.34458646487136E-02
 cg2d: Sum(rhs),rhsMax =   1.57212559637188E-09  1.34453776067797E-02
 cg2d: Sum(rhs),rhsMax =   1.57222848629068E-09  1.34448900850726E-02
 cg2d: Sum(rhs),rhsMax =   1.57232055153500E-09  1.34444021516984E-02
 cg2d: Sum(rhs),rhsMax =   1.57242771581245E-09  1.34439138776591E-02
 cg2d: Sum(rhs),rhsMax =   1.57253435273397E-09  1.34434253345064E-02
 cg2d: Sum(rhs),rhsMax =   1.57261645372664E-09  1.34429365990081E-02
 cg2d: Sum(rhs),rhsMax =   1.57272828094079E-09  1.34424477457471E-02
 cg2d: Sum(rhs),rhsMax =   1.57283204516023E-09  1.34419588536898E-02
 cg2d: Sum(rhs),rhsMax =   1.57293796043678E-09  1.34414700044931E-02
 cg2d: Sum(rhs),rhsMax =   1.57303881032078E-09  1.34409812798103E-02
 cg2d: Sum(rhs),rhsMax =   1.57315389881507E-09  1.34404927630007E-02
 cg2d: Sum(rhs),rhsMax =   1.57326338068309E-09  1.34400045411646E-02
 cg2d: Sum(rhs),rhsMax =   1.57336220441007E-09  1.34395167009702E-02
 cg2d: Sum(rhs),rhsMax =   1.57346730089714E-09  1.34390293313478E-02
 cg2d: Sum(rhs),rhsMax =   1.57357560315319E-09  1.34385425212955E-02
 cg2d: Sum(rhs),rhsMax =   1.57367933961705E-09  1.34380563632990E-02
 cg2d: Sum(rhs),rhsMax =   1.57379034804173E-09  1.34375709480616E-02
 cg2d: Sum(rhs),rhsMax =   1.57389332122726E-09  1.34370863725832E-02
 cg2d: Sum(rhs),rhsMax =   1.57399622502385E-09  1.34366027268771E-02
 cg2d: Sum(rhs),rhsMax =   1.57410312562334E-09  1.34361201074214E-02
 cg2d: Sum(rhs),rhsMax =   1.57420579349754E-09  1.34356386124844E-02
 cg2d: Sum(rhs),rhsMax =   1.57430586622542E-09  1.34351583374445E-02
 cg2d: Sum(rhs),rhsMax =   1.57441104597922E-09  1.34346793775054E-02
 cg2d: Sum(rhs),rhsMax =   1.57451109095152E-09  1.34342018316913E-02
 cg2d: Sum(rhs),rhsMax =   1.57459470462307E-09  1.34337257969326E-02
 cg2d: Sum(rhs),rhsMax =   1.57471372053131E-09  1.34332513714674E-02
 cg2d: Sum(rhs),rhsMax =   1.57480960216727E-09  1.34327786514048E-02
 cg2d: Sum(rhs),rhsMax =   1.57491739094517E-09  1.34323077360386E-02
 cg2d: Sum(rhs),rhsMax =   1.57503540765269E-09  1.34318387203062E-02
 cg2d: Sum(rhs),rhsMax =   1.57514418175353E-09  1.34313716999485E-02
 cg2d: Sum(rhs),rhsMax =   1.57526881816583E-09  1.34309067721582E-02
 cg2d: Sum(rhs),rhsMax =   1.57538473932739E-09  1.34304440283965E-02
 cg2d: Sum(rhs),rhsMax =   1.57547991319618E-09  1.34299835635035E-02
 cg2d: Sum(rhs),rhsMax =   1.57557437929778E-09  1.34295254672739E-02
 cg2d: Sum(rhs),rhsMax =   1.57568202929781E-09  1.34290698311664E-02
 cg2d: Sum(rhs),rhsMax =   1.57577932646813E-09  1.34286167407005E-02
 cg2d: Sum(rhs),rhsMax =   1.57588062044134E-09  1.34282222532552E-02
 cg2d: Sum(rhs),rhsMax =   1.57595235472652E-09  1.34278566557076E-02
 cg2d: Sum(rhs),rhsMax =   1.57604400363720E-09  1.34274932945205E-02
 cg2d: Sum(rhs),rhsMax =   1.57612609075208E-09  1.34271314555667E-02
 cg2d: Sum(rhs),rhsMax =   1.57619828300426E-09  1.34267713191194E-02
 cg2d: Sum(rhs),rhsMax =   1.57628302077661E-09  1.34264126471504E-02
 cg2d: Sum(rhs),rhsMax =   1.57639065689885E-09  1.34260551627079E-02
 cg2d: Sum(rhs),rhsMax =   1.57646422305202E-09  1.34256986024407E-02
 cg2d: Sum(rhs),rhsMax =   1.57653609611508E-09  1.34253427049025E-02
 cg2d: Sum(rhs),rhsMax =   1.57665448752287E-09  1.34249872166720E-02
 cg2d: Sum(rhs),rhsMax =   1.57673724077156E-09  1.34246318879169E-02
 cg2d: Sum(rhs),rhsMax =   1.57682167323259E-09  1.34242764803030E-02
 cg2d: Sum(rhs),rhsMax =   1.57691451563302E-09  1.34239207588711E-02
 cg2d: Sum(rhs),rhsMax =   1.57698075431423E-09  1.34235644971067E-02
 cg2d: Sum(rhs),rhsMax =   1.57706818437742E-09  1.34232074810168E-02
 cg2d: Sum(rhs),rhsMax =   1.57717172655225E-09  1.34228495009483E-02
 cg2d: Sum(rhs),rhsMax =   1.57724332205955E-09  1.34224903596668E-02
 cg2d: Sum(rhs),rhsMax =   1.57734442174373E-09  1.34221298700993E-02
 cg2d: Sum(rhs),rhsMax =   1.57743232365171E-09  1.34217678541680E-02
 cg2d: Sum(rhs),rhsMax =   1.57751676999052E-09  1.34214041468551E-02
 cg2d: Sum(rhs),rhsMax =   1.57762043706544E-09  1.34210385933794E-02
 cg2d: Sum(rhs),rhsMax =   1.57770779773969E-09  1.34206710490992E-02
 cg2d: Sum(rhs),rhsMax =   1.57779220244514E-09  1.34203013848058E-02
 cg2d: Sum(rhs),rhsMax =   1.57787247156982E-09  1.34199294804517E-02
 cg2d: Sum(rhs),rhsMax =   1.57796659072673E-09  1.34195552277102E-02
 cg2d: Sum(rhs),rhsMax =   1.57804844191922E-09  1.34191785309185E-02
 cg2d: Sum(rhs),rhsMax =   1.57814883383622E-09  1.34187993104118E-02
 cg2d: Sum(rhs),rhsMax =   1.57823576429905E-09  1.34184174906005E-02
 cg2d: Sum(rhs),rhsMax =   1.57831761549154E-09  1.34180330172312E-02
 cg2d: Sum(rhs),rhsMax =   1.57841165138173E-09  1.34176458406465E-02
 cg2d: Sum(rhs),rhsMax =   1.57850368887047E-09  1.34172559289667E-02
 Computing Diagnostic #    26 "THETA   " (list#  1) Parms "SMR     MR      ", Count=     144
 Computing Diagnostic #    27 "SALT    " (list#  1) Parms "SMR     MR      ", Count=     144
 Computing Diagnostic #    30 "UVEL    " (list#  1) Parms "UUR     MR      ", Count=     144
             Vector  Mate for "UVEL    " :  Diagnostic #     31 "VVEL    " exists
 Computing Diagnostic #    32 "WVEL    " (list#  1) Parms "WM      LR      ", Count=     144
 Computing Diagnostic #    31 "VVEL    " (list#  1) Parms "VVR     MR      ", Count=     144
             Vector  Mate for "VVEL    " :  Diagnostic #     30 "UVEL    " exists
 Computing Diagnostic #   197 "BRGfwFlx" (list#  2) Parms "SM      MR      ", Count=     144
 Computing Diagnostic #   198 "BRGhtFlx" (list#  2) Parms "SM      MR      ", Count=     144
 Computing Diagnostic #   199 "BRGmltRt" (list#  2) Parms "SM      MR      ", Count=     144
 Computing Diagnostic #   201 "BRG_TauX" (list#  2) Parms "UU      MR      ", Count=    1728
 Computing Diagnostic #   202 "BRG_TauY" (list#  2) Parms "VV      MR      ", Count=    1728
 Computing Diagnostic #   203 "BRGhFacC" (list#  2) Parms "SM      MR      ", Count=    1728
 cg2d: Sum(rhs),rhsMax =   1.57859378346892E-09  1.34168632583761E-02
 cg2d: Sum(rhs),rhsMax =   1.57868870753752E-09  1.34164678172122E-02
 cg2d: Sum(rhs),rhsMax =   1.57877250162031E-09  1.34160696064735E-02
 cg2d: Sum(rhs),rhsMax =   1.57885587936946E-09  1.34156686374583E-02
 cg2d: Sum(rhs),rhsMax =   1.57894378127743E-09  1.34152649311566E-02
 cg2d: Sum(rhs),rhsMax =   1.57904825326405E-09  1.34148585230778E-02
 cg2d: Sum(rhs),rhsMax =   1.57913354614792E-09  1.34144494536139E-02
 cg2d: Sum(rhs),rhsMax =   1.57923257804171E-09  1.34140377752056E-02
 cg2d: Sum(rhs),rhsMax =   1.57931784317000E-09  1.34136235498502E-02
 cg2d: Sum(rhs),rhsMax =   1.57941024148123E-09  1.34132068496631E-02
 cg2d: Sum(rhs),rhsMax =   1.57950974521981E-09  1.34127877532511E-02
 cg2d: Sum(rhs),rhsMax =   1.57959240132399E-09  1.34123663479903E-02
 cg2d: Sum(rhs),rhsMax =   1.57969876068975E-09  1.34119427266397E-02
 cg2d: Sum(rhs),rhsMax =   1.57979987425172E-09  1.34115169950270E-02
 cg2d: Sum(rhs),rhsMax =   1.57989152316240E-09  1.34110892597750E-02
 cg2d: Sum(rhs),rhsMax =   1.57997731564663E-09  1.34106596361780E-02
 cg2d: Sum(rhs),rhsMax =   1.58007135153682E-09  1.34102282446807E-02
 cg2d: Sum(rhs),rhsMax =   1.58016535967143E-09  1.34097952113090E-02
 cg2d: Sum(rhs),rhsMax =   1.58026711161163E-09  1.34093606657285E-02
 cg2d: Sum(rhs),rhsMax =   1.58035218245089E-09  1.34089247412870E-02
 cg2d: Sum(rhs),rhsMax =   1.58045682097097E-09  1.34084875782844E-02
 cg2d: Sum(rhs),rhsMax =   1.58056423504860E-09  1.34080493161158E-02
 cg2d: Sum(rhs),rhsMax =   1.58066032485138E-09  1.34076101001934E-02
 cg2d: Sum(rhs),rhsMax =   1.58077073653118E-09  1.34071700745037E-02
 cg2d: Sum(rhs),rhsMax =   1.58084956236593E-09  1.34067293879564E-02
 cg2d: Sum(rhs),rhsMax =   1.58095828095561E-09  1.34062881886809E-02
 cg2d: Sum(rhs),rhsMax =   1.58106117087442E-09  1.34058466277207E-02
 cg2d: Sum(rhs),rhsMax =   1.58117408055602E-09  1.34054048520277E-02
 cg2d: Sum(rhs),rhsMax =   1.58126278737569E-09  1.34049630136582E-02
 cg2d: Sum(rhs),rhsMax =   1.58137183903229E-09  1.34045212620732E-02
 cg2d: Sum(rhs),rhsMax =   1.58147087092608E-09  1.34040797442468E-02
 cg2d: Sum(rhs),rhsMax =   1.58155868956733E-09  1.34036386074705E-02
 cg2d: Sum(rhs),rhsMax =   1.58167057229264E-09  1.34031979970615E-02
 cg2d: Sum(rhs),rhsMax =   1.58175597619881E-09  1.34027580562796E-02
 cg2d: Sum(rhs),rhsMax =   1.58186291843165E-09  1.34023189263846E-02
 cg2d: Sum(rhs),rhsMax =   1.58195875843425E-09  1.34018807443952E-02
 cg2d: Sum(rhs),rhsMax =   1.58206234224245E-09  1.34014436458120E-02
 cg2d: Sum(rhs),rhsMax =   1.58215354706392E-09  1.34010077612838E-02
 cg2d: Sum(rhs),rhsMax =   1.58225998969641E-09  1.34005732216123E-02
 cg2d: Sum(rhs),rhsMax =   1.58234653158118E-09  1.34001401473413E-02
 cg2d: Sum(rhs),rhsMax =   1.58242721703949E-09  1.33997086620908E-02
 cg2d: Sum(rhs),rhsMax =   1.58253488091731E-09  1.33992788777848E-02
 cg2d: Sum(rhs),rhsMax =   1.58263163685390E-09  1.33988509103478E-02
 cg2d: Sum(rhs),rhsMax =   1.58272181471908E-09  1.33984248626336E-02
 cg2d: Sum(rhs),rhsMax =   1.58282814632926E-09  1.33980008389116E-02
 cg2d: Sum(rhs),rhsMax =   1.58293442242829E-09  1.33975789348029E-02
 cg2d: Sum(rhs),rhsMax =   1.58305585307161E-09  1.33971592425594E-02
 cg2d: Sum(rhs),rhsMax =   1.58316604270681E-09  1.33967418480332E-02
 cg2d: Sum(rhs),rhsMax =   1.58326571297884E-09  1.33963268323923E-02
 cg2d: Sum(rhs),rhsMax =   1.58335741740068E-09  1.33959142702221E-02
 cg2d: Sum(rhs),rhsMax =   1.58345481171551E-09  1.33955042339088E-02
 cg2d: Sum(rhs),rhsMax =   1.58355470403215E-09  1.33950967844970E-02
 cg2d: Sum(rhs),rhsMax =   1.58365409674843E-09  1.33946919838915E-02
 cg2d: Sum(rhs),rhsMax =   1.58374635628178E-09  1.33942898844181E-02
 cg2d: Sum(rhs),rhsMax =   1.58384683146551E-09  1.33938905326138E-02
 cg2d: Sum(rhs),rhsMax =   1.58394966587316E-09  1.33934939704368E-02
 cg2d: Sum(rhs),rhsMax =   1.58404381278565E-09  1.33931002348134E-02
 cg2d: Sum(rhs),rhsMax =   1.58414906192839E-09  1.33927093542874E-02
 cg2d: Sum(rhs),rhsMax =   1.58424257046264E-09  1.33923213529433E-02
 cg2d: Sum(rhs),rhsMax =   1.58432306163192E-09  1.33919362509226E-02
 cg2d: Sum(rhs),rhsMax =   1.58442867159714E-09  1.33915540607257E-02
 cg2d: Sum(rhs),rhsMax =   1.58453114518231E-09  1.33911747884541E-02
 cg2d: Sum(rhs),rhsMax =   1.58462171162554E-09  1.33907984387107E-02
 cg2d: Sum(rhs),rhsMax =   1.58472188149794E-09  1.33904250044810E-02
 cg2d: Sum(rhs),rhsMax =   1.58480328860122E-09  1.33900544801160E-02
 cg2d: Sum(rhs),rhsMax =   1.58490193191696E-09  1.33896868467541E-02
 cg2d: Sum(rhs),rhsMax =   1.58500215730051E-09  1.33893220882094E-02
 cg2d: Sum(rhs),rhsMax =   1.58509594339051E-09  1.33889601777641E-02
 cg2d: Sum(rhs),rhsMax =   1.58517576842598E-09  1.33886010841180E-02
 cg2d: Sum(rhs),rhsMax =   1.58525606530624E-09  1.33882447725180E-02
 cg2d: Sum(rhs),rhsMax =   1.58535198857557E-09  1.33878912034470E-02
 cg2d: Sum(rhs),rhsMax =   1.58543270178946E-09  1.33875403303193E-02
 cg2d: Sum(rhs),rhsMax =   1.58553528639693E-09  1.33871921029325E-02
 cg2d: Sum(rhs),rhsMax =   1.58561866414608E-09  1.33868464659796E-02
 cg2d: Sum(rhs),rhsMax =   1.58569410380061E-09  1.33865033610326E-02
 cg2d: Sum(rhs),rhsMax =   1.58580515385864E-09  1.33861627238466E-02
 cg2d: Sum(rhs),rhsMax =   1.58588642218405E-09  1.33858244859269E-02
 cg2d: Sum(rhs),rhsMax =   1.58597204813482E-09  1.33854885752229E-02
 cg2d: Sum(rhs),rhsMax =   1.58605720224081E-09  1.33851549152971E-02
 cg2d: Sum(rhs),rhsMax =   1.58614521517109E-09  1.33848234247230E-02
 cg2d: Sum(rhs),rhsMax =   1.58623719714868E-09  1.33844940198202E-02
 cg2d: Sum(rhs),rhsMax =   1.58631954794153E-09  1.33841666128472E-02
 cg2d: Sum(rhs),rhsMax =   1.58639579250774E-09  1.33838411142584E-02
 cg2d: Sum(rhs),rhsMax =   1.58646071279911E-09  1.33835174264331E-02
 cg2d: Sum(rhs),rhsMax =   1.58655816262510E-09  1.33831954527568E-02
 cg2d: Sum(rhs),rhsMax =   1.58666155214426E-09  1.33828750925408E-02
 cg2d: Sum(rhs),rhsMax =   1.58674873240727E-09  1.33825562433071E-02
 cg2d: Sum(rhs),rhsMax =   1.58684571038847E-09  1.33822387972350E-02
 cg2d: Sum(rhs),rhsMax =   1.58693416740796E-09  1.33819226443423E-02
 cg2d: Sum(rhs),rhsMax =   1.58700574903747E-09  1.33816076773902E-02
 cg2d: Sum(rhs),rhsMax =   1.58709184683303E-09  1.33812937816798E-02
 cg2d: Sum(rhs),rhsMax =   1.58716428888539E-09  1.33809808396815E-02
 cg2d: Sum(rhs),rhsMax =   1.58722063270389E-09  1.33806687379416E-02
 cg2d: Sum(rhs),rhsMax =   1.58730981136834E-09  1.33803573574216E-02
 cg2d: Sum(rhs),rhsMax =   1.58740878775099E-09  1.33800465765850E-02
 cg2d: Sum(rhs),rhsMax =   1.58749130507729E-09  1.33797362772856E-02
 cg2d: Sum(rhs),rhsMax =   1.58757204604676E-09  1.33794263350663E-02
 cg2d: Sum(rhs),rhsMax =   1.58767834990137E-09  1.33791166312135E-02
 cg2d: Sum(rhs),rhsMax =   1.58777344050343E-09  1.33788070405952E-02
 cg2d: Sum(rhs),rhsMax =   1.58784455028815E-09  1.33784974402256E-02
 cg2d: Sum(rhs),rhsMax =   1.58792837212651E-09  1.33781877108335E-02
 cg2d: Sum(rhs),rhsMax =   1.58801174987566E-09  1.33778777225410E-02
 cg2d: Sum(rhs),rhsMax =   1.58808999284332E-09  1.33775673574033E-02
 cg2d: Sum(rhs),rhsMax =   1.58818228013224E-09  1.33772564981294E-02
 cg2d: Sum(rhs),rhsMax =   1.58826701790460E-09  1.33769450205562E-02
 cg2d: Sum(rhs),rhsMax =   1.58833735053321E-09  1.33766328065140E-02
 cg2d: Sum(rhs),rhsMax =   1.58843732611658E-09  1.33763197361902E-02
 cg2d: Sum(rhs),rhsMax =   1.58852150877742E-09  1.33760056959945E-02
 cg2d: Sum(rhs),rhsMax =   1.58861857002535E-09  1.33756905687798E-02
 cg2d: Sum(rhs),rhsMax =   1.58869359334624E-09  1.33753742425843E-02
 cg2d: Sum(rhs),rhsMax =   1.58878046829791E-09  1.33750566050980E-02
 cg2d: Sum(rhs),rhsMax =   1.58886254153501E-09  1.33747375491982E-02
 cg2d: Sum(rhs),rhsMax =   1.58896010238330E-09  1.33744169674743E-02
 cg2d: Sum(rhs),rhsMax =   1.58904264746518E-09  1.33740947562322E-02
 cg2d: Sum(rhs),rhsMax =   1.58914545411726E-09  1.33737708121399E-02
 cg2d: Sum(rhs),rhsMax =   1.58921292792158E-09  1.33734450389894E-02
 cg2d: Sum(rhs),rhsMax =   1.58930688054504E-09  1.33731173444440E-02
 cg2d: Sum(rhs),rhsMax =   1.58938584515766E-09  1.33727876362541E-02
 cg2d: Sum(rhs),rhsMax =   1.58946589223774E-09  1.33724558264095E-02
 cg2d: Sum(rhs),rhsMax =   1.58955248963366E-09  1.33721218329586E-02
 cg2d: Sum(rhs),rhsMax =   1.58964177932042E-09  1.33717855767037E-02
 cg2d: Sum(rhs),rhsMax =   1.58972443542460E-09  1.33714469857259E-02
 cg2d: Sum(rhs),rhsMax =   1.58980492659389E-09  1.33711059860719E-02
 cg2d: Sum(rhs),rhsMax =   1.58989751919414E-09  1.33707625146306E-02
 cg2d: Sum(rhs),rhsMax =   1.58997287558194E-09  1.33704165096371E-02
 cg2d: Sum(rhs),rhsMax =   1.59006449673704E-09  1.33700679163690E-02
 cg2d: Sum(rhs),rhsMax =   1.59014701406335E-09  1.33697166820252E-02
 cg2d: Sum(rhs),rhsMax =   1.59023125223534E-09  1.33693627617235E-02
 cg2d: Sum(rhs),rhsMax =   1.59033489155469E-09  1.33690061148879E-02
 cg2d: Sum(rhs),rhsMax =   1.59043506142709E-09  1.33686467056004E-02
 cg2d: Sum(rhs),rhsMax =   1.59051835590951E-09  1.33682845032445E-02
 cg2d: Sum(rhs),rhsMax =   1.59062177318425E-09  1.33679194831964E-02
 cg2d: Sum(rhs),rhsMax =   1.59069518668176E-09  1.33675516254180E-02
 cg2d: Sum(rhs),rhsMax =   1.59077681582964E-09  1.33671809166791E-02
 cg2d: Sum(rhs),rhsMax =   1.59085697393202E-09  1.33668073471409E-02
 cg2d: Sum(rhs),rhsMax =   1.59095281393462E-09  1.33664309134912E-02
 cg2d: Sum(rhs),rhsMax =   1.59104993069370E-09  1.33660516199863E-02
 cg2d: Sum(rhs),rhsMax =   1.59115554065892E-09  1.33656694749341E-02
 cg2d: Sum(rhs),rhsMax =   1.59125385090775E-09  1.33652844893121E-02
 cg2d: Sum(rhs),rhsMax =   1.59134722066412E-09  1.33648966849429E-02
 cg2d: Sum(rhs),rhsMax =   1.59144672440270E-09  1.33645060845536E-02
 cg2d: Sum(rhs),rhsMax =   1.59154101009307E-09  1.33641127175698E-02
 cg2d: Sum(rhs),rhsMax =   1.59164720292537E-09  1.33637166222470E-02
 cg2d: Sum(rhs),rhsMax =   1.59175270186829E-09  1.33633178358917E-02
 Computing Diagnostic #    26 "THETA   " (list#  1) Parms "SMR     MR      ", Count=     144
 Computing Diagnostic #    27 "SALT    " (list#  1) Parms "SMR     MR      ", Count=     144
 Computing Diagnostic #    30 "UVEL    " (list#  1) Parms "UUR     MR      ", Count=     144
             Vector  Mate for "UVEL    " :  Diagnostic #     31 "VVEL    " exists
 Computing Diagnostic #    32 "WVEL    " (list#  1) Parms "WM      LR      ", Count=     144
 Computing Diagnostic #    31 "VVEL    " (list#  1) Parms "VVR     MR      ", Count=     144
             Vector  Mate for "VVEL    " :  Diagnostic #     30 "UVEL    " exists
 Computing Diagnostic #   197 "BRGfwFlx" (list#  2) Parms "SM      MR      ", Count=     144
 Computing Diagnostic #   198 "BRGhtFlx" (list#  2) Parms "SM      MR      ", Count=     144
 Computing Diagnostic #   199 "BRGmltRt" (list#  2) Parms "SM      MR      ", Count=     144
 Computing Diagnostic #   201 "BRG_TauX" (list#  2) Parms "UU      MR      ", Count=    1728
 Computing Diagnostic #   202 "BRG_TauY" (list#  2) Parms "VV      MR      ", Count=    1728
 Computing Diagnostic #   203 "BRGhFacC" (list#  2) Parms "SM      MR      ", Count=    1728
 cg2d: Sum(rhs),rhsMax =   1.59184346260055E-09  1.33629164049617E-02
 cg2d: Sum(rhs),rhsMax =   1.59193444537742E-09  1.33625123780413E-02
 cg2d: Sum(rhs),rhsMax =   1.59202362404187E-09  1.33621058116990E-02
 cg2d: Sum(rhs),rhsMax =   1.59211913097757E-09  1.33616967648946E-02
 cg2d: Sum(rhs),rhsMax =   1.59222068862874E-09  1.33612852998310E-02
 cg2d: Sum(rhs),rhsMax =   1.59232291241374E-09  1.33608714874841E-02
 cg2d: Sum(rhs),rhsMax =   1.59241261843412E-09  1.33604553981315E-02
 cg2d: Sum(rhs),rhsMax =   1.59249136100215E-09  1.33600371081937E-02
 cg2d: Sum(rhs),rhsMax =   1.59258942145080E-09  1.33596166966980E-02
 cg2d: Sum(rhs),rhsMax =   1.59267957156040E-09  1.33591942480154E-02
 cg2d: Sum(rhs),rhsMax =   1.59278953915098E-09  1.33587698481677E-02
 cg2d: Sum(rhs),rhsMax =   1.59289198498058E-09  1.33583435869638E-02
 cg2d: Sum(rhs),rhsMax =   1.59298310653533E-09  1.33579155554305E-02
 cg2d: Sum(rhs),rhsMax =   1.59308022329441E-09  1.33574858476735E-02
 cg2d: Sum(rhs),rhsMax =   1.59318494508121E-09  1.33570545633966E-02
 cg2d: Sum(rhs),rhsMax =   1.59328616966548E-09  1.33566217987109E-02
 cg2d: Sum(rhs),rhsMax =   1.59338742200532E-09  1.33561876548442E-02
 cg2d: Sum(rhs),rhsMax =   1.59348662043257E-09  1.33557522344189E-02
 cg2d: Sum(rhs),rhsMax =   1.59359847540230E-09  1.33553156408747E-02
 cg2d: Sum(rhs),rhsMax =   1.59370255881086E-09  1.33548779771130E-02
 cg2d: Sum(rhs),rhsMax =   1.59379875963594E-09  1.33544393484922E-02
 cg2d: Sum(rhs),rhsMax =   1.59390714515872E-09  1.33539998620323E-02
 cg2d: Sum(rhs),rhsMax =   1.59400259658327E-09  1.33535596206580E-02
 cg2d: Sum(rhs),rhsMax =   1.59408569677666E-09  1.33531187326976E-02
 cg2d: Sum(rhs),rhsMax =   1.59417742895407E-09  1.33526773012582E-02
 cg2d: Sum(rhs),rhsMax =   1.59427313017879E-09  1.33522354315325E-02
 cg2d: Sum(rhs),rhsMax =   1.59438132141254E-09  1.33517932279651E-02
 cg2d: Sum(rhs),rhsMax =   1.59449795034128E-09  1.33513507925509E-02
 cg2d: Sum(rhs),rhsMax =   1.59460811222090E-09  1.33509082288967E-02
 cg2d: Sum(rhs),rhsMax =   1.59469357163822E-09  1.33504656357555E-02
 cg2d: Sum(rhs),rhsMax =   1.59478202865770E-09  1.33500231101815E-02
 cg2d: Sum(rhs),rhsMax =   1.59487872908315E-09  1.33495807537017E-02
 cg2d: Sum(rhs),rhsMax =   1.59496588159058E-09  1.33491386569502E-02
 cg2d: Sum(rhs),rhsMax =   1.59506483021765E-09  1.33486969133829E-02
 cg2d: Sum(rhs),rhsMax =   1.59517082876093E-09  1.33482556139806E-02
 cg2d: Sum(rhs),rhsMax =   1.59527027698836E-09  1.33478148460924E-02
 cg2d: Sum(rhs),rhsMax =   1.59536389654491E-09  1.33473746948397E-02
 cg2d: Sum(rhs),rhsMax =   1.59545596178923E-09  1.33469352427589E-02
 cg2d: Sum(rhs),rhsMax =   1.59553473211282E-09  1.33464965696584E-02
 cg2d: Sum(rhs),rhsMax =   1.59563143253827E-09  1.33460587504959E-02
 cg2d: Sum(rhs),rhsMax =   1.59573065872110E-09  1.33456218611176E-02
 cg2d: Sum(rhs),rhsMax =   1.59584756520559E-09  1.33451859705060E-02
 cg2d: Sum(rhs),rhsMax =   1.59593674387004E-09  1.33447511455755E-02
 cg2d: Sum(rhs),rhsMax =   1.59603585903056E-09  1.33443174510776E-02
 cg2d: Sum(rhs),rhsMax =   1.59613633421429E-09  1.33438849491784E-02
 cg2d: Sum(rhs),rhsMax =   1.59622609574583E-09  1.33434536948369E-02
 cg2d: Sum(rhs),rhsMax =   1.59631605156640E-09  1.33430237432743E-02
 cg2d: Sum(rhs),rhsMax =   1.59640739516576E-09  1.33425951474599E-02
 cg2d: Sum(rhs),rhsMax =   1.59649302111653E-09  1.33421679511865E-02
 cg2d: Sum(rhs),rhsMax =   1.59660171195064E-09  1.33417422036891E-02
 cg2d: Sum(rhs),rhsMax =   1.59669472088453E-09  1.33413179427005E-02
 cg2d: Sum(rhs),rhsMax =   1.59679974798266E-09  1.33408952076248E-02
 cg2d: Sum(rhs),rhsMax =   1.59689228507176E-09  1.33404739441454E-02
 cg2d: Sum(rhs),rhsMax =   1.59698065882452E-09  1.33400535085947E-02
 cg2d: Sum(rhs),rhsMax =   1.59706819991001E-09  1.33396345679381E-02
 cg2d: Sum(rhs),rhsMax =   1.59716828651568E-09  1.33392165133198E-02
 cg2d: Sum(rhs),rhsMax =   1.59728086313038E-09  1.33387992329599E-02
 cg2d: Sum(rhs),rhsMax =   1.59737201244070E-09  1.33383827156149E-02
 cg2d: Sum(rhs),rhsMax =   1.59745727756899E-09  1.33379669786963E-02
 cg2d: Sum(rhs),rhsMax =   1.59756993745042E-09  1.33375520434968E-02
 cg2d: Sum(rhs),rhsMax =   1.59765695117997E-09  1.33371379326080E-02
 cg2d: Sum(rhs),rhsMax =   1.59774651842248E-09  1.33367246685343E-02
 cg2d: Sum(rhs),rhsMax =   1.59784924180784E-09  1.33363122797209E-02
 cg2d: Sum(rhs),rhsMax =   1.59794025234028E-09  1.33359007923564E-02
 cg2d: Sum(rhs),rhsMax =   1.59803870136699E-09  1.33354902390896E-02
 cg2d: Sum(rhs),rhsMax =   1.59813434708056E-09  1.33350806544059E-02
 cg2d: Sum(rhs),rhsMax =   1.59822136081011E-09  1.33346720747546E-02
 cg2d: Sum(rhs),rhsMax =   1.59834340207610E-09  1.33342645418928E-02
 cg2d: Sum(rhs),rhsMax =   1.59845844893702E-09  1.33338579792155E-02
 cg2d: Sum(rhs),rhsMax =   1.59854510184410E-09  1.33334522666338E-02
 cg2d: Sum(rhs),rhsMax =   1.59863700055496E-09  1.33330474479040E-02
 cg2d: Sum(rhs),rhsMax =   1.59873525529264E-09  1.33326435755391E-02
 cg2d: Sum(rhs),rhsMax =   1.59883178918463E-09  1.33322407017029E-02
 cg2d: Sum(rhs),rhsMax =   1.59891830331382E-09  1.33318388828018E-02
 cg2d: Sum(rhs),rhsMax =   1.59901689111841E-09  1.33314381768936E-02
 cg2d: Sum(rhs),rhsMax =   1.59911589525663E-09  1.33310386406806E-02
 cg2d: Sum(rhs),rhsMax =   1.59920462983187E-09  1.33306403359823E-02
 cg2d: Sum(rhs),rhsMax =   1.59929453014129E-09  1.33302433259392E-02
 cg2d: Sum(rhs),rhsMax =   1.59939400612430E-09  1.33298476745972E-02
 cg2d: Sum(rhs),rhsMax =   1.59948559952383E-09  1.33294534463096E-02
 cg2d: Sum(rhs),rhsMax =   1.59958365997248E-09  1.33290607067952E-02
 cg2d: Sum(rhs),rhsMax =   1.59968641111341E-09  1.33286695244663E-02
 cg2d: Sum(rhs),rhsMax =   1.59978996716603E-09  1.33282799624316E-02
 cg2d: Sum(rhs),rhsMax =   1.59988991499382E-09  1.33278920886031E-02
 cg2d: Sum(rhs),rhsMax =   1.59997548543345E-09  1.33275059716971E-02
 cg2d: Sum(rhs),rhsMax =   1.60008156724345E-09  1.33271216760282E-02
 cg2d: Sum(rhs),rhsMax =   1.60016097594529E-09  1.33267392654440E-02
 cg2d: Sum(rhs),rhsMax =   1.60026797368928E-09  1.33263588031875E-02
 cg2d: Sum(rhs),rhsMax =   1.60035085183807E-09  1.33259803509505E-02
 cg2d: Sum(rhs),rhsMax =   1.60043725494496E-09  1.33256039671686E-02
 cg2d: Sum(rhs),rhsMax =   1.60053137410188E-09  1.33252297096529E-02
 cg2d: Sum(rhs),rhsMax =   1.60061627840768E-09  1.33248576296699E-02
 cg2d: Sum(rhs),rhsMax =   1.60070684485092E-09  1.33244877805207E-02
 cg2d: Sum(rhs),rhsMax =   1.60079174915673E-09  1.33241202087672E-02
 cg2d: Sum(rhs),rhsMax =   1.60088037270967E-09  1.33237549553738E-02
 cg2d: Sum(rhs),rhsMax =   1.60096547130451E-09  1.33233920516464E-02
 cg2d: Sum(rhs),rhsMax =   1.60105032009916E-09  1.33230314707168E-02
 cg2d: Sum(rhs),rhsMax =   1.60114266289924E-09  1.33226732484581E-02
 cg2d: Sum(rhs),rhsMax =   1.60123866943529E-09  1.33223173156034E-02
 cg2d: Sum(rhs),rhsMax =   1.60132687665460E-09  1.33219636180015E-02
 cg2d: Sum(rhs),rhsMax =   1.60143207028618E-09  1.33216121301383E-02
 cg2d: Sum(rhs),rhsMax =   1.60151394923425E-09  1.33212628069772E-02
 cg2d: Sum(rhs),rhsMax =   1.60160243400931E-09  1.33209156017131E-02
 cg2d: Sum(rhs),rhsMax =   1.60170016139105E-09  1.33205704623235E-02
 cg2d: Sum(rhs),rhsMax =   1.60177690555763E-09  1.33202273376739E-02
 cg2d: Sum(rhs),rhsMax =   1.60186350295355E-09  1.33198861728688E-02
 cg2d: Sum(rhs),rhsMax =   1.60196345078134E-09  1.33195469105395E-02
 cg2d: Sum(rhs),rhsMax =   1.60205368415767E-09  1.33192094906967E-02
 cg2d: Sum(rhs),rhsMax =   1.60212995647946E-09  1.33188738519015E-02
 cg2d: Sum(rhs),rhsMax =   1.60220281486545E-09  1.33185399314892E-02
 cg2d: Sum(rhs),rhsMax =   1.60228383339067E-09  1.33182076624443E-02
 cg2d: Sum(rhs),rhsMax =   1.60236970914163E-09  1.33178769791313E-02
 cg2d: Sum(rhs),rhsMax =   1.60246066416292E-09  1.33175478098680E-02
 cg2d: Sum(rhs),rhsMax =   1.60253921244191E-09  1.33172200870945E-02
 cg2d: Sum(rhs),rhsMax =   1.60261709458709E-09  1.33168937371884E-02
 cg2d: Sum(rhs),rhsMax =   1.60271346194563E-09  1.33165686868611E-02
 cg2d: Sum(rhs),rhsMax =   1.60278781913270E-09  1.33162448611676E-02
 cg2d: Sum(rhs),rhsMax =   1.60288304851264E-09  1.33159221847966E-02
 cg2d: Sum(rhs),rhsMax =   1.60296895201917E-09  1.33156006366474E-02
 cg2d: Sum(rhs),rhsMax =   1.60305069218936E-09  1.33152833601526E-02
 cg2d: Sum(rhs),rhsMax =   1.60313515240595E-09  1.33149669579565E-02
 cg2d: Sum(rhs),rhsMax =   1.60322338738084E-09  1.33146512962024E-02
 cg2d: Sum(rhs),rhsMax =   1.60331709020411E-09  1.33143362624916E-02
 cg2d: Sum(rhs),rhsMax =   1.60338461951959E-09  1.33140217287378E-02
 cg2d: Sum(rhs),rhsMax =   1.60346477762197E-09  1.33137075704957E-02
 cg2d: Sum(rhs),rhsMax =   1.60355340117491E-09  1.33133936679238E-02
 cg2d: Sum(rhs),rhsMax =   1.60363589074564E-09  1.33130799006396E-02
 cg2d: Sum(rhs),rhsMax =   1.60373164748151E-09  1.33127661509448E-02
 cg2d: Sum(rhs),rhsMax =   1.60382021552330E-09  1.33124523026080E-02
 cg2d: Sum(rhs),rhsMax =   1.60390203896021E-09  1.33121382350273E-02
 cg2d: Sum(rhs),rhsMax =   1.60399421522683E-09  1.33118238371867E-02
 cg2d: Sum(rhs),rhsMax =   1.60406812832470E-09  1.33115089996589E-02
 cg2d: Sum(rhs),rhsMax =   1.60415936090175E-09  1.33111935947653E-02
 cg2d: Sum(rhs),rhsMax =   1.60425392414787E-09  1.33108775205563E-02
 cg2d: Sum(rhs),rhsMax =   1.60433810680871E-09  1.33105606770612E-02
 cg2d: Sum(rhs),rhsMax =   1.60443186514314E-09  1.33102429643394E-02
 cg2d: Sum(rhs),rhsMax =   1.60452656716714E-09  1.33099242868151E-02
 cg2d: Sum(rhs),rhsMax =   1.60462462761579E-09  1.33096045562190E-02
 cg2d: Sum(rhs),rhsMax =   1.60470450816241E-09  1.33092836888991E-02
 cg2d: Sum(rhs),rhsMax =   1.60479984856465E-09  1.33089616070182E-02
 cg2d: Sum(rhs),rhsMax =   1.60488172751272E-09  1.33086382369148E-02
 cg2d: Sum(rhs),rhsMax =   1.60495700063379E-09  1.33083135135562E-02
 cg2d: Sum(rhs),rhsMax =   1.60504784463278E-09  1.33079873737789E-02
 cg2d: Sum(rhs),rhsMax =   1.60514290747926E-09  1.33076597638181E-02
 Computing Diagnostic #    26 "THETA   " (list#  1) Parms "SMR     MR      ", Count=     144
 Computing Diagnostic #    27 "SALT    " (list#  1) Parms "SMR     MR      ", Count=     144
 Computing Diagnostic #    30 "UVEL    " (list#  1) Parms "UUR     MR      ", Count=     144
             Vector  Mate for "UVEL    " :  Diagnostic #     31 "VVEL    " exists
 Computing Diagnostic #    32 "WVEL    " (list#  1) Parms "WM      LR      ", Count=     144
 Computing Diagnostic #    31 "VVEL    " (list#  1) Parms "VVR     MR      ", Count=     144
             Vector  Mate for "VVEL    " :  Diagnostic #     30 "UVEL    " exists
 Computing Diagnostic #   197 "BRGfwFlx" (list#  2) Parms "SM      MR      ", Count=     144
 Computing Diagnostic #   198 "BRGhtFlx" (list#  2) Parms "SM      MR      ", Count=     144
 Computing Diagnostic #   199 "BRGmltRt" (list#  2) Parms "SM      MR      ", Count=     144
 Computing Diagnostic #   201 "BRG_TauX" (list#  2) Parms "UU      MR      ", Count=    1728
 Computing Diagnostic #   202 "BRG_TauY" (list#  2) Parms "VV      MR      ", Count=    1728
 Computing Diagnostic #   203 "BRGhFacC" (list#  2) Parms "SM      MR      ", Count=    1728
 cg2d: Sum(rhs),rhsMax =   1.60523919157107E-09  1.33073306351420E-02
 cg2d: Sum(rhs),rhsMax =   1.60530916337720E-09  1.33069999456950E-02
 cg2d: Sum(rhs),rhsMax =   1.60540625238070E-09  1.33066676558759E-02
 cg2d: Sum(rhs),rhsMax =   1.60549903926999E-09  1.33063337364281E-02
 cg2d: Sum(rhs),rhsMax =   1.60557794837146E-09  1.33059981621427E-02
 cg2d: Sum(rhs),rhsMax =   1.60565305495908E-09  1.33056609151867E-02
 cg2d: Sum(rhs),rhsMax =   1.60575486241044E-09  1.33053219810188E-02
 cg2d: Sum(rhs),rhsMax =   1.60585075792419E-09  1.33049813517624E-02
 cg2d: Sum(rhs),rhsMax =   1.60594851306151E-09  1.33046390267156E-02
 cg2d: Sum(rhs),rhsMax =   1.60601953957951E-09  1.33042950069923E-02
 cg2d: Sum(rhs),rhsMax =   1.60610205690581E-09  1.33039493038488E-02
 cg2d: Sum(rhs),rhsMax =   1.60618732203410E-09  1.33036019274498E-02
 cg2d: Sum(rhs),rhsMax =   1.60628596534984E-09  1.33032528968397E-02
 cg2d: Sum(rhs),rhsMax =   1.60637342316861E-09  1.33029022350646E-02
 cg2d: Sum(rhs),rhsMax =   1.60646318470015E-09  1.33025499668672E-02
 cg2d: Sum(rhs),rhsMax =   1.60657781522744E-09  1.33021961238052E-02
 cg2d: Sum(rhs),rhsMax =   1.60667965043437E-09  1.33018407395865E-02
 cg2d: Sum(rhs),rhsMax =   1.60677351979110E-09  1.33014838515104E-02
 cg2d: Sum(rhs),rhsMax =   1.60686075556526E-09  1.33011254855507E-02
 cg2d: Sum(rhs),rhsMax =   1.60695198814231E-09  1.33007656831100E-02
 cg2d: Sum(rhs),rhsMax =   1.60704158314040E-09  1.33004044874897E-02
 cg2d: Sum(rhs),rhsMax =   1.60712959607068E-09  1.33000419464228E-02
 cg2d: Sum(rhs),rhsMax =   1.60722440911698E-09  1.32996781070734E-02
 cg2d: Sum(rhs),rhsMax =   1.60731569720518E-09  1.32993130204793E-02
 cg2d: Sum(rhs),rhsMax =   1.60739901944318E-09  1.32989467381599E-02
 cg2d: Sum(rhs),rhsMax =   1.60748500621644E-09  1.32985793104498E-02
 cg2d: Sum(rhs),rhsMax =   1.60758339973199E-09  1.32982107900401E-02
 cg2d: Sum(rhs),rhsMax =   1.60768018342416E-09  1.32978412295945E-02
 cg2d: Sum(rhs),rhsMax =   1.60777538504853E-09  1.32974706785658E-02
 cg2d: Sum(rhs),rhsMax =   1.60786897684950E-09  1.32970991898194E-02
 cg2d: Sum(rhs),rhsMax =   1.60794810799558E-09  1.32967268133229E-02
 cg2d: Sum(rhs),rhsMax =   1.60803559356992E-09  1.32963535968085E-02
 cg2d: Sum(rhs),rhsMax =   1.60811783334047E-09  1.32959795875985E-02
 cg2d: Sum(rhs),rhsMax =   1.60821572725567E-09  1.32956048308996E-02
 cg2d: Sum(rhs),rhsMax =   1.60831328810396E-09  1.32952293691104E-02
 cg2d: Sum(rhs),rhsMax =   1.60842097973735E-09  1.32948532445337E-02
 cg2d: Sum(rhs),rhsMax =   1.60850788244460E-09  1.32944764931711E-02
 cg2d: Sum(rhs),rhsMax =   1.60860325060241E-09  1.32940991523896E-02
 cg2d: Sum(rhs),rhsMax =   1.60870433640881E-09  1.32937212549842E-02
 cg2d: Sum(rhs),rhsMax =   1.60879906618838E-09  1.32933428273120E-02
 cg2d: Sum(rhs),rhsMax =   1.60889498945771E-09  1.32929638989684E-02
 cg2d: Sum(rhs),rhsMax =   1.60899268908388E-09  1.32925844895798E-02
 cg2d: Sum(rhs),rhsMax =   1.60907326351989E-09  1.32922046198523E-02
 cg2d: Sum(rhs),rhsMax =   1.60917432157071E-09  1.32918243061671E-02
 cg2d: Sum(rhs),rhsMax =   1.60926916237258E-09  1.32914435588201E-02
 cg2d: Sum(rhs),rhsMax =   1.60936089454999E-09  1.32910623876619E-02
 cg2d: Sum(rhs),rhsMax =   1.60945853866501E-09  1.32906807962655E-02
 cg2d: Sum(rhs),rhsMax =   1.60955354600034E-09  1.32902987861544E-02
 cg2d: Sum(rhs),rhsMax =   1.60964797046859E-09  1.32899163541496E-02
 cg2d: Sum(rhs),rhsMax =   1.60975302532229E-09  1.32895334948454E-02
 cg2d: Sum(rhs),rhsMax =   1.60984831021338E-09  1.32891501983541E-02
 cg2d: Sum(rhs),rhsMax =   1.60993487985372E-09  1.32887664513098E-02
 cg2d: Sum(rhs),rhsMax =   1.61003002596694E-09  1.32883822406906E-02
 cg2d: Sum(rhs),rhsMax =   1.61013027910606E-09  1.32879975445938E-02
 cg2d: Sum(rhs),rhsMax =   1.61021507238956E-09  1.32876123441429E-02
 cg2d: Sum(rhs),rhsMax =   1.61031726841898E-09  1.32872266167938E-02
 cg2d: Sum(rhs),rhsMax =   1.61040861201833E-09  1.32868403357511E-02
 cg2d: Sum(rhs),rhsMax =   1.61050567326626E-09  1.32864534728559E-02
 cg2d: Sum(rhs),rhsMax =   1.61059665604313E-09  1.32860659976121E-02
 cg2d: Sum(rhs),rhsMax =   1.61069499404753E-09  1.32856778786866E-02
 cg2d: Sum(rhs),rhsMax =   1.61079169447298E-09  1.32852890834333E-02
 cg2d: Sum(rhs),rhsMax =   1.61088106742646E-09  1.32848995757270E-02
 cg2d: Sum(rhs),rhsMax =   1.61097082895800E-09  1.32845093186965E-02
 cg2d: Sum(rhs),rhsMax =   1.61104321549921E-09  1.32841182815939E-02
 cg2d: Sum(rhs),rhsMax =   1.61114740993007E-09  1.32837264263410E-02
 cg2d: Sum(rhs),rhsMax =   1.61122981623407E-09  1.32833337147925E-02
 cg2d: Sum(rhs),rhsMax =   1.61131213927135E-09  1.32829401061197E-02
 cg2d: Sum(rhs),rhsMax =   1.61140814580740E-09  1.32825455128078E-02
 cg2d: Sum(rhs),rhsMax =   1.61150193189741E-09  1.32821498550118E-02
 cg2d: Sum(rhs),rhsMax =   1.61159824374479E-09  1.32817530994997E-02
 cg2d: Sum(rhs),rhsMax =   1.61168992041105E-09  1.32813552127976E-02
 cg2d: Sum(rhs),rhsMax =   1.61177793334133E-09  1.32809561638134E-02
 cg2d: Sum(rhs),rhsMax =   1.61187047043043E-09  1.32805559255354E-02
 cg2d: Sum(rhs),rhsMax =   1.61196517245443E-09  1.32801544727786E-02
 cg2d: Sum(rhs),rhsMax =   1.61207192039825E-09  1.32797517780767E-02
 cg2d: Sum(rhs),rhsMax =   1.61216320848645E-09  1.32793478246681E-02
 cg2d: Sum(rhs),rhsMax =   1.61226115791280E-09  1.32789425899605E-02
 cg2d: Sum(rhs),rhsMax =   1.61234683937472E-09  1.32785360620810E-02
 cg2d: Sum(rhs),rhsMax =   1.61244356755574E-09  1.32781282310423E-02
 cg2d: Sum(rhs),rhsMax =   1.61254776198660E-09  1.32777190856556E-02
 cg2d: Sum(rhs),rhsMax =   1.61264315790000E-09  1.32773086229705E-02
 cg2d: Sum(rhs),rhsMax =   1.61273014387397E-09  1.32768968444085E-02
 cg2d: Sum(rhs),rhsMax =   1.61283275623703E-09  1.32764837517175E-02
 cg2d: Sum(rhs),rhsMax =   1.61290847344731E-09  1.32760693549006E-02
 cg2d: Sum(rhs),rhsMax =   1.61299268386372E-09  1.32756536654027E-02
 cg2d: Sum(rhs),rhsMax =   1.61309265944709E-09  1.32752366988151E-02
 cg2d: Sum(rhs),rhsMax =   1.61320434788337E-09  1.32748184776051E-02
 cg2d: Sum(rhs),rhsMax =   1.61331095704931E-09  1.32743990261951E-02
 cg2d: Sum(rhs),rhsMax =   1.61340529825083E-09  1.32739783726861E-02
 cg2d: Sum(rhs),rhsMax =   1.61350979799302E-09  1.32735565509853E-02
 cg2d: Sum(rhs),rhsMax =   1.61360871886451E-09  1.32731335992453E-02
 cg2d: Sum(rhs),rhsMax =   1.61370683482431E-09  1.32727095574825E-02
 cg2d: Sum(rhs),rhsMax =   1.61380456220606E-09  1.32722844722560E-02
 cg2d: Sum(rhs),rhsMax =   1.61390761865832E-09  1.32718583931733E-02
 cg2d: Sum(rhs),rhsMax =   1.61400534604006E-09  1.32714313720410E-02
 cg2d: Sum(rhs),rhsMax =   1.61409169363580E-09  1.32710034654853E-02
 cg2d: Sum(rhs),rhsMax =   1.61418881039488E-09  1.32705747337132E-02
 cg2d: Sum(rhs),rhsMax =   1.61429911105238E-09  1.32701452395146E-02
 cg2d: Sum(rhs),rhsMax =   1.61438712398265E-09  1.32697150482972E-02
 cg2d: Sum(rhs),rhsMax =   1.61449725810670E-09  1.32692842289768E-02
 cg2d: Sum(rhs),rhsMax =   1.61458388325819E-09  1.32688528512098E-02
 cg2d: Sum(rhs),rhsMax =   1.61468410864174E-09  1.32684209886921E-02
 cg2d: Sum(rhs),rhsMax =   1.61479643545626E-09  1.32679887162574E-02
 cg2d: Sum(rhs),rhsMax =   1.61490579242418E-09  1.32675561098786E-02
 cg2d: Sum(rhs),rhsMax =   1.61499918993613E-09  1.32671232467990E-02
 cg2d: Sum(rhs),rhsMax =   1.61510035900925E-09  1.32666902053074E-02
 cg2d: Sum(rhs),rhsMax =   1.61519325692083E-09  1.32662570653575E-02
 cg2d: Sum(rhs),rhsMax =   1.61530661069165E-09  1.32658239044597E-02
 cg2d: Sum(rhs),rhsMax =   1.61540331111709E-09  1.32653908050826E-02
 cg2d: Sum(rhs),rhsMax =   1.61550112176556E-09  1.32649578428426E-02
 cg2d: Sum(rhs),rhsMax =   1.61560220757195E-09  1.32645250830253E-02
 cg2d: Sum(rhs),rhsMax =   1.61569499446124E-09  1.32640925981821E-02
 cg2d: Sum(rhs),rhsMax =   1.61579172264226E-09  1.32636604499836E-02
 cg2d: Sum(rhs),rhsMax =   1.61588720182237E-09  1.32632286967261E-02
 cg2d: Sum(rhs),rhsMax =   1.61600136050488E-09  1.32627974029689E-02
 cg2d: Sum(rhs),rhsMax =   1.61610491655750E-09  1.32623666277021E-02
 cg2d: Sum(rhs),rhsMax =   1.61620153371622E-09  1.32619364300117E-02
 cg2d: Sum(rhs),rhsMax =   1.61629479245029E-09  1.32615068659866E-02
 cg2d: Sum(rhs),rhsMax =   1.61639676643510E-09  1.32610779906002E-02
 cg2d: Sum(rhs),rhsMax =   1.61650431929061E-09  1.32606498585502E-02
 cg2d: Sum(rhs),rhsMax =   1.61660734798730E-09  1.32602225176855E-02
 cg2d: Sum(rhs),rhsMax =   1.61670471454656E-09  1.32597960220557E-02
 cg2d: Sum(rhs),rhsMax =   1.61681562582672E-09  1.32593703952025E-02
 cg2d: Sum(rhs),rhsMax =   1.61690552613614E-09  1.32589457306190E-02
 cg2d: Sum(rhs),rhsMax =   1.61701618761612E-09  1.32585220168063E-02
 cg2d: Sum(rhs),rhsMax =   1.61712240820400E-09  1.32580993002861E-02
 cg2d: Sum(rhs),rhsMax =   1.61722205072046E-09  1.32576776250720E-02
 cg2d: Sum(rhs),rhsMax =   1.61731164571854E-09  1.32572570173838E-02
 cg2d: Sum(rhs),rhsMax =   1.61742133575338E-09  1.32568375083342E-02
 cg2d: Sum(rhs),rhsMax =   1.61752330973819E-09  1.32564191226404E-02
 cg2d: Sum(rhs),rhsMax =   1.61761470884869E-09  1.32560018843994E-02
 cg2d: Sum(rhs),rhsMax =   1.61770793982718E-09  1.32555858141097E-02
 cg2d: Sum(rhs),rhsMax =   1.61781862906274E-09  1.32551709308694E-02
 cg2d: Sum(rhs),rhsMax =   1.61790869590561E-09  1.32547572492411E-02
 cg2d: Sum(rhs),rhsMax =   1.61800053910532E-09  1.32543447832247E-02
 cg2d: Sum(rhs),rhsMax =   1.61808941245845E-09  1.32539335444843E-02
 cg2d: Sum(rhs),rhsMax =   1.61817695354394E-09  1.32535235384448E-02
 cg2d: Sum(rhs),rhsMax =   1.61828639377859E-09  1.32531147719337E-02
 cg2d: Sum(rhs),rhsMax =   1.61836885559374E-09  1.32527072492340E-02
 cg2d: Sum(rhs),rhsMax =   1.61846122614939E-09  1.32523009717989E-02
 cg2d: Sum(rhs),rhsMax =   1.61854682434459E-09  1.32518959357447E-02
 cg2d: Sum(rhs),rhsMax =   1.61865476577816E-09  1.32514921399547E-02
 cg2d: Sum(rhs),rhsMax =   1.61875285398239E-09  1.32510895772949E-02
 cg2d: Sum(rhs),rhsMax =   1.61885105320891E-09  1.32506882426517E-02
 Computing Diagnostic #    26 "THETA   " (list#  1) Parms "SMR     MR      ", Count=     144
 Computing Diagnostic #    27 "SALT    " (list#  1) Parms "SMR     MR      ", Count=     144
 Computing Diagnostic #    30 "UVEL    " (list#  1) Parms "UUR     MR      ", Count=     144
             Vector  Mate for "UVEL    " :  Diagnostic #     31 "VVEL    " exists
 Computing Diagnostic #    32 "WVEL    " (list#  1) Parms "WM      LR      ", Count=     144
 Computing Diagnostic #    31 "VVEL    " (list#  1) Parms "VVR     MR      ", Count=     144
             Vector  Mate for "VVEL    " :  Diagnostic #     30 "UVEL    " exists
 Computing Diagnostic #   197 "BRGfwFlx" (list#  2) Parms "SM      MR      ", Count=     144
 Computing Diagnostic #   198 "BRGhtFlx" (list#  2) Parms "SM      MR      ", Count=     144
 Computing Diagnostic #   199 "BRGmltRt" (list#  2) Parms "SM      MR      ", Count=     144
 Computing Diagnostic #   201 "BRG_TauX" (list#  2) Parms "UU      MR      ", Count=    1728
 Computing Diagnostic #   202 "BRG_TauY" (list#  2) Parms "VV      MR      ", Count=    1728
 Computing Diagnostic #   203 "BRGhFacC" (list#  2) Parms "SM      MR      ", Count=    1728
 cg2d: Sum(rhs),rhsMax =   1.61893695671544E-09  1.32502881247682E-02
 cg2d: Sum(rhs),rhsMax =   1.61902941053782E-09  1.32498892166046E-02
 cg2d: Sum(rhs),rhsMax =   1.61912033780354E-09  1.32494915029481E-02
 cg2d: Sum(rhs),rhsMax =   1.61920168939567E-09  1.32490949719520E-02
 cg2d: Sum(rhs),rhsMax =   1.61929969433317E-09  1.32486996108688E-02
 cg2d: Sum(rhs),rhsMax =   1.61939822662660E-09  1.32483053988611E-02
 cg2d: Sum(rhs),rhsMax =   1.61949217925006E-09  1.32479123228945E-02
 cg2d: Sum(rhs),rhsMax =   1.61959107236598E-09  1.32475203676485E-02
 cg2d: Sum(rhs),rhsMax =   1.61968757850239E-09  1.32471295135148E-02
 cg2d: Sum(rhs),rhsMax =   1.61976487778048E-09  1.32467397428762E-02
 cg2d: Sum(rhs),rhsMax =   1.61985388991148E-09  1.32463510363524E-02
 cg2d: Sum(rhs),rhsMax =   1.61996224767869E-09  1.32459633765473E-02
 cg2d: Sum(rhs),rhsMax =   1.62006427717465E-09  1.32455767431427E-02
 cg2d: Sum(rhs),rhsMax =   1.62014912596931E-09  1.32451911198113E-02
 cg2d: Sum(rhs),rhsMax =   1.62024221816992E-09  1.32448064871090E-02
 cg2d: Sum(rhs),rhsMax =   1.62034155537505E-09  1.32444228276436E-02
 cg2d: Sum(rhs),rhsMax =   1.62043098383968E-09  1.32440401242899E-02
 cg2d: Sum(rhs),rhsMax =   1.62053603869339E-09  1.32436583584941E-02
 cg2d: Sum(rhs),rhsMax =   1.62063654163269E-09  1.32432775176784E-02
 cg2d: Sum(rhs),rhsMax =   1.62073152121245E-09  1.32428975837339E-02
 cg2d: Sum(rhs),rhsMax =   1.62082583465839E-09  1.32425185429133E-02
 cg2d: Sum(rhs),rhsMax =   1.62091742805792E-09  1.32421403837659E-02
 cg2d: Sum(rhs),rhsMax =   1.62101040923623E-09  1.32417630920935E-02
 cg2d: Sum(rhs),rhsMax =   1.62111093993111E-09  1.32413866557419E-02
 cg2d: Sum(rhs),rhsMax =   1.62120716851177E-09  1.32410110670875E-02
 cg2d: Sum(rhs),rhsMax =   1.62128691028052E-09  1.32406363164088E-02
 cg2d: Sum(rhs),rhsMax =   1.62138025228131E-09  1.32402623936295E-02
 cg2d: Sum(rhs),rhsMax =   1.62145921689394E-09  1.32398892958430E-02
 cg2d: Sum(rhs),rhsMax =   1.62155308625067E-09  1.32395170132919E-02
 cg2d: Sum(rhs),rhsMax =   1.62163160677409E-09  1.32391455461453E-02
 cg2d: Sum(rhs),rhsMax =   1.62173804940657E-09  1.32387748879453E-02
 cg2d: Sum(rhs),rhsMax =   1.62182944851708E-09  1.32384050359752E-02
 cg2d: Sum(rhs),rhsMax =   1.62191945984880E-09  1.32380359920121E-02
 cg2d: Sum(rhs),rhsMax =   1.62200256004219E-09  1.32376677527685E-02
 cg2d: Sum(rhs),rhsMax =   1.62210961329734E-09  1.32373003208337E-02
 cg2d: Sum(rhs),rhsMax =   1.62219795929452E-09  1.32369336970429E-02
 cg2d: Sum(rhs),rhsMax =   1.62230121003581E-09  1.32365678838915E-02
 cg2d: Sum(rhs),rhsMax =   1.62238783518731E-09  1.32362028839520E-02
 cg2d: Sum(rhs),rhsMax =   1.62247776325231E-09  1.32358387007979E-02
 cg2d: Sum(rhs),rhsMax =   1.62257521307829E-09  1.32354753379900E-02
 cg2d: Sum(rhs),rhsMax =   1.62267083103629E-09  1.32351128012064E-02
 cg2d: Sum(rhs),rhsMax =   1.62276170279085E-09  1.32347510928258E-02
 cg2d: Sum(rhs),rhsMax =   1.62283814164610E-09  1.32343902191505E-02
 cg2d: Sum(rhs),rhsMax =   1.62293162242477E-09  1.32340301839413E-02
 cg2d: Sum(rhs),rhsMax =   1.62301785899821E-09  1.32336709920736E-02
 cg2d: Sum(rhs),rhsMax =   1.62310764828533E-09  1.32333126470296E-02
 cg2d: Sum(rhs),rhsMax =   1.62319743757244E-09  1.32329551539168E-02
 cg2d: Sum(rhs),rhsMax =   1.62329572006570E-09  1.32325985144400E-02
 cg2d: Sum(rhs),rhsMax =   1.62337790432510E-09  1.32322427321261E-02
 cg2d: Sum(rhs),rhsMax =   1.62346583398865E-09  1.32318878092950E-02
 cg2d: Sum(rhs),rhsMax =   1.62356086907955E-09  1.32315337465294E-02
 cg2d: Sum(rhs),rhsMax =   1.62365282330157E-09  1.32311805440634E-02
 cg2d: Sum(rhs),rhsMax =   1.62374530487952E-09  1.32308282011919E-02
 cg2d: Sum(rhs),rhsMax =   1.62383423374379E-09  1.32304767150477E-02
 cg2d: Sum(rhs),rhsMax =   1.62393529179461E-09  1.32301260831228E-02
 cg2d: Sum(rhs),rhsMax =   1.62403496206664E-09  1.32297762998811E-02
 cg2d: Sum(rhs),rhsMax =   1.62411942228324E-09  1.32294273609327E-02
 cg2d: Sum(rhs),rhsMax =   1.62419544480485E-09  1.32290792563417E-02
 cg2d: Sum(rhs),rhsMax =   1.62428620553712E-09  1.32287319793996E-02
 cg2d: Sum(rhs),rhsMax =   1.62437124862080E-09  1.32283855177751E-02
 cg2d: Sum(rhs),rhsMax =   1.62446284202034E-09  1.32280398596925E-02
 cg2d: Sum(rhs),rhsMax =   1.62454538710222E-09  1.32276946572386E-02
 cg2d: Sum(rhs),rhsMax =   1.62462882036252E-09  1.32273502313531E-02
 cg2d: Sum(rhs),rhsMax =   1.62471422426869E-09  1.32270065723590E-02
 cg2d: Sum(rhs),rhsMax =   1.62481278431770E-09  1.32266636609697E-02
 cg2d: Sum(rhs),rhsMax =   1.62489038890712E-09  1.32263214838370E-02
 cg2d: Sum(rhs),rhsMax =   1.62498631217645E-09  1.32259800227278E-02
 cg2d: Sum(rhs),rhsMax =   1.62507035605941E-09  1.32256392566368E-02
 cg2d: Sum(rhs),rhsMax =   1.62515470525371E-09  1.32252991628064E-02
 cg2d: Sum(rhs),rhsMax =   1.62524765867644E-09  1.32249597198743E-02
 cg2d: Sum(rhs),rhsMax =   1.62534519176916E-09  1.32246209001988E-02
 cg2d: Sum(rhs),rhsMax =   1.62543203896526E-09  1.32242826776083E-02
 cg2d: Sum(rhs),rhsMax =   1.62552868387955E-09  1.32239450229389E-02
 cg2d: Sum(rhs),rhsMax =   1.62561084038337E-09  1.32236079104229E-02
 cg2d: Sum(rhs),rhsMax =   1.62569507855537E-09  1.32232713199907E-02
 cg2d: Sum(rhs),rhsMax =   1.62578239759625E-09  1.32229351949031E-02
 cg2d: Sum(rhs),rhsMax =   1.62586533125619E-09  1.32225995449887E-02
 cg2d: Sum(rhs),rhsMax =   1.62594074315514E-09  1.32222643330263E-02
 cg2d: Sum(rhs),rhsMax =   1.62603316922194E-09  1.32219295254897E-02
 cg2d: Sum(rhs),rhsMax =   1.62611368814680E-09  1.32215950890474E-02
 cg2d: Sum(rhs),rhsMax =   1.62620264476665E-09  1.32212609924336E-02
 cg2d: Sum(rhs),rhsMax =   1.62628657762731E-09  1.32209272022404E-02
 cg2d: Sum(rhs),rhsMax =   1.62637189826675E-09  1.32205936837336E-02
 cg2d: Sum(rhs),rhsMax =   1.62646268675459E-09  1.32202603996615E-02
 cg2d: Sum(rhs),rhsMax =   1.62656202395972E-09  1.32199273136802E-02
 cg2d: Sum(rhs),rhsMax =   1.62664520741984E-09  1.32195943858436E-02
 cg2d: Sum(rhs),rhsMax =   1.62673036152583E-09  1.32192615791774E-02
 cg2d: Sum(rhs),rhsMax =   1.62682436966044E-09  1.32189288526615E-02
 cg2d: Sum(rhs),rhsMax =   1.62692734284597E-09  1.32185961658101E-02
 cg2d: Sum(rhs),rhsMax =   1.62702701311801E-09  1.32182634765532E-02
 cg2d: Sum(rhs),rhsMax =   1.62710864226590E-09  1.32179307454499E-02
 cg2d: Sum(rhs),rhsMax =   1.62720159568863E-09  1.32175979246323E-02
 cg2d: Sum(rhs),rhsMax =   1.62731089714541E-09  1.32172649727892E-02
 cg2d: Sum(rhs),rhsMax =   1.62739746678575E-09  1.32169318469568E-02
 cg2d: Sum(rhs),rhsMax =   1.62748106657951E-09  1.32165985059333E-02
 cg2d: Sum(rhs),rhsMax =   1.62758614918879E-09  1.32162648993926E-02
 cg2d: Sum(rhs),rhsMax =   1.62766811140358E-09  1.32159309717686E-02
 cg2d: Sum(rhs),rhsMax =   1.62775981582541E-09  1.32155966842915E-02
 cg2d: Sum(rhs),rhsMax =   1.62783869717131E-09  1.32152619988731E-02
 cg2d: Sum(rhs),rhsMax =   1.62792426761094E-09  1.32149268715702E-02
 cg2d: Sum(rhs),rhsMax =   1.62800642411476E-09  1.32145912651442E-02
 cg2d: Sum(rhs),rhsMax =   1.62809254966589E-09  1.32142551388825E-02
 cg2d: Sum(rhs),rhsMax =   1.62817823112782E-09  1.32139184595906E-02
 cg2d: Sum(rhs),rhsMax =   1.62827373806351E-09  1.32135811855485E-02
 cg2d: Sum(rhs),rhsMax =   1.62837146544526E-09  1.32132432854267E-02
 cg2d: Sum(rhs),rhsMax =   1.62845298357084E-09  1.32129047219833E-02
 cg2d: Sum(rhs),rhsMax =   1.62854804641732E-09  1.32125654638595E-02
 cg2d: Sum(rhs),rhsMax =   1.62863228458932E-09  1.32122254775179E-02
 cg2d: Sum(rhs),rhsMax =   1.62873373121819E-09  1.32118847327301E-02
 cg2d: Sum(rhs),rhsMax =   1.62881472198784E-09  1.32115432037247E-02
 cg2d: Sum(rhs),rhsMax =   1.62890018140516E-09  1.32112008592388E-02
 cg2d: Sum(rhs),rhsMax =   1.62898483591079E-09  1.32108576754501E-02
 cg2d: Sum(rhs),rhsMax =   1.62906471645741E-09  1.32105136255120E-02
 cg2d: Sum(rhs),rhsMax =   1.62915886336990E-09  1.32101686869189E-02
 cg2d: Sum(rhs),rhsMax =   1.62924801427877E-09  1.32098228335002E-02
 cg2d: Sum(rhs),rhsMax =   1.62934221670241E-09  1.32094760436591E-02
 cg2d: Sum(rhs),rhsMax =   1.62942298542745E-09  1.32091282948139E-02
 cg2d: Sum(rhs),rhsMax =   1.62952379367809E-09  1.32087795663575E-02
 cg2d: Sum(rhs),rhsMax =   1.62959046257072E-09  1.32084298388999E-02
 cg2d: Sum(rhs),rhsMax =   1.62969179817729E-09  1.32080790919444E-02
 cg2d: Sum(rhs),rhsMax =   1.62977814577303E-09  1.32077273073025E-02
 cg2d: Sum(rhs),rhsMax =   1.62985933083171E-09  1.32073744665049E-02
 cg2d: Sum(rhs),rhsMax =   1.62995153485390E-09  1.32070205530738E-02
 cg2d: Sum(rhs),rhsMax =   1.63005184350418E-09  1.32066655475239E-02
 cg2d: Sum(rhs),rhsMax =   1.63013699761017E-09  1.32063094368582E-02
 cg2d: Sum(rhs),rhsMax =   1.63022928489909E-09  1.32059522028651E-02
 cg2d: Sum(rhs),rhsMax =   1.63032570776878E-09  1.32055938310582E-02
 cg2d: Sum(rhs),rhsMax =   1.63042396250646E-09  1.32052343052200E-02
 cg2d: Sum(rhs),rhsMax =   1.63051636081768E-09  1.32048736103227E-02
 cg2d: Sum(rhs),rhsMax =   1.63061486535554E-09  1.32045117335415E-02
 cg2d: Sum(rhs),rhsMax =   1.63071134373638E-09  1.32041486602258E-02
 cg2d: Sum(rhs),rhsMax =   1.63080560167117E-09  1.32037843739397E-02
 cg2d: Sum(rhs),rhsMax =   1.63090818627865E-09  1.32034188642603E-02
 cg2d: Sum(rhs),rhsMax =   1.63098592964595E-09  1.32030521182486E-02
 cg2d: Sum(rhs),rhsMax =   1.63106900208376E-09  1.32026841217409E-02
 cg2d: Sum(rhs),rhsMax =   1.63115110307643E-09  1.32023148603015E-02
 cg2d: Sum(rhs),rhsMax =   1.63123706209412E-09  1.32019443237983E-02
 cg2d: Sum(rhs),rhsMax =   1.63132479746864E-09  1.32015724956761E-02
 cg2d: Sum(rhs),rhsMax =   1.63142546694139E-09  1.32011993678096E-02
 cg2d: Sum(rhs),rhsMax =   1.63152483190210E-09  1.32008249233709E-02
 cg2d: Sum(rhs),rhsMax =   1.63161900657016E-09  1.32004491532048E-02
 cg2d: Sum(rhs),rhsMax =   1.63171967604292E-09  1.32000720440516E-02
 cg2d: Sum(rhs),rhsMax =   1.63180946533004E-09  1.31996935838302E-02
 cg2d: Sum(rhs),rhsMax =   1.63190880253516E-09  1.31993137616472E-02
 Computing Diagnostic #    26 "THETA   " (list#  1) Parms "SMR     MR      ", Count=     144
 Computing Diagnostic #    27 "SALT    " (list#  1) Parms "SMR     MR      ", Count=     144
 Computing Diagnostic #    30 "UVEL    " (list#  1) Parms "UUR     MR      ", Count=     144
             Vector  Mate for "UVEL    " :  Diagnostic #     31 "VVEL    " exists
 Computing Diagnostic #    32 "WVEL    " (list#  1) Parms "WM      LR      ", Count=     144
 Computing Diagnostic #    31 "VVEL    " (list#  1) Parms "VVR     MR      ", Count=     144
             Vector  Mate for "VVEL    " :  Diagnostic #     30 "UVEL    " exists
 Computing Diagnostic #   197 "BRGfwFlx" (list#  2) Parms "SM      MR      ", Count=     144
 Computing Diagnostic #   198 "BRGhtFlx" (list#  2) Parms "SM      MR      ", Count=     144
 Computing Diagnostic #   199 "BRGmltRt" (list#  2) Parms "SM      MR      ", Count=     144
 Computing Diagnostic #   201 "BRG_TauX" (list#  2) Parms "UU      MR      ", Count=    1728
 Computing Diagnostic #   202 "BRG_TauY" (list#  2) Parms "VV      MR      ", Count=    1728
 Computing Diagnostic #   203 "BRGhFacC" (list#  2) Parms "SM      MR      ", Count=    1728
 cg2d: Sum(rhs),rhsMax =   1.63199101455014E-09  1.31989325656766E-02
 cg2d: Sum(rhs),rhsMax =   1.63208235814949E-09  1.31985499851274E-02
 cg2d: Sum(rhs),rhsMax =   1.63217789284076E-09  1.31981660100271E-02
 cg2d: Sum(rhs),rhsMax =   1.63227314997627E-09  1.31977806319280E-02
 cg2d: Sum(rhs),rhsMax =   1.63235353012325E-09  1.31973938418824E-02
 cg2d: Sum(rhs),rhsMax =   1.63244129325335E-09  1.31970056300117E-02
 cg2d: Sum(rhs),rhsMax =   1.63253616181080E-09  1.31966159908986E-02
 cg2d: Sum(rhs),rhsMax =   1.63262894870009E-09  1.31962249174091E-02
 cg2d: Sum(rhs),rhsMax =   1.63273092268490E-09  1.31958324032850E-02
 cg2d: Sum(rhs),rhsMax =   1.63281638210222E-09  1.31954384481547E-02
 cg2d: Sum(rhs),rhsMax =   1.63291341559457E-09  1.31950430453126E-02
 cg2d: Sum(rhs),rhsMax =   1.63300478694950E-09  1.31946461957660E-02
 cg2d: Sum(rhs),rhsMax =   1.63309185619021E-09  1.31942479013005E-02
 cg2d: Sum(rhs),rhsMax =   1.63317884216418E-09  1.31938481609480E-02
 cg2d: Sum(rhs),rhsMax =   1.63326763225058E-09  1.31934469799364E-02
 cg2d: Sum(rhs),rhsMax =   1.63336666414438E-09  1.31930443643842E-02
 cg2d: Sum(rhs),rhsMax =   1.63346797199537E-09  1.31926403216795E-02
 cg2d: Sum(rhs),rhsMax =   1.63356980720231E-09  1.31922348610598E-02
 cg2d: Sum(rhs),rhsMax =   1.63367255834324E-09  1.31918279942496E-02
 cg2d: Sum(rhs),rhsMax =   1.63377716910773E-09  1.31914197368123E-02
 cg2d: Sum(rhs),rhsMax =   1.63388563789724E-09  1.31910101040648E-02
 cg2d: Sum(rhs),rhsMax =   1.63398525265812E-09  1.31905991162305E-02
 cg2d: Sum(rhs),rhsMax =   1.63410762699101E-09  1.31901867924682E-02
 cg2d: Sum(rhs),rhsMax =   1.63420280085980E-09  1.31897731634014E-02
 cg2d: Sum(rhs),rhsMax =   1.63430860511404E-09  1.31893582515883E-02
 cg2d: Sum(rhs),rhsMax =   1.63439886624595E-09  1.31889420829704E-02
 cg2d: Sum(rhs),rhsMax =   1.63449848100683E-09  1.31885246932694E-02
 cg2d: Sum(rhs),rhsMax =   1.63458710455977E-09  1.31881061168908E-02
 cg2d: Sum(rhs),rhsMax =   1.63468930058919E-09  1.31876864167460E-02
 cg2d: Sum(rhs),rhsMax =   1.63479482728768E-09  1.31872656430678E-02
 cg2d: Sum(rhs),rhsMax =   1.63489180526888E-09  1.31868438274101E-02
 cg2d: Sum(rhs),rhsMax =   1.63499502825459E-09  1.31864210497503E-02
 cg2d: Sum(rhs),rhsMax =   1.63508251382893E-09  1.31859973615467E-02
 cg2d: Sum(rhs),rhsMax =   1.63518529272544E-09  1.31855728204619E-02
 cg2d: Sum(rhs),rhsMax =   1.63528077190556E-09  1.31851474879237E-02
 cg2d: Sum(rhs),rhsMax =   1.63538282915709E-09  1.31847004753863E-02
 cg2d: Sum(rhs),rhsMax =   1.63549318532574E-09  1.31842522658695E-02
 cg2d: Sum(rhs),rhsMax =   1.63558530608121E-09  1.31838030495472E-02
 cg2d: Sum(rhs),rhsMax =   1.63567873134873E-09  1.31833527994766E-02
 cg2d: Sum(rhs),rhsMax =   1.63577382195079E-09  1.31829397042401E-02
 cg2d: Sum(rhs),rhsMax =   1.63587338120053E-09  1.31825301748009E-02
 cg2d: Sum(rhs),rhsMax =   1.63596738933514E-09  1.31821223014769E-02
 cg2d: Sum(rhs),rhsMax =   1.63606028724672E-09  1.31817166769503E-02
 cg2d: Sum(rhs),rhsMax =   1.63615607173817E-09  1.31813134374829E-02
 cg2d: Sum(rhs),rhsMax =   1.63626223681490E-09  1.31809126399202E-02
 cg2d: Sum(rhs),rhsMax =   1.63635163752396E-09  1.31805143441336E-02
 cg2d: Sum(rhs),rhsMax =   1.63645358375319E-09  1.31801186092003E-02
 cg2d: Sum(rhs),rhsMax =   1.63654778617683E-09  1.31797254907042E-02
 cg2d: Sum(rhs),rhsMax =   1.63663521624002E-09  1.31793350459555E-02
 cg2d: Sum(rhs),rhsMax =   1.63673791186980E-09  1.31789473282586E-02
 cg2d: Sum(rhs),rhsMax =   1.63683241960477E-09  1.31785623871378E-02
 cg2d: Sum(rhs),rhsMax =   1.63692293053685E-09  1.31781802755020E-02
 cg2d: Sum(rhs),rhsMax =   1.63703733901954E-09  1.31778010361806E-02
 cg2d: Sum(rhs),rhsMax =   1.63712496337176E-09  1.31774247157477E-02
 cg2d: Sum(rhs),rhsMax =   1.63721539103712E-09  1.31770513532034E-02
 cg2d: Sum(rhs),rhsMax =   1.63731581070969E-09  1.31766809875954E-02
 cg2d: Sum(rhs),rhsMax =   1.63742328029848E-09  1.31763136537426E-02
 cg2d: Sum(rhs),rhsMax =   1.63750626946957E-09  1.31759493836544E-02
 cg2d: Sum(rhs),rhsMax =   1.63761143534558E-09  1.31755882058664E-02
 cg2d: Sum(rhs),rhsMax =   1.63771304850791E-09  1.31752301446730E-02
 cg2d: Sum(rhs),rhsMax =   1.63780550233028E-09  1.31748752216232E-02
 cg2d: Sum(rhs),rhsMax =   1.63789726226327E-09  1.31745234542369E-02
 cg2d: Sum(rhs),rhsMax =   1.63798730135056E-09  1.31741748596092E-02
 cg2d: Sum(rhs),rhsMax =   1.63807473141375E-09  1.31738294444653E-02
 cg2d: Sum(rhs),rhsMax =   1.63816732401401E-09  1.31734872187737E-02
 cg2d: Sum(rhs),rhsMax =   1.63826532895150E-09  1.31731481848008E-02
 cg2d: Sum(rhs),rhsMax =   1.63835373045984E-09  1.31728123426773E-02
 cg2d: Sum(rhs),rhsMax =   1.63843211220538E-09  1.31724796891736E-02
 cg2d: Sum(rhs),rhsMax =   1.63851873735688E-09  1.31721502166651E-02
 cg2d: Sum(rhs),rhsMax =   1.63862592938990E-09  1.31718239130074E-02
 cg2d: Sum(rhs),rhsMax =   1.63871324843079E-09  1.31715007646691E-02
 cg2d: Sum(rhs),rhsMax =   1.63880120584992E-09  1.31711807532669E-02
 cg2d: Sum(rhs),rhsMax =   1.63888203008611E-09  1.31708638559163E-02
 cg2d: Sum(rhs),rhsMax =   1.63897337368546E-09  1.31705500488089E-02
 cg2d: Sum(rhs),rhsMax =   1.63904967376283E-09  1.31702393042410E-02
 cg2d: Sum(rhs),rhsMax =   1.63914018469491E-09  1.31699315903071E-02
 cg2d: Sum(rhs),rhsMax =   1.63921295981417E-09  1.31696268729061E-02
 cg2d: Sum(rhs),rhsMax =   1.63930291563474E-09  1.31693251154419E-02
 cg2d: Sum(rhs),rhsMax =   1.63937521890922E-09  1.31690262792790E-02
 cg2d: Sum(rhs),rhsMax =   1.63945332309900E-09  1.31687303211696E-02
 cg2d: Sum(rhs),rhsMax =   1.63954472220951E-09  1.31684371980300E-02
 cg2d: Sum(rhs),rhsMax =   1.63961097476850E-09  1.31681468496439E-02
 cg2d: Sum(rhs),rhsMax =   1.63969515742934E-09  1.31678592305807E-02
 cg2d: Sum(rhs),rhsMax =   1.63978108869145E-09  1.31675742792970E-02
 cg2d: Sum(rhs),rhsMax =   1.63985805490263E-09  1.31672919363019E-02
 cg2d: Sum(rhs),rhsMax =   1.63995236834857E-09  1.31670121443831E-02
 cg2d: Sum(rhs),rhsMax =   1.64002944558206E-09  1.31667348439939E-02
 cg2d: Sum(rhs),rhsMax =   1.64010854897256E-09  1.31664599747161E-02
 cg2d: Sum(rhs),rhsMax =   1.64019284265571E-09  1.31661874773223E-02
 cg2d: Sum(rhs),rhsMax =   1.64028596261190E-09  1.31659172896454E-02
 cg2d: Sum(rhs),rhsMax =   1.64036248473387E-09  1.31656493550109E-02
 cg2d: Sum(rhs),rhsMax =   1.64044572370514E-09  1.31653836131204E-02
 cg2d: Sum(rhs),rhsMax =   1.64054025919569E-09  1.31651200076789E-02
 cg2d: Sum(rhs),rhsMax =   1.64061406127125E-09  1.31648584817430E-02
 cg2d: Sum(rhs),rhsMax =   1.64068847396948E-09  1.31645989802490E-02
 cg2d: Sum(rhs),rhsMax =   1.64076824349380E-09  1.31643414516906E-02
 cg2d: Sum(rhs),rhsMax =   1.64084737463988E-09  1.31640858398163E-02
 cg2d: Sum(rhs),rhsMax =   1.64092042731490E-09  1.31638320990486E-02
 cg2d: Sum(rhs),rhsMax =   1.64100824595614E-09  1.31635801838583E-02
 cg2d: Sum(rhs),rhsMax =   1.64108585054556E-09  1.31633300481520E-02
 cg2d: Sum(rhs),rhsMax =   1.64115518397345E-09  1.31630816484317E-02
 cg2d: Sum(rhs),rhsMax =   1.64122454515692E-09  1.31628349452053E-02
 cg2d: Sum(rhs),rhsMax =   1.64129804192115E-09  1.31625899009045E-02
 cg2d: Sum(rhs),rhsMax =   1.64137542446596E-09  1.31623464814689E-02
 cg2d: Sum(rhs),rhsMax =   1.64146785053276E-09  1.31621046549487E-02
 cg2d: Sum(rhs),rhsMax =   1.64155763981988E-09  1.31618643930035E-02
 cg2d: Sum(rhs),rhsMax =   1.64164207228090E-09  1.31616256693662E-02
 cg2d: Sum(rhs),rhsMax =   1.64172264671691E-09  1.31613884612150E-02
 cg2d: Sum(rhs),rhsMax =   1.64179986272828E-09  1.31611527483532E-02
 cg2d: Sum(rhs),rhsMax =   1.64188063145332E-09  1.31609185118867E-02
 cg2d: Sum(rhs),rhsMax =   1.64196237162351E-09  1.31606857383921E-02
 cg2d: Sum(rhs),rhsMax =   1.64203881047875E-09  1.31604544154440E-02
 cg2d: Sum(rhs),rhsMax =   1.64211949593707E-09  1.31602245332516E-02
 cg2d: Sum(rhs),rhsMax =   1.64220415044269E-09  1.31599960822881E-02
 cg2d: Sum(rhs),rhsMax =   1.64228070032024E-09  1.31597690601059E-02
 cg2d: Sum(rhs),rhsMax =   1.64236274580176E-09  1.31595434622826E-02
 cg2d: Sum(rhs),rhsMax =   1.64243144085141E-09  1.31593192881177E-02
 cg2d: Sum(rhs),rhsMax =   1.64252153544986E-09  1.31590965373688E-02
 cg2d: Sum(rhs),rhsMax =   1.64260363644253E-09  1.31588752140701E-02
 cg2d: Sum(rhs),rhsMax =   1.64267455193823E-09  1.31586553204153E-02
 cg2d: Sum(rhs),rhsMax =   1.64274127634201E-09  1.31584368622921E-02
 cg2d: Sum(rhs),rhsMax =   1.64282598635879E-09  1.31582198433264E-02
 cg2d: Sum(rhs),rhsMax =   1.64289923332284E-09  1.31580042698693E-02
 cg2d: Sum(rhs),rhsMax =   1.64296948268472E-09  1.31577901482056E-02
 cg2d: Sum(rhs),rhsMax =   1.64304861383080E-09  1.31575774853870E-02
 cg2d: Sum(rhs),rhsMax =   1.64310856587413E-09  1.31573662854070E-02
 cg2d: Sum(rhs),rhsMax =   1.64316893425109E-09  1.31571565541709E-02
 cg2d: Sum(rhs),rhsMax =   1.64323821216783E-09  1.31569482990263E-02
 cg2d: Sum(rhs),rhsMax =   1.64332703000980E-09  1.31567415218556E-02
 cg2d: Sum(rhs),rhsMax =   1.64340460684365E-09  1.31565362252016E-02
 cg2d: Sum(rhs),rhsMax =   1.64348282205573E-09  1.31563324108652E-02
 cg2d: Sum(rhs),rhsMax =   1.64355351550682E-09  1.31561300845021E-02
 cg2d: Sum(rhs),rhsMax =   1.64361638188559E-09  1.31559292481515E-02
 cg2d: Sum(rhs),rhsMax =   1.64367355837136E-09  1.31557298959028E-02
 cg2d: Sum(rhs),rhsMax =   1.64374311384385E-09  1.31555320194997E-02
 cg2d: Sum(rhs),rhsMax =   1.64381785960899E-09  1.31553356091610E-02
 cg2d: Sum(rhs),rhsMax =   1.64389077350613E-09  1.31551406534805E-02
 cg2d: Sum(rhs),rhsMax =   1.64395982937826E-09  1.31549471353334E-02
 cg2d: Sum(rhs),rhsMax =   1.64404498348425E-09  1.31547550366568E-02
 cg2d: Sum(rhs),rhsMax =   1.64411351200044E-09  1.31545643363181E-02
 cg2d: Sum(rhs),rhsMax =   1.64420435599943E-09  1.31543750077354E-02
 cg2d: Sum(rhs),rhsMax =   1.64427843563075E-09  1.31541870224281E-02
 cg2d: Sum(rhs),rhsMax =   1.64434682536907E-09  1.31540003512145E-02
 cg2d: Sum(rhs),rhsMax =   1.64442137684517E-09  1.31538149578747E-02
(PID.TID 0000.0001)      cg2d_init_res =   5.90486112822383E-05
(PID.TID 0000.0001)      cg2d_iters(min,last) =      -1      38
(PID.TID 0000.0001)      cg2d_last_res =   6.61731154433789E-14
(PID.TID 0000.0001) // =======================================================
(PID.TID 0000.0001) // Begin MONITOR dynamic field statistics
(PID.TID 0000.0001) // =======================================================
(PID.TID 0000.0001) %MON time_tsnumber                =                 31968
(PID.TID 0000.0001) %MON time_secondsf                =   7.9920000000000E+05
(PID.TID 0000.0001) %MON dynstat_eta_max              =   4.6050811870370E-03
(PID.TID 0000.0001) %MON dynstat_eta_min              =  -2.2974139693915E-03
(PID.TID 0000.0001) %MON dynstat_eta_mean             =  -1.4485123331866E-13
(PID.TID 0000.0001) %MON dynstat_eta_sd               =   2.3119428504917E-03
(PID.TID 0000.0001) %MON dynstat_eta_del2             =   1.8438687680061E-05
(PID.TID 0000.0001) %MON dynstat_uvel_max             =   4.3373564922663E-02
(PID.TID 0000.0001) %MON dynstat_uvel_min             =  -4.5547285873512E-02
(PID.TID 0000.0001) %MON dynstat_uvel_mean            =   3.7881767947877E-09
(PID.TID 0000.0001) %MON dynstat_uvel_sd              =   6.7351336561796E-03
(PID.TID 0000.0001) %MON dynstat_uvel_del2            =   1.0134179452438E-04
(PID.TID 0000.0001) %MON dynstat_vvel_max             =   2.3922547251894E-02
(PID.TID 0000.0001) %MON dynstat_vvel_min             =  -3.5595394715109E-02
(PID.TID 0000.0001) %MON dynstat_vvel_mean            =  -8.0919746531529E-03
(PID.TID 0000.0001) %MON dynstat_vvel_sd              =   1.1618667988047E-02
(PID.TID 0000.0001) %MON dynstat_vvel_del2            =   9.1554965999544E-05
(PID.TID 0000.0001) %MON dynstat_wvel_max             =   1.3726450194136E-03
(PID.TID 0000.0001) %MON dynstat_wvel_min             =  -1.1569141611815E-03
(PID.TID 0000.0001) %MON dynstat_wvel_mean            =   2.4329306972309E-20
(PID.TID 0000.0001) %MON dynstat_wvel_sd              =   1.2774707005768E-04
(PID.TID 0000.0001) %MON dynstat_wvel_del2            =   6.5798452773110E-06
(PID.TID 0000.0001) %MON dynstat_theta_max            =   2.6931451612903E+00
(PID.TID 0000.0001) %MON dynstat_theta_min            =  -7.8328712362950E-01
(PID.TID 0000.0001) %MON dynstat_theta_mean           =   2.2177075673049E+00
(PID.TID 0000.0001) %MON dynstat_theta_sd             =   5.3803430529889E-01
(PID.TID 0000.0001) %MON dynstat_theta_del2           =   1.7239946265546E-03
(PID.TID 0000.0001) %MON dynstat_salt_max             =   3.4699999999999E+01
(PID.TID 0000.0001) %MON dynstat_salt_min             =   3.3065575956587E+01
(PID.TID 0000.0001) %MON dynstat_salt_mean            =   3.4363935181494E+01
(PID.TID 0000.0001) %MON dynstat_salt_sd              =   3.2214743623114E-01
(PID.TID 0000.0001) %MON dynstat_salt_del2            =   1.9178425260293E-04
(PID.TID 0000.0001) %MON advcfl_uvel_max              =   2.2773642936756E-03
(PID.TID 0000.0001) %MON advcfl_vvel_max              =   1.7797697357554E-03
(PID.TID 0000.0001) %MON advcfl_wvel_max              =   6.5940187116844E-04
(PID.TID 0000.0001) %MON advcfl_W_hf_max              =   1.4137467131825E-03
(PID.TID 0000.0001) %MON pe_b_mean                    =   4.4596303386159E-08
(PID.TID 0000.0001) %MON ke_max                       =   1.0231545404368E-03
(PID.TID 0000.0001) %MON ke_mean                      =   1.1295325526501E-04
(PID.TID 0000.0001) %MON ke_vol                       =   3.2921708585402E+10
(PID.TID 0000.0001) // =======================================================
(PID.TID 0000.0001) // End MONITOR dynamic field statistics
(PID.TID 0000.0001) // =======================================================
(PID.TID 0000.0001) // =======================================================
(PID.TID 0000.0001) // Begin OBCS MONITOR field statistics
(PID.TID 0000.0001) // =======================================================
(PID.TID 0000.0001) %MON obc_E_uVel_max               =   0.0000000000000E+00
(PID.TID 0000.0001) %MON obc_E_uVel_min               =   0.0000000000000E+00
(PID.TID 0000.0001) %MON obc_E_uVel_mean              =   0.0000000000000E+00
(PID.TID 0000.0001) %MON obc_E_uVel_sd                =   0.0000000000000E+00
(PID.TID 0000.0001) %MON obc_E_uVel_Int               =   0.0000000000000E+00
(PID.TID 0000.0001) %MON obc_N_vVel_max               =  -3.6115799844846E-05
(PID.TID 0000.0001) %MON obc_N_vVel_min               =  -3.0000000000000E-02
(PID.TID 0000.0001) %MON obc_N_vVel_mean              =  -1.3225455303334E-02
(PID.TID 0000.0001) %MON obc_N_vVel_sd                =   1.1350864292742E-02
(PID.TID 0000.0001) %MON obc_N_vVel_Int               =  -5.9514548865004E+04
(PID.TID 0000.0001) %MON obc_S_vVel_max               =  -3.6115799844846E-05
(PID.TID 0000.0001) %MON obc_S_vVel_min               =  -3.0000000000000E-02
(PID.TID 0000.0001) %MON obc_S_vVel_mean              =  -1.3225455303334E-02
(PID.TID 0000.0001) %MON obc_S_vVel_sd                =   1.1350864292742E-02
(PID.TID 0000.0001) %MON obc_S_vVel_Int               =  -5.9514548865004E+04
(PID.TID 0000.0001) // =======================================================
(PID.TID 0000.0001) // End OBCS MONITOR field statistics
(PID.TID 0000.0001) // =======================================================
 Computing Diagnostic #    26 "THETA   " (list#  1) Parms "SMR     MR      ", Count=     144
 Computing Diagnostic #    27 "SALT    " (list#  1) Parms "SMR     MR      ", Count=     144
 Computing Diagnostic #    30 "UVEL    " (list#  1) Parms "UUR     MR      ", Count=     144
             Vector  Mate for "UVEL    " :  Diagnostic #     31 "VVEL    " exists
 Computing Diagnostic #    32 "WVEL    " (list#  1) Parms "WM      LR      ", Count=     144
 Computing Diagnostic #    31 "VVEL    " (list#  1) Parms "VVR     MR      ", Count=     144
             Vector  Mate for "VVEL    " :  Diagnostic #     30 "UVEL    " exists
 Computing Diagnostic #   197 "BRGfwFlx" (list#  2) Parms "SM      MR      ", Count=     144
 Computing Diagnostic #   198 "BRGhtFlx" (list#  2) Parms "SM      MR      ", Count=     144
 Computing Diagnostic #   199 "BRGmltRt" (list#  2) Parms "SM      MR      ", Count=     144
 Computing Diagnostic #   201 "BRG_TauX" (list#  2) Parms "UU      MR      ", Count=    1728
 Computing Diagnostic #   202 "BRG_TauY" (list#  2) Parms "VV      MR      ", Count=    1728
 Computing Diagnostic #   203 "BRGhFacC" (list#  2) Parms "SM      MR      ", Count=    1728
 cg2d: Sum(rhs),rhsMax =   1.64450375539360E-09  1.31536308041600E-02
 cg2d: Sum(rhs),rhsMax =   1.64457064633083E-09  1.31534478498274E-02
 cg2d: Sum(rhs),rhsMax =   1.64463626051159E-09  1.31532660484418E-02
 cg2d: Sum(rhs),rhsMax =   1.64470426167185E-09  1.31530853532305E-02
 cg2d: Sum(rhs),rhsMax =   1.64477709230226E-09  1.31529057136195E-02
 cg2d: Sum(rhs),rhsMax =   1.64485361442424E-09  1.31527270759109E-02
 cg2d: Sum(rhs),rhsMax =   1.64491789633736E-09  1.31525493813615E-02
 cg2d: Sum(rhs),rhsMax =   1.64498914489997E-09  1.31523725725815E-02
 cg2d: Sum(rhs),rhsMax =   1.64506497313255E-09  1.31521965872174E-02
 cg2d: Sum(rhs),rhsMax =   1.64513372369335E-09  1.31520213609024E-02
 cg2d: Sum(rhs),rhsMax =   1.64520866374751E-09  1.31518468260711E-02
 cg2d: Sum(rhs),rhsMax =   1.64525884582822E-09  1.31516729148178E-02
 cg2d: Sum(rhs),rhsMax =   1.64532470980916E-09  1.31514995560753E-02
 cg2d: Sum(rhs),rhsMax =   1.64540489566711E-09  1.31513266803597E-02
 cg2d: Sum(rhs),rhsMax =   1.64547503400669E-09  1.31511542115760E-02
 cg2d: Sum(rhs),rhsMax =   1.64553734527395E-09  1.31509820788432E-02
 cg2d: Sum(rhs),rhsMax =   1.64559205151349E-09  1.31508102045632E-02
 cg2d: Sum(rhs),rhsMax =   1.64566793525722E-09  1.31506385141868E-02
 cg2d: Sum(rhs),rhsMax =   1.64572874772340E-09  1.31504669348803E-02
 cg2d: Sum(rhs),rhsMax =   1.64580807315851E-09  1.31502953896344E-02
 cg2d: Sum(rhs),rhsMax =   1.64589403217619E-09  1.31501238038011E-02
 cg2d: Sum(rhs),rhsMax =   1.64596986040877E-09  1.31499521053664E-02
 cg2d: Sum(rhs),rhsMax =   1.64602637076072E-09  1.31497802192017E-02
 cg2d: Sum(rhs),rhsMax =   1.64609864627963E-09  1.31496080760865E-02
 cg2d: Sum(rhs),rhsMax =   1.64616209552548E-09  1.31494356058825E-02
 cg2d: Sum(rhs),rhsMax =   1.64623153997567E-09  1.31492627421356E-02
 cg2d: Sum(rhs),rhsMax =   1.64629643251146E-09  1.31490894165608E-02
 cg2d: Sum(rhs),rhsMax =   1.64636720922928E-09  1.31489155680747E-02
 cg2d: Sum(rhs),rhsMax =   1.64643465527803E-09  1.31487411383260E-02
 cg2d: Sum(rhs),rhsMax =   1.64650321154980E-09  1.31485660689574E-02
 cg2d: Sum(rhs),rhsMax =   1.64657085188757E-09  1.31483903065356E-02
 cg2d: Sum(rhs),rhsMax =   1.64663951918165E-09  1.31482138017806E-02
 cg2d: Sum(rhs),rhsMax =   1.64671354330181E-09  1.31480365081093E-02
 cg2d: Sum(rhs),rhsMax =   1.64678237712934E-09  1.31478583833800E-02
 cg2d: Sum(rhs),rhsMax =   1.64685309833601E-09  1.31476793900717E-02
 cg2d: Sum(rhs),rhsMax =   1.64690847070936E-09  1.31474994947463E-02
 cg2d: Sum(rhs),rhsMax =   1.64697916416046E-09  1.31473186674958E-02
 cg2d: Sum(rhs),rhsMax =   1.64704644367575E-09  1.31471368841999E-02
 cg2d: Sum(rhs),rhsMax =   1.64710892147646E-09  1.31469541255833E-02
 cg2d: Sum(rhs),rhsMax =   1.64718108597306E-09  1.31467703779111E-02
 cg2d: Sum(rhs),rhsMax =   1.64724195395038E-09  1.31465856285320E-02
 cg2d: Sum(rhs),rhsMax =   1.64731733809376E-09  1.31463998748954E-02
 cg2d: Sum(rhs),rhsMax =   1.64737673502557E-09  1.31462131143125E-02
 cg2d: Sum(rhs),rhsMax =   1.64746474795585E-09  1.31460253543766E-02
 cg2d: Sum(rhs),rhsMax =   1.64753913289850E-09  1.31458366030227E-02
 cg2d: Sum(rhs),rhsMax =   1.64761651544332E-09  1.31456468772843E-02
 cg2d: Sum(rhs),rhsMax =   1.64767910426633E-09  1.31454561931634E-02
 cg2d: Sum(rhs),rhsMax =   1.64774993649530E-09  1.31452645780506E-02
 cg2d: Sum(rhs),rhsMax =   1.64781494005339E-09  1.31450720601093E-02
 cg2d: Sum(rhs),rhsMax =   1.64789881740290E-09  1.31448786726070E-02
 cg2d: Sum(rhs),rhsMax =   1.64796856716443E-09  1.31446844542059E-02
 cg2d: Sum(rhs),rhsMax =   1.64804156432830E-09  1.31444894463330E-02
 cg2d: Sum(rhs),rhsMax =   1.64811753133876E-09  1.31442936950302E-02
 cg2d: Sum(rhs),rhsMax =   1.64818403369793E-09  1.31440972497310E-02
 cg2d: Sum(rhs),rhsMax =   1.64825422754866E-09  1.31439001643666E-02
 cg2d: Sum(rhs),rhsMax =   1.64832900106937E-09  1.31437024959569E-02
 cg2d: Sum(rhs),rhsMax =   1.64840827099333E-09  1.31435043049930E-02
 cg2d: Sum(rhs),rhsMax =   1.64848290573616E-09  1.31433056532197E-02
 cg2d: Sum(rhs),rhsMax =   1.64856059359231E-09  1.31431066495758E-02
 cg2d: Sum(rhs),rhsMax =   1.64863919738245E-09  1.31429073836522E-02
 cg2d: Sum(rhs),rhsMax =   1.64871485908158E-09  1.31427079232326E-02
 cg2d: Sum(rhs),rhsMax =   1.64878297126414E-09  1.31425083392950E-02
 cg2d: Sum(rhs),rhsMax =   1.64885738396237E-09  1.31423087041842E-02
 cg2d: Sum(rhs),rhsMax =   1.64892571818953E-09  1.31421090905577E-02
 cg2d: Sum(rhs),rhsMax =   1.64899202625968E-09  1.31419095693746E-02
 cg2d: Sum(rhs),rhsMax =   1.64907096311673E-09  1.31417102141276E-02
 cg2d: Sum(rhs),rhsMax =   1.64913052658200E-09  1.31415110974503E-02
 cg2d: Sum(rhs),rhsMax =   1.64921110101801E-09  1.31413122913947E-02
 cg2d: Sum(rhs),rhsMax =   1.64927968504536E-09  1.31411138670419E-02
 cg2d: Sum(rhs),rhsMax =   1.64935667901212E-09  1.31409158959161E-02
 cg2d: Sum(rhs),rhsMax =   1.64943522729111E-09  1.31407184480601E-02
 cg2d: Sum(rhs),rhsMax =   1.64951569070482E-09  1.31405215896356E-02
 cg2d: Sum(rhs),rhsMax =   1.64958402493198E-09  1.31403253883913E-02
 cg2d: Sum(rhs),rhsMax =   1.64964772397802E-09  1.31401299089247E-02
 cg2d: Sum(rhs),rhsMax =   1.64971430960392E-09  1.31399352153873E-02
 cg2d: Sum(rhs),rhsMax =   1.64979874206495E-09  1.31397413661795E-02
 cg2d: Sum(rhs),rhsMax =   1.64985716755162E-09  1.31395484202461E-02
 cg2d: Sum(rhs),rhsMax =   1.64994329310275E-09  1.31393564326904E-02
 cg2d: Sum(rhs),rhsMax =   1.65002161933714E-09  1.31391654571001E-02
 cg2d: Sum(rhs),rhsMax =   1.65009467201216E-09  1.31389755422640E-02
 cg2d: Sum(rhs),rhsMax =   1.65017330355788E-09  1.31387867359639E-02
 cg2d: Sum(rhs),rhsMax =   1.65023150699994E-09  1.31385990821478E-02
 cg2d: Sum(rhs),rhsMax =   1.65030847321113E-09  1.31384126209257E-02
 cg2d: Sum(rhs),rhsMax =   1.65038505084425E-09  1.31382273913260E-02
 cg2d: Sum(rhs),rhsMax =   1.65046293298943E-09  1.31380434268569E-02
 cg2d: Sum(rhs),rhsMax =   1.65054206413551E-09  1.31378607574025E-02
 cg2d: Sum(rhs),rhsMax =   1.65061281309775E-09  1.31376794128480E-02
 cg2d: Sum(rhs),rhsMax =   1.65069050095390E-09  1.31374994175741E-02
 cg2d: Sum(rhs),rhsMax =   1.65076483038540E-09  1.31373207927945E-02
 cg2d: Sum(rhs),rhsMax =   1.65083291481238E-09  1.31371435550553E-02
 cg2d: Sum(rhs),rhsMax =   1.65089994452750E-09  1.31369677228280E-02
 cg2d: Sum(rhs),rhsMax =   1.65095806470283E-09  1.31367933066048E-02
 cg2d: Sum(rhs),rhsMax =   1.65103819504964E-09  1.31366203138052E-02
 cg2d: Sum(rhs),rhsMax =   1.65110250471834E-09  1.31364487905130E-02
 cg2d: Sum(rhs),rhsMax =   1.65117219896871E-09  1.31362786814731E-02
 cg2d: Sum(rhs),rhsMax =   1.65123431594694E-09  1.31361099902863E-02
 cg2d: Sum(rhs),rhsMax =   1.65131766594051E-09  1.31359427366898E-02
 cg2d: Sum(rhs),rhsMax =   1.65137453711495E-09  1.31357769139762E-02
 cg2d: Sum(rhs),rhsMax =   1.65144506403259E-09  1.31356125131710E-02
 cg2d: Sum(rhs),rhsMax =   1.65151650688422E-09  1.31354495226751E-02
 cg2d: Sum(rhs),rhsMax =   1.65159563803030E-09  1.31352879337553E-02
 cg2d: Sum(rhs),rhsMax =   1.65166624821467E-09  1.31351277340964E-02
 cg2d: Sum(rhs),rhsMax =   1.65173630328752E-09  1.31349689106412E-02
 cg2d: Sum(rhs),rhsMax =   1.65179955824435E-09  1.31348114477516E-02
 cg2d: Sum(rhs),rhsMax =   1.65188052125842E-09  1.31346553272961E-02
 cg2d: Sum(rhs),rhsMax =   1.65195537804586E-09  1.31345005319733E-02
 cg2d: Sum(rhs),rhsMax =   1.65201705093487E-09  1.31343470419843E-02
 cg2d: Sum(rhs),rhsMax =   1.65209323998994E-09  1.31341948359311E-02
 cg2d: Sum(rhs),rhsMax =   1.65215185976564E-09  1.31340438926578E-02
 cg2d: Sum(rhs),rhsMax =   1.65222194259407E-09  1.31338941930417E-02
 cg2d: Sum(rhs),rhsMax =   1.65228727921907E-09  1.31337457137816E-02
 cg2d: Sum(rhs),rhsMax =   1.65234942395287E-09  1.31335984349233E-02
 cg2d: Sum(rhs),rhsMax =   1.65241254013182E-09  1.31334523336830E-02
 cg2d: Sum(rhs),rhsMax =   1.65247218686382E-09  1.31333073902387E-02
 cg2d: Sum(rhs),rhsMax =   1.65251928807564E-09  1.31331635821216E-02
 cg2d: Sum(rhs),rhsMax =   1.65258098872023E-09  1.31330208881876E-02
 cg2d: Sum(rhs),rhsMax =   1.65264876783588E-09  1.31328792893247E-02
 cg2d: Sum(rhs),rhsMax =   1.65271099583642E-09  1.31327387659406E-02
 cg2d: Sum(rhs),rhsMax =   1.65277147523568E-09  1.31325992951332E-02
 cg2d: Sum(rhs),rhsMax =   1.65282365571784E-09  1.31324608597825E-02
 cg2d: Sum(rhs),rhsMax =   1.65288521758455E-09  1.31323234403122E-02
 cg2d: Sum(rhs),rhsMax =   1.65295069298743E-09  1.31321870199022E-02
 cg2d: Sum(rhs),rhsMax =   1.65302879717721E-09  1.31320515787438E-02
 cg2d: Sum(rhs),rhsMax =   1.65309405053549E-09  1.31319171023102E-02
 cg2d: Sum(rhs),rhsMax =   1.65314473221656E-09  1.31317835727362E-02
 cg2d: Sum(rhs),rhsMax =   1.65321817346964E-09  1.31316509755770E-02
 cg2d: Sum(rhs),rhsMax =   1.65330144019649E-09  1.31315192939468E-02
 cg2d: Sum(rhs),rhsMax =   1.65335695134772E-09  1.31313885168126E-02
 cg2d: Sum(rhs),rhsMax =   1.65342511904143E-09  1.31312586281486E-02
 cg2d: Sum(rhs),rhsMax =   1.65348981728819E-09  1.31311296154465E-02
 cg2d: Sum(rhs),rhsMax =   1.65355634740294E-09  1.31310014653559E-02
 cg2d: Sum(rhs),rhsMax =   1.65361299653277E-09  1.31308741664291E-02
 cg2d: Sum(rhs),rhsMax =   1.65367444737718E-09  1.31307477058188E-02
 cg2d: Sum(rhs),rhsMax =   1.65375332872308E-09  1.31306220704399E-02
 cg2d: Sum(rhs),rhsMax =   1.65380409367089E-09  1.31304972489029E-02
 cg2d: Sum(rhs),rhsMax =   1.65385782846528E-09  1.31303732300597E-02
 cg2d: Sum(rhs),rhsMax =   1.65392827211619E-09  1.31302500005437E-02
 cg2d: Sum(rhs),rhsMax =   1.65400257379211E-09  1.31301275487466E-02
 cg2d: Sum(rhs),rhsMax =   1.65405411589603E-09  1.31300058614070E-02
 cg2d: Sum(rhs),rhsMax =   1.65410901642460E-09  1.31298849259977E-02
 cg2d: Sum(rhs),rhsMax =   1.65417946007551E-09  1.31297647289285E-02
 cg2d: Sum(rhs),rhsMax =   1.65423030829004E-09  1.31296452550632E-02
 cg2d: Sum(rhs),rhsMax =   1.65427951892561E-09  1.31295264942835E-02
 cg2d: Sum(rhs),rhsMax =   1.65433841625706E-09  1.31294084244926E-02
 Computing Diagnostic #    26 "THETA   " (list#  1) Parms "SMR     MR      ", Count=     144
 Computing Diagnostic #    27 "SALT    " (list#  1) Parms "SMR     MR      ", Count=     144
 Computing Diagnostic #    30 "UVEL    " (list#  1) Parms "UUR     MR      ", Count=     144
             Vector  Mate for "UVEL    " :  Diagnostic #     31 "VVEL    " exists
 Computing Diagnostic #    32 "WVEL    " (list#  1) Parms "WM      LR      ", Count=     144
 Computing Diagnostic #    31 "VVEL    " (list#  1) Parms "VVR     MR      ", Count=     144
             Vector  Mate for "VVEL    " :  Diagnostic #     30 "UVEL    " exists
 Computing Diagnostic #   197 "BRGfwFlx" (list#  2) Parms "SM      MR      ", Count=     144
 Computing Diagnostic #   198 "BRGhtFlx" (list#  2) Parms "SM      MR      ", Count=     144
 Computing Diagnostic #   199 "BRGmltRt" (list#  2) Parms "SM      MR      ", Count=     144
 Computing Diagnostic #   201 "BRG_TauX" (list#  2) Parms "UU      MR      ", Count=    1728
 Computing Diagnostic #   202 "BRG_TauY" (list#  2) Parms "VV      MR      ", Count=    1728
 Computing Diagnostic #   203 "BRGhFacC" (list#  2) Parms "SM      MR      ", Count=    1728
 cg2d: Sum(rhs),rhsMax =   1.65440064425759E-09  1.31292910310297E-02
 cg2d: Sum(rhs),rhsMax =   1.65445995792268E-09  1.31291742999557E-02
 cg2d: Sum(rhs),rhsMax =   1.65452543332556E-09  1.31290582119115E-02
 cg2d: Sum(rhs),rhsMax =   1.65459121403977E-09  1.31289427454749E-02
 cg2d: Sum(rhs),rhsMax =   1.65465313672897E-09  1.31288278800617E-02
 cg2d: Sum(rhs),rhsMax =   1.65472652247090E-09  1.31287135951114E-02
 cg2d: Sum(rhs),rhsMax =   1.65477759273003E-09  1.31285998657225E-02
 cg2d: Sum(rhs),rhsMax =   1.65484123626491E-09  1.31284866679183E-02
 cg2d: Sum(rhs),rhsMax =   1.65491012560359E-09  1.31283739768927E-02
 cg2d: Sum(rhs),rhsMax =   1.65498376114570E-09  1.31282617629172E-02
 cg2d: Sum(rhs),rhsMax =   1.65504121518723E-09  1.31281499994895E-02
 cg2d: Sum(rhs),rhsMax =   1.65508717842044E-09  1.31280386552390E-02
 cg2d: Sum(rhs),rhsMax =   1.65516295114188E-09  1.31279276993532E-02
 cg2d: Sum(rhs),rhsMax =   1.65522967554566E-09  1.31278171003985E-02
 cg2d: Sum(rhs),rhsMax =   1.65529295825806E-09  1.31277068235778E-02
 cg2d: Sum(rhs),rhsMax =   1.65536326313109E-09  1.31275968333421E-02
 cg2d: Sum(rhs),rhsMax =   1.65543356800413E-09  1.31274870940047E-02
 cg2d: Sum(rhs),rhsMax =   1.65550051445251E-09  1.31273775688778E-02
 cg2d: Sum(rhs),rhsMax =   1.65554842057603E-09  1.31272682185837E-02
 cg2d: Sum(rhs),rhsMax =   1.65560118392527E-09  1.31271590069617E-02
 cg2d: Sum(rhs),rhsMax =   1.65566846344056E-09  1.31270498913403E-02
 cg2d: Sum(rhs),rhsMax =   1.65572125454538E-09  1.31269408323107E-02
 cg2d: Sum(rhs),rhsMax =   1.65577762611946E-09  1.31268317913064E-02
 cg2d: Sum(rhs),rhsMax =   1.65583882716369E-09  1.31267227238565E-02
 cg2d: Sum(rhs),rhsMax =   1.65589439382607E-09  1.31266135897697E-02
 cg2d: Sum(rhs),rhsMax =   1.65596186763040E-09  1.31265043481894E-02
 cg2d: Sum(rhs),rhsMax =   1.65602453972014E-09  1.31263949560869E-02
 cg2d: Sum(rhs),rhsMax =   1.65609084779028E-09  1.31262853727649E-02
 cg2d: Sum(rhs),rhsMax =   1.65615299252408E-09  1.31261755572894E-02
 cg2d: Sum(rhs),rhsMax =   1.65621338865662E-09  1.31260654682120E-02
 cg2d: Sum(rhs),rhsMax =   1.65627758730302E-09  1.31259550675047E-02
 cg2d: Sum(rhs),rhsMax =   1.65632424442563E-09  1.31258443138476E-02
 cg2d: Sum(rhs),rhsMax =   1.65638935900603E-09  1.31257331710465E-02
 cg2d: Sum(rhs),rhsMax =   1.65645058780584E-09  1.31256216015991E-02
 cg2d: Sum(rhs),rhsMax =   1.65650854144772E-09  1.31255095697228E-02
 cg2d: Sum(rhs),rhsMax =   1.65656166561945E-09  1.31253970425751E-02
 cg2d: Sum(rhs),rhsMax =   1.65662900064589E-09  1.31252839866303E-02
 cg2d: Sum(rhs),rhsMax =   1.65667937701564E-09  1.31251703715365E-02
 cg2d: Sum(rhs),rhsMax =   1.65673630370122E-09  1.31250561686074E-02
 cg2d: Sum(rhs),rhsMax =   1.65679292507548E-09  1.31249413510810E-02
 cg2d: Sum(rhs),rhsMax =   1.65686028785750E-09  1.31248258938976E-02
 cg2d: Sum(rhs),rhsMax =   1.65690555720133E-09  1.31247097741464E-02
 cg2d: Sum(rhs),rhsMax =   1.65698965659544E-09  1.31245929729881E-02
 cg2d: Sum(rhs),rhsMax =   1.65704128196609E-09  1.31244754692616E-02
 cg2d: Sum(rhs),rhsMax =   1.65709587718332E-09  1.31243572520847E-02
 cg2d: Sum(rhs),rhsMax =   1.65715394184751E-09  1.31242383050308E-02
 cg2d: Sum(rhs),rhsMax =   1.65720545619585E-09  1.31241186205979E-02
 cg2d: Sum(rhs),rhsMax =   1.65727306877805E-09  1.31239981892141E-02
 cg2d: Sum(rhs),rhsMax =   1.65732497170445E-09  1.31238770062259E-02
 cg2d: Sum(rhs),rhsMax =   1.65739888480232E-09  1.31237550703616E-02
 cg2d: Sum(rhs),rhsMax =   1.65747557345775E-09  1.31236323796230E-02
 cg2d: Sum(rhs),rhsMax =   1.65753782921385E-09  1.31235089393267E-02
 cg2d: Sum(rhs),rhsMax =   1.65759320158720E-09  1.31233847543689E-02
 cg2d: Sum(rhs),rhsMax =   1.65766114723631E-09  1.31232598318979E-02
 cg2d: Sum(rhs),rhsMax =   1.65772393034835E-09  1.31231341844451E-02
 cg2d: Sum(rhs),rhsMax =   1.65777885863250E-09  1.31230078220165E-02
 cg2d: Sum(rhs),rhsMax =   1.65784688754833E-09  1.31228807619715E-02
 cg2d: Sum(rhs),rhsMax =   1.65789282302597E-09  1.31227530222848E-02
 cg2d: Sum(rhs),rhsMax =   1.65795066564556E-09  1.31226246299174E-02
 cg2d: Sum(rhs),rhsMax =   1.65800789764248E-09  1.31224955549765E-02
 cg2d: Sum(rhs),rhsMax =   1.65807548246910E-09  1.31223658656570E-02
 cg2d: Sum(rhs),rhsMax =   1.65814856289970E-09  1.31222355033160E-02
 cg2d: Sum(rhs),rhsMax =   1.65821326114646E-09  1.31221045277961E-02
 cg2d: Sum(rhs),rhsMax =   1.65828442644234E-09  1.31219728219836E-02
 cg2d: Sum(rhs),rhsMax =   1.65834507237506E-09  1.31218403855943E-02
 cg2d: Sum(rhs),rhsMax =   1.65842362065405E-09  1.31217072039429E-02
 cg2d: Sum(rhs),rhsMax =   1.65851829492247E-09  1.31213683167040E-02
 cg2d: Sum(rhs),rhsMax =   1.65861843703929E-09  1.31209774702434E-02
 cg2d: Sum(rhs),rhsMax =   1.65871397173056E-09  1.31205896038666E-02
 cg2d: Sum(rhs),rhsMax =   1.65880881253244E-09  1.31202052110299E-02
 cg2d: Sum(rhs),rhsMax =   1.65890634562516E-09  1.31198244571110E-02
 cg2d: Sum(rhs),rhsMax =   1.65900679305331E-09  1.31194484258298E-02
 cg2d: Sum(rhs),rhsMax =   1.65911587246548E-09  1.31190782464925E-02
 cg2d: Sum(rhs),rhsMax =   1.65921235084632E-09  1.31187149926878E-02
 cg2d: Sum(rhs),rhsMax =   1.65930472140197E-09  1.31183597430130E-02
 cg2d: Sum(rhs),rhsMax =   1.65938845997360E-09  1.31180135150092E-02
 cg2d: Sum(rhs),rhsMax =   1.65947827701629E-09  1.31176772583656E-02
 cg2d: Sum(rhs),rhsMax =   1.65957139697248E-09  1.31173519038187E-02
 cg2d: Sum(rhs),rhsMax =   1.65966057563693E-09  1.31170383309723E-02
 cg2d: Sum(rhs),rhsMax =   1.65973559895782E-09  1.31167373661792E-02
 cg2d: Sum(rhs),rhsMax =   1.65982014244115E-09  1.31164497768159E-02
 cg2d: Sum(rhs),rhsMax =   1.65990549083617E-09  1.31161762737437E-02
 cg2d: Sum(rhs),rhsMax =   1.65998562118297E-09  1.31159175056254E-02
 cg2d: Sum(rhs),rhsMax =   1.66005517665546E-09  1.31156740594762E-02
 cg2d: Sum(rhs),rhsMax =   1.66012487090583E-09  1.31154464570895E-02
 cg2d: Sum(rhs),rhsMax =   1.66019858971467E-09  1.31152351537630E-02
 cg2d: Sum(rhs),rhsMax =   1.66027303016847E-09  1.31150405362049E-02
 cg2d: Sum(rhs),rhsMax =   1.66034458404241E-09  1.31148629207143E-02
 cg2d: Sum(rhs),rhsMax =   1.66040250992872E-09  1.31147025538281E-02
 cg2d: Sum(rhs),rhsMax =   1.66047314786866E-09  1.31145596097952E-02
 cg2d: Sum(rhs),rhsMax =   1.66053842898251E-09  1.31144341944611E-02
 cg2d: Sum(rhs),rhsMax =   1.66061703277265E-09  1.31143263398624E-02
 cg2d: Sum(rhs),rhsMax =   1.66068198081959E-09  1.31142360060143E-02
 cg2d: Sum(rhs),rhsMax =   1.66075361796025E-09  1.31141630828467E-02
 cg2d: Sum(rhs),rhsMax =   1.66081673413920E-09  1.31141073929338E-02
 cg2d: Sum(rhs),rhsMax =   1.66086633335283E-09  1.31140686843020E-02
 cg2d: Sum(rhs),rhsMax =   1.66092326003842E-09  1.31140466425972E-02
 cg2d: Sum(rhs),rhsMax =   1.66097799403353E-09  1.31140408844786E-02
 cg2d: Sum(rhs),rhsMax =   1.66102068210883E-09  1.31140509671963E-02
 cg2d: Sum(rhs),rhsMax =   1.66107391730286E-09  1.31140763808556E-02
 cg2d: Sum(rhs),rhsMax =   1.66111374655387E-09  1.31141165627865E-02
 cg2d: Sum(rhs),rhsMax =   1.66115005084677E-09  1.31141708869576E-02
 cg2d: Sum(rhs),rhsMax =   1.66119085154293E-09  1.31142386807310E-02
 cg2d: Sum(rhs),rhsMax =   1.66122746114716E-09  1.31143192158515E-02
 cg2d: Sum(rhs),rhsMax =   1.66127758771673E-09  1.31144117200279E-02
 cg2d: Sum(rhs),rhsMax =   1.66129451861785E-09  1.31145153772103E-02
 cg2d: Sum(rhs),rhsMax =   1.66133526380285E-09  1.31146293274820E-02
 cg2d: Sum(rhs),rhsMax =   1.66137886781215E-09  1.31147526806915E-02
 cg2d: Sum(rhs),rhsMax =   1.66140906587842E-09  1.31148845085459E-02
 cg2d: Sum(rhs),rhsMax =   1.66143282465114E-09  1.31150238575682E-02
 cg2d: Sum(rhs),rhsMax =   1.66145583402333E-09  1.31151697478776E-02
 cg2d: Sum(rhs),rhsMax =   1.66148428348833E-09  1.31153211803910E-02
 cg2d: Sum(rhs),rhsMax =   1.66152172575984E-09  1.31154771405692E-02
 cg2d: Sum(rhs),rhsMax =   1.66155070258078E-09  1.31156365997549E-02
 cg2d: Sum(rhs),rhsMax =   1.66158942160877E-09  1.31157985230956E-02
 cg2d: Sum(rhs),rhsMax =   1.66160887826727E-09  1.31159618716196E-02
 cg2d: Sum(rhs),rhsMax =   1.66164146331305E-09  1.31161256072917E-02
 cg2d: Sum(rhs),rhsMax =   1.66167241077986E-09  1.31162887013657E-02
 cg2d: Sum(rhs),rhsMax =   1.66170310844649E-09  1.31164501287615E-02
 cg2d: Sum(rhs),rhsMax =   1.66173047544405E-09  1.31166088840356E-02
 cg2d: Sum(rhs),rhsMax =   1.66175767590815E-09  1.31167639778433E-02
 cg2d: Sum(rhs),rhsMax =   1.66179048299853E-09  1.31169144396015E-02
 cg2d: Sum(rhs),rhsMax =   1.66182911875978E-09  1.31170593314743E-02
 cg2d: Sum(rhs),rhsMax =   1.66185570860122E-09  1.31171977384316E-02
 cg2d: Sum(rhs),rhsMax =   1.66189245698334E-09  1.31173287794025E-02
 cg2d: Sum(rhs),rhsMax =   1.66191510553304E-09  1.31174516136087E-02
 cg2d: Sum(rhs),rhsMax =   1.66194308315326E-09  1.31175654372262E-02
 cg2d: Sum(rhs),rhsMax =   1.66196922890549E-09  1.31176694902536E-02
 cg2d: Sum(rhs),rhsMax =   1.66200514462034E-09  1.31177630560550E-02
 cg2d: Sum(rhs),rhsMax =   1.66205005314168E-09  1.31178454690746E-02
 cg2d: Sum(rhs),rhsMax =   1.66208802276913E-09  1.31179161087025E-02
 cg2d: Sum(rhs),rhsMax =   1.66213201535648E-09  1.31179744094505E-02
 cg2d: Sum(rhs),rhsMax =   1.66217703490013E-09  1.31180198567966E-02
 cg2d: Sum(rhs),rhsMax =   1.66223854125569E-09  1.31180519929230E-02
 cg2d: Sum(rhs),rhsMax =   1.66228669717938E-09  1.31180704131196E-02
 cg2d: Sum(rhs),rhsMax =   1.66232955178813E-09  1.31180747716583E-02
 cg2d: Sum(rhs),rhsMax =   1.66236216458948E-09  1.31180647786103E-02
 cg2d: Sum(rhs),rhsMax =   1.66241723165150E-09  1.31180402017955E-02
 cg2d: Sum(rhs),rhsMax =   1.66247413058151E-09  1.31180008666041E-02
 cg2d: Sum(rhs),rhsMax =   1.66253311117970E-09  1.31179466552972E-02
 cg2d: Sum(rhs),rhsMax =   1.66258354306059E-09  1.31178775102763E-02
 cg2d: Sum(rhs),rhsMax =   1.66265304302193E-09  1.31177934259080E-02
 cg2d: Sum(rhs),rhsMax =   1.66271638124549E-09  1.31176944557372E-02
 cg2d: Sum(rhs),rhsMax =   1.66276661883735E-09  1.31175807069202E-02
 Computing Diagnostic #    26 "THETA   " (list#  1) Parms "SMR     MR      ", Count=     144
 Computing Diagnostic #    27 "SALT    " (list#  1) Parms "SMR     MR      ", Count=     144
 Computing Diagnostic #    30 "UVEL    " (list#  1) Parms "UUR     MR      ", Count=     144
             Vector  Mate for "UVEL    " :  Diagnostic #     31 "VVEL    " exists
 Computing Diagnostic #    32 "WVEL    " (list#  1) Parms "WM      LR      ", Count=     144
 Computing Diagnostic #    31 "VVEL    " (list#  1) Parms "VVR     MR      ", Count=     144
             Vector  Mate for "VVEL    " :  Diagnostic #     30 "UVEL    " exists
 Computing Diagnostic #   197 "BRGfwFlx" (list#  2) Parms "SM      MR      ", Count=     144
 Computing Diagnostic #   198 "BRGhtFlx" (list#  2) Parms "SM      MR      ", Count=     144
 Computing Diagnostic #   199 "BRGmltRt" (list#  2) Parms "SM      MR      ", Count=     144
 Computing Diagnostic #   201 "BRG_TauX" (list#  2) Parms "UU      MR      ", Count=    1728
 Computing Diagnostic #   202 "BRG_TauY" (list#  2) Parms "VV      MR      ", Count=    1728
 Computing Diagnostic #   203 "BRGhFacC" (list#  2) Parms "SM      MR      ", Count=    1728
 cg2d: Sum(rhs),rhsMax =   1.66283292690750E-09  1.31174523397259E-02
 cg2d: Sum(rhs),rhsMax =   1.66288799396952E-09  1.31173095660331E-02
 cg2d: Sum(rhs),rhsMax =   1.66295746617529E-09  1.31171526490165E-02
 cg2d: Sum(rhs),rhsMax =   1.66303454340877E-09  1.31169818979668E-02
 cg2d: Sum(rhs),rhsMax =   1.66310942795178E-09  1.31167976698659E-02
 cg2d: Sum(rhs),rhsMax =   1.66318767091944E-09  1.31166003655523E-02
 cg2d: Sum(rhs),rhsMax =   1.66325578310200E-09  1.31163904678847E-02
 cg2d: Sum(rhs),rhsMax =   1.66333372075833E-09  1.31161684133965E-02
 cg2d: Sum(rhs),rhsMax =   1.66340871632364E-09  1.31159347233812E-02
 cg2d: Sum(rhs),rhsMax =   1.66349614638683E-09  1.31156899444150E-02
 cg2d: Sum(rhs),rhsMax =   1.66356520225897E-09  1.31154346588864E-02
 cg2d: Sum(rhs),rhsMax =   1.66364585996170E-09  1.31151694721196E-02
 cg2d: Sum(rhs),rhsMax =   1.66372546295257E-09  1.31148950188137E-02
 cg2d: Sum(rhs),rhsMax =   1.66380856314596E-09  1.31146119526622E-02
 cg2d: Sum(rhs),rhsMax =   1.66389438338577E-09  1.31143209464552E-02
 cg2d: Sum(rhs),rhsMax =   1.66398156364878E-09  1.31140226879079E-02
 cg2d: Sum(rhs),rhsMax =   1.66407235213661E-09  1.31137178750908E-02
 cg2d: Sum(rhs),rhsMax =   1.66415584090807E-09  1.31134072178255E-02
 cg2d: Sum(rhs),rhsMax =   1.66425290215599E-09  1.31130914305724E-02
 cg2d: Sum(rhs),rhsMax =   1.66433958281864E-09  1.31127712282481E-02
 cg2d: Sum(rhs),rhsMax =   1.66442012949908E-09  1.31124473278534E-02
 cg2d: Sum(rhs),rhsMax =   1.66451188943206E-09  1.31121204438037E-02
 cg2d: Sum(rhs),rhsMax =   1.66459657169327E-09  1.31117912789624E-02
 cg2d: Sum(rhs),rhsMax =   1.66468083762084E-09  1.31114605318095E-02
 cg2d: Sum(rhs),rhsMax =   1.66476132879012E-09  1.31111288866551E-02
 cg2d: Sum(rhs),rhsMax =   1.66486172070712E-09  1.31107970144745E-02
 cg2d: Sum(rhs),rhsMax =   1.66496866293997E-09  1.31104655653378E-02
 cg2d: Sum(rhs),rhsMax =   1.66505062515476E-09  1.31101351760015E-02
 cg2d: Sum(rhs),rhsMax =   1.66514393939998E-09  1.31098064532119E-02
 cg2d: Sum(rhs),rhsMax =   1.66523689282272E-09  1.31094799844823E-02
 cg2d: Sum(rhs),rhsMax =   1.66534380729999E-09  1.31091563309364E-02
 cg2d: Sum(rhs),rhsMax =   1.66543781543460E-09  1.31088360233525E-02
 cg2d: Sum(rhs),rhsMax =   1.66551714086971E-09  1.31085195650435E-02
 cg2d: Sum(rhs),rhsMax =   1.66561656134157E-09  1.31082074287349E-02
 cg2d: Sum(rhs),rhsMax =   1.66569261161875E-09  1.31079000516672E-02
 cg2d: Sum(rhs),rhsMax =   1.66576699656140E-09  1.31075978389386E-02
 cg2d: Sum(rhs),rhsMax =   1.66586408556491E-09  1.31073011642121E-02
 cg2d: Sum(rhs),rhsMax =   1.66595617856480E-09  1.31070103594049E-02
 cg2d: Sum(rhs),rhsMax =   1.66602567852614E-09  1.31067257266569E-02
 cg2d: Sum(rhs),rhsMax =   1.66610783502996E-09  1.31064475273586E-02
 cg2d: Sum(rhs),rhsMax =   1.66618077668268E-09  1.31061759873887E-02
 cg2d: Sum(rhs),rhsMax =   1.66626334952014E-09  1.31059112964135E-02
 cg2d: Sum(rhs),rhsMax =   1.66635091836120E-09  1.31056536058152E-02
 cg2d: Sum(rhs),rhsMax =   1.66643762677943E-09  1.31054030314467E-02
 cg2d: Sum(rhs),rhsMax =   1.66652705524406E-09  1.31051596524506E-02
 cg2d: Sum(rhs),rhsMax =   1.66659558376026E-09  1.31049235127412E-02
 cg2d: Sum(rhs),rhsMax =   1.66666838663510E-09  1.31046946202826E-02
 cg2d: Sum(rhs),rhsMax =   1.66674271606659E-09  1.31044729479878E-02
 cg2d: Sum(rhs),rhsMax =   1.66681160540527E-09  1.31042584384834E-02
 cg2d: Sum(rhs),rhsMax =   1.66687219582684E-09  1.31040510003605E-02
 cg2d: Sum(rhs),rhsMax =   1.66694191783279E-09  1.31038505089758E-02
 cg2d: Sum(rhs),rhsMax =   1.66701469295205E-09  1.31036568159024E-02
 cg2d: Sum(rhs),rhsMax =   1.66708702398211E-09  1.31034697408255E-02
 cg2d: Sum(rhs),rhsMax =   1.66715494187564E-09  1.31032890757460E-02
 cg2d: Sum(rhs),rhsMax =   1.66721039751572E-09  1.31031145922904E-02
 cg2d: Sum(rhs),rhsMax =   1.66727145978207E-09  1.31029460304687E-02
 cg2d: Sum(rhs),rhsMax =   1.66733218898152E-09  1.31027831175734E-02
 cg2d: Sum(rhs),rhsMax =   1.66739388962611E-09  1.31026255544825E-02
 cg2d: Sum(rhs),rhsMax =   1.66745783847233E-09  1.31024730257405E-02
 cg2d: Sum(rhs),rhsMax =   1.66752031627304E-09  1.31023252009013E-02
 cg2d: Sum(rhs),rhsMax =   1.66757674335827E-09  1.31021817339731E-02
 cg2d: Sum(rhs),rhsMax =   1.66765379283618E-09  1.31020422673057E-02
 cg2d: Sum(rhs),rhsMax =   1.66771854659409E-09  1.31019064327713E-02
 cg2d: Sum(rhs),rhsMax =   1.66777719412536E-09  1.31017738520925E-02
 cg2d: Sum(rhs),rhsMax =   1.66784674959786E-09  1.31016441429154E-02
 cg2d: Sum(rhs),rhsMax =   1.66791216948958E-09  1.31015169174055E-02
 cg2d: Sum(rhs),rhsMax =   1.66798297396298E-09  1.31013917851925E-02
 cg2d: Sum(rhs),rhsMax =   1.66804248191710E-09  1.31012683541175E-02
 cg2d: Sum(rhs),rhsMax =   1.66808891699510E-09  1.31011529859436E-02
 cg2d: Sum(rhs),rhsMax =   1.66815083968430E-09  1.31010506230826E-02
 cg2d: Sum(rhs),rhsMax =   1.66820746105856E-09  1.31009484714390E-02
 cg2d: Sum(rhs),rhsMax =   1.66827687775317E-09  1.31008460033705E-02
 cg2d: Sum(rhs),rhsMax =   1.66832878067957E-09  1.31007427167075E-02
 cg2d: Sum(rhs),rhsMax =   1.66840083415387E-09  1.31006380755908E-02
 cg2d: Sum(rhs),rhsMax =   1.66846539362275E-09  1.31005315818883E-02
 cg2d: Sum(rhs),rhsMax =   1.66852759386771E-09  1.31004227585895E-02
 cg2d: Sum(rhs),rhsMax =   1.66860583683537E-09  1.31003111502992E-02
 cg2d: Sum(rhs),rhsMax =   1.66866148676448E-09  1.31001963284261E-02
 cg2d: Sum(rhs),rhsMax =   1.66871275131264E-09  1.31000778825543E-02
 cg2d: Sum(rhs),rhsMax =   1.66876903961999E-09  1.30999554338376E-02
 cg2d: Sum(rhs),rhsMax =   1.66883060148670E-09  1.30998286349338E-02
 cg2d: Sum(rhs),rhsMax =   1.66889396746583E-09  1.30996971646395E-02
 cg2d: Sum(rhs),rhsMax =   1.66894992270628E-09  1.30995607346495E-02
 cg2d: Sum(rhs),rhsMax =   1.66901251152929E-09  1.30994190893974E-02
 cg2d: Sum(rhs),rhsMax =   1.66908237231311E-09  1.30992720026357E-02
 cg2d: Sum(rhs),rhsMax =   1.66916694355201E-09  1.30991192847421E-02
 cg2d: Sum(rhs),rhsMax =   1.66923930233764E-09  1.30989607773398E-02
 cg2d: Sum(rhs),rhsMax =   1.66932823120192E-09  1.30987963574400E-02
 cg2d: Sum(rhs),rhsMax =   1.66939007062439E-09  1.30986259344778E-02
 cg2d: Sum(rhs),rhsMax =   1.66946054203088E-09  1.30984494529123E-02
 cg2d: Sum(rhs),rhsMax =   1.66953126323754E-09  1.30982668892198E-02
 cg2d: Sum(rhs),rhsMax =   1.66960353875645E-09  1.30980782534545E-02
 cg2d: Sum(rhs),rhsMax =   1.66967004111562E-09  1.30978835853539E-02
 cg2d: Sum(rhs),rhsMax =   1.66975760995669E-09  1.30976829604484E-02
 cg2d: Sum(rhs),rhsMax =   1.66982594418386E-09  1.30974764823918E-02
 cg2d: Sum(rhs),rhsMax =   1.66989119754213E-09  1.30972642814232E-02
 cg2d: Sum(rhs),rhsMax =   1.66997390915746E-09  1.30970465202653E-02
 cg2d: Sum(rhs),rhsMax =   1.67005811957388E-09  1.30968233865068E-02
 cg2d: Sum(rhs),rhsMax =   1.67013533558524E-09  1.30965950938877E-02
 cg2d: Sum(rhs),rhsMax =   1.67022320973764E-09  1.30963618784726E-02
 cg2d: Sum(rhs),rhsMax =   1.67030855813266E-09  1.30961240008174E-02
 cg2d: Sum(rhs),rhsMax =   1.67038424758736E-09  1.30958817362693E-02
 cg2d: Sum(rhs),rhsMax =   1.67046582122410E-09  1.30956353882712E-02
 cg2d: Sum(rhs),rhsMax =   1.67053643140846E-09  1.30953852861009E-02
 cg2d: Sum(rhs),rhsMax =   1.67063443634596E-09  1.30951317445076E-02
 cg2d: Sum(rhs),rhsMax =   1.67072017331904E-09  1.30948751119265E-02
 cg2d: Sum(rhs),rhsMax =   1.67081973256877E-09  1.30946157484407E-02
 cg2d: Sum(rhs),rhsMax =   1.67091204761327E-09  1.30943540191123E-02
 cg2d: Sum(rhs),rhsMax =   1.67099367676116E-09  1.30940902956373E-02
 cg2d: Sum(rhs),rhsMax =   1.67108107906877E-09  1.30938249552248E-02
 cg2d: Sum(rhs),rhsMax =   1.67116154248248E-09  1.30935583784558E-02
 cg2d: Sum(rhs),rhsMax =   1.67124514227623E-09  1.30932909475806E-02
 cg2d: Sum(rhs),rhsMax =   1.67132294115468E-09  1.30930230427403E-02
 cg2d: Sum(rhs),rhsMax =   1.67140840057201E-09  1.30927550421420E-02
 cg2d: Sum(rhs),rhsMax =   1.67149100116504E-09  1.30924873198091E-02
 cg2d: Sum(rhs),rhsMax =   1.67156888331021E-09  1.30922202453656E-02
 cg2d: Sum(rhs),rhsMax =   1.67163627384781E-09  1.30919541766377E-02
 cg2d: Sum(rhs),rhsMax =   1.67172564680129E-09  1.30916894652714E-02
 cg2d: Sum(rhs),rhsMax =   1.67182062638105E-09  1.30914264965336E-02
 cg2d: Sum(rhs),rhsMax =   1.67189606603557E-09  1.30911655552369E-02
 cg2d: Sum(rhs),rhsMax =   1.67197414246978E-09  1.30909069537339E-02
 cg2d: Sum(rhs),rhsMax =   1.67205338463816E-09  1.30906509955645E-02
 cg2d: Sum(rhs),rhsMax =   1.67215491453376E-09  1.30903979645509E-02
 cg2d: Sum(rhs),rhsMax =   1.67223154767804E-09  1.30901481300659E-02
 cg2d: Sum(rhs),rhsMax =   1.67231262171441E-09  1.30899017436384E-02
 cg2d: Sum(rhs),rhsMax =   1.67240754578302E-09  1.30896590413715E-02
 cg2d: Sum(rhs),rhsMax =   1.67246583249181E-09  1.30894202389768E-02
 cg2d: Sum(rhs),rhsMax =   1.67254485261559E-09  1.30891855344191E-02
 cg2d: Sum(rhs),rhsMax =   1.67260566508176E-09  1.30889551070295E-02
 cg2d: Sum(rhs),rhsMax =   1.67266930861665E-09  1.30887291172686E-02
 cg2d: Sum(rhs),rhsMax =   1.67274805118467E-09  1.30885077067017E-02
 cg2d: Sum(rhs),rhsMax =   1.67280578278195E-09  1.30882909946824E-02
 cg2d: Sum(rhs),rhsMax =   1.67286914876108E-09  1.30880790863538E-02
 cg2d: Sum(rhs),rhsMax =   1.67295227671005E-09  1.30878720659029E-02
 cg2d: Sum(rhs),rhsMax =   1.67302358078381E-09  1.30876699988413E-02
 cg2d: Sum(rhs),rhsMax =   1.67310668097720E-09  1.30874729324174E-02
 cg2d: Sum(rhs),rhsMax =   1.67318142674233E-09  1.30872808984814E-02
 cg2d: Sum(rhs),rhsMax =   1.67325839295351E-09  1.30870939111518E-02
 cg2d: Sum(rhs),rhsMax =   1.67332023237599E-09  1.30869119670075E-02
 cg2d: Sum(rhs),rhsMax =   1.67338867762545E-09  1.30867350506203E-02
 cg2d: Sum(rhs),rhsMax =   1.67345104440386E-09  1.30865631280163E-02
 cg2d: Sum(rhs),rhsMax =   1.67351532631699E-09  1.30863961528809E-02
 cg2d: Sum(rhs),rhsMax =   1.67360231229097E-09  1.30862340689417E-02
 cg2d: Sum(rhs),rhsMax =   1.67367109060734E-09  1.30860768051625E-02
 Computing Diagnostic #    26 "THETA   " (list#  1) Parms "SMR     MR      ", Count=     144
 Computing Diagnostic #    27 "SALT    " (list#  1) Parms "SMR     MR      ", Count=     144
 Computing Diagnostic #    30 "UVEL    " (list#  1) Parms "UUR     MR      ", Count=     144
             Vector  Mate for "UVEL    " :  Diagnostic #     31 "VVEL    " exists
 Computing Diagnostic #    32 "WVEL    " (list#  1) Parms "WM      LR      ", Count=     144
 Computing Diagnostic #    31 "VVEL    " (list#  1) Parms "VVR     MR      ", Count=     144
             Vector  Mate for "VVEL    " :  Diagnostic #     30 "UVEL    " exists
 Computing Diagnostic #   197 "BRGfwFlx" (list#  2) Parms "SM      MR      ", Count=     144
 Computing Diagnostic #   198 "BRGhtFlx" (list#  2) Parms "SM      MR      ", Count=     144
 Computing Diagnostic #   199 "BRGmltRt" (list#  2) Parms "SM      MR      ", Count=     144
 Computing Diagnostic #   201 "BRG_TauX" (list#  2) Parms "UU      MR      ", Count=    1728
 Computing Diagnostic #   202 "BRG_TauY" (list#  2) Parms "VV      MR      ", Count=    1728
 Computing Diagnostic #   203 "BRGhFacC" (list#  2) Parms "SM      MR      ", Count=    1728
 cg2d: Sum(rhs),rhsMax =   1.67374383797103E-09  1.30859242795674E-02
 cg2d: Sum(rhs),rhsMax =   1.67380401205897E-09  1.30857764036037E-02
 cg2d: Sum(rhs),rhsMax =   1.67386646210410E-09  1.30856330746217E-02
 cg2d: Sum(rhs),rhsMax =   1.67393712779962E-09  1.30854941882350E-02
 cg2d: Sum(rhs),rhsMax =   1.67401068007500E-09  1.30853596310274E-02
 cg2d: Sum(rhs),rhsMax =   1.67407543383291E-09  1.30852292824128E-02
 cg2d: Sum(rhs),rhsMax =   1.67413111151760E-09  1.30851030198769E-02
 cg2d: Sum(rhs),rhsMax =   1.67418892638160E-09  1.30849807156748E-02
 cg2d: Sum(rhs),rhsMax =   1.67424982211450E-09  1.30848622395948E-02
 cg2d: Sum(rhs),rhsMax =   1.67430674880009E-09  1.30847474611054E-02
 cg2d: Sum(rhs),rhsMax =   1.67437008702365E-09  1.30846362509700E-02
 cg2d: Sum(rhs),rhsMax =   1.67442953946662E-09  1.30845284732831E-02
 cg2d: Sum(rhs),rhsMax =   1.67448294119410E-09  1.30844240016236E-02
 cg2d: Sum(rhs),rhsMax =   1.67454869415273E-09  1.30843227066233E-02
 cg2d: Sum(rhs),rhsMax =   1.67460073585701E-09  1.30842244620633E-02
 cg2d: Sum(rhs),rhsMax =   1.67467270606458E-09  1.30841291453017E-02
 cg2d: Sum(rhs),rhsMax =   1.67473804268958E-09  1.30840366410153E-02
 cg2d: Sum(rhs),rhsMax =   1.67480282420307E-09  1.30839468332202E-02
 cg2d: Sum(rhs),rhsMax =   1.67484942581453E-09  1.30838596128859E-02
 cg2d: Sum(rhs),rhsMax =   1.67489763724937E-09  1.30837748772640E-02
 cg2d: Sum(rhs),rhsMax =   1.67497229974778E-09  1.30836925285154E-02
 cg2d: Sum(rhs),rhsMax =   1.67503350079201E-09  1.30836124745748E-02
 cg2d: Sum(rhs),rhsMax =   1.67509697779344E-09  1.30835346285085E-02
 cg2d: Sum(rhs),rhsMax =   1.67514419002757E-09  1.30834589130759E-02
 cg2d: Sum(rhs),rhsMax =   1.67519592642051E-09  1.30833852522439E-02
 cg2d: Sum(rhs),rhsMax =   1.67524377703288E-09  1.30833135792949E-02
 cg2d: Sum(rhs),rhsMax =   1.67530020411810E-09  1.30832438301586E-02
 cg2d: Sum(rhs),rhsMax =   1.67535024742094E-09  1.30831759519771E-02
 cg2d: Sum(rhs),rhsMax =   1.67539584983167E-09  1.30831098919892E-02
 cg2d: Sum(rhs),rhsMax =   1.67545535778579E-09  1.30830456058828E-02
 cg2d: Sum(rhs),rhsMax =   1.67549460416971E-09  1.30829830533539E-02
 cg2d: Sum(rhs),rhsMax =   1.67554575769557E-09  1.30829221964964E-02
 cg2d: Sum(rhs),rhsMax =   1.67560076924644E-09  1.30828630046311E-02
 cg2d: Sum(rhs),rhsMax =   1.67566879816228E-09  1.30828054496174E-02
 cg2d: Sum(rhs),rhsMax =   1.67573127596299E-09  1.30827495084721E-02
 cg2d: Sum(rhs),rhsMax =   1.67577748899639E-09  1.30826951573397E-02
 cg2d: Sum(rhs),rhsMax =   1.67581376553372E-09  1.30826423733000E-02
 cg2d: Sum(rhs),rhsMax =   1.67589123134526E-09  1.30825911363680E-02
 cg2d: Sum(rhs),rhsMax =   1.67594413347238E-09  1.30825414267728E-02
 cg2d: Sum(rhs),rhsMax =   1.67599897848980E-09  1.30824932231659E-02
 cg2d: Sum(rhs),rhsMax =   1.67603603218325E-09  1.30824465073917E-02
 cg2d: Sum(rhs),rhsMax =   1.67608307788392E-09  1.30824012543614E-02
 cg2d: Sum(rhs),rhsMax =   1.67612709822684E-09  1.30823574418332E-02
 cg2d: Sum(rhs),rhsMax =   1.67618341428977E-09  1.30823150433605E-02
 cg2d: Sum(rhs),rhsMax =   1.67623243063630E-09  1.30822740273539E-02
 cg2d: Sum(rhs),rhsMax =   1.67628902425498E-09  1.30822343610269E-02
 cg2d: Sum(rhs),rhsMax =   1.67634059411448E-09  1.30821960044283E-02
 cg2d: Sum(rhs),rhsMax =   1.67639058190616E-09  1.30821589155627E-02
 cg2d: Sum(rhs),rhsMax =   1.67643612880575E-09  1.30821230439416E-02
 cg2d: Sum(rhs),rhsMax =   1.67648858684366E-09  1.30820883344892E-02
 cg2d: Sum(rhs),rhsMax =   1.67654495841774E-09  1.30820547268773E-02
 cg2d: Sum(rhs),rhsMax =   1.67659389149755E-09  1.30820221525111E-02
 cg2d: Sum(rhs),rhsMax =   1.67664196415451E-09  1.30819905355767E-02
 cg2d: Sum(rhs),rhsMax =   1.67670435868850E-09  1.30819597948949E-02
 cg2d: Sum(rhs),rhsMax =   1.67676023066221E-09  1.30819298406039E-02
 cg2d: Sum(rhs),rhsMax =   1.67680413998283E-09  1.30819005746443E-02
 cg2d: Sum(rhs),rhsMax =   1.67684710561389E-09  1.30818718933884E-02
 cg2d: Sum(rhs),rhsMax =   1.67691549535220E-09  1.30818436826878E-02
 cg2d: Sum(rhs),rhsMax =   1.67696720398958E-09  1.30818158247732E-02
 cg2d: Sum(rhs),rhsMax =   1.67701635911399E-09  1.30817881917836E-02
 cg2d: Sum(rhs),rhsMax =   1.67706848408500E-09  1.30817606475071E-02
 cg2d: Sum(rhs),rhsMax =   1.67712146947885E-09  1.30817330530058E-02
 cg2d: Sum(rhs),rhsMax =   1.67717481569518E-09  1.30817052580815E-02
 cg2d: Sum(rhs),rhsMax =   1.67722741251097E-09  1.30816771079253E-02
 cg2d: Sum(rhs),rhsMax =   1.67727939870410E-09  1.30816484402398E-02
 cg2d: Sum(rhs),rhsMax =   1.67732833178391E-09  1.30816190947962E-02
 cg2d: Sum(rhs),rhsMax =   1.67738214984503E-09  1.30815888861678E-02
 cg2d: Sum(rhs),rhsMax =   1.67743902101947E-09  1.30815576447596E-02
 cg2d: Sum(rhs),rhsMax =   1.67748573365323E-09  1.30815251953407E-02
 cg2d: Sum(rhs),rhsMax =   1.67754543589638E-09  1.30814913521044E-02
 cg2d: Sum(rhs),rhsMax =   1.67758817948283E-09  1.30814559316060E-02
 cg2d: Sum(rhs),rhsMax =   1.67764005465365E-09  1.30814187487460E-02
 cg2d: Sum(rhs),rhsMax =   1.67770966563729E-09  1.30813796176548E-02
 cg2d: Sum(rhs),rhsMax =   1.67776337267611E-09  1.30813383494371E-02
 cg2d: Sum(rhs),rhsMax =   1.67780792037497E-09  1.30812947614783E-02
 cg2d: Sum(rhs),rhsMax =   1.67785338400783E-09  1.30812486691129E-02
 cg2d: Sum(rhs),rhsMax =   1.67790595306805E-09  1.30811998918850E-02
 cg2d: Sum(rhs),rhsMax =   1.67795149996763E-09  1.30811482537605E-02
 cg2d: Sum(rhs),rhsMax =   1.67800653927408E-09  1.30810935821446E-02
 cg2d: Sum(rhs),rhsMax =   1.67804642403624E-09  1.30810357081290E-02
 cg2d: Sum(rhs),rhsMax =   1.67809760531767E-09  1.30809744715851E-02
 cg2d: Sum(rhs),rhsMax =   1.67814551144119E-09  1.30809097175363E-02
 cg2d: Sum(rhs),rhsMax =   1.67821298524551E-09  1.30808412981648E-02
 cg2d: Sum(rhs),rhsMax =   1.67827443608992E-09  1.30807690744718E-02
 cg2d: Sum(rhs),rhsMax =   1.67833277830987E-09  1.30806929142773E-02
 cg2d: Sum(rhs),rhsMax =   1.67838842823897E-09  1.30806126975432E-02
 cg2d: Sum(rhs),rhsMax =   1.67846772591851E-09  1.30805283125108E-02
 cg2d: Sum(rhs),rhsMax =   1.67852529098234E-09  1.30804396559638E-02
 cg2d: Sum(rhs),rhsMax =   1.67859501298828E-09  1.30803466397395E-02
 cg2d: Sum(rhs),rhsMax =   1.67865185640714E-09  1.30802491857812E-02
 cg2d: Sum(rhs),rhsMax =   1.67871583300894E-09  1.30801472251131E-02
 cg2d: Sum(rhs),rhsMax =   1.67876942902545E-09  1.30800407107703E-02
 cg2d: Sum(rhs),rhsMax =   1.67883204560404E-09  1.30799296090837E-02
 cg2d: Sum(rhs),rhsMax =   1.67889921409703E-09  1.30798138790023E-02
 cg2d: Sum(rhs),rhsMax =   1.67895702896104E-09  1.30796934832115E-02
 cg2d: Sum(rhs),rhsMax =   1.67902172720780E-09  1.30795684145413E-02
 cg2d: Sum(rhs),rhsMax =   1.67908331683009E-09  1.30794386860576E-02
 cg2d: Sum(rhs),rhsMax =   1.67915437110366E-09  1.30793043224506E-02
 cg2d: Sum(rhs),rhsMax =   1.67921510030311E-09  1.30791653556937E-02
 cg2d: Sum(rhs),rhsMax =   1.67928951300134E-09  1.30790218339590E-02
 cg2d: Sum(rhs),rhsMax =   1.67934013917126E-09  1.30788738109633E-02
 cg2d: Sum(rhs),rhsMax =   1.67941147100059E-09  1.30787213546677E-02
 cg2d: Sum(rhs),rhsMax =   1.67947930562740E-09  1.30785645403827E-02
 cg2d: Sum(rhs),rhsMax =   1.67955144236842E-09  1.30784034570738E-02
 cg2d: Sum(rhs),rhsMax =   1.67962593833337E-09  1.30782382025910E-02
 cg2d: Sum(rhs),rhsMax =   1.67969962938663E-09  1.30780688822195E-02
 cg2d: Sum(rhs),rhsMax =   1.67977104448269E-09  1.30778956158267E-02
 cg2d: Sum(rhs),rhsMax =   1.67983199572674E-09  1.30777185278331E-02
 cg2d: Sum(rhs),rhsMax =   1.67990174548827E-09  1.30775350155348E-02
 cg2d: Sum(rhs),rhsMax =   1.67997663003128E-09  1.30773479857531E-02
 cg2d: Sum(rhs),rhsMax =   1.68004185563397E-09  1.30771576264713E-02
 cg2d: Sum(rhs),rhsMax =   1.68012265211459E-09  1.30769641199745E-02
 cg2d: Sum(rhs),rhsMax =   1.68019512192252E-09  1.30767676574511E-02
 cg2d: Sum(rhs),rhsMax =   1.68026301206048E-09  1.30765684404642E-02
 cg2d: Sum(rhs),rhsMax =   1.68033054137595E-09  1.30763666714527E-02
 cg2d: Sum(rhs),rhsMax =   1.68041291992438E-09  1.30761625446709E-02
 cg2d: Sum(rhs),rhsMax =   1.68048655546649E-09  1.30759562576818E-02
 cg2d: Sum(rhs),rhsMax =   1.68057975868940E-09  1.30757480099374E-02
 cg2d: Sum(rhs),rhsMax =   1.68065392158745E-09  1.30755379973110E-02
 cg2d: Sum(rhs),rhsMax =   1.68073038819827E-09  1.30753264156876E-02
 cg2d: Sum(rhs),rhsMax =   1.68081645823825E-09  1.30751134520595E-02
 cg2d: Sum(rhs),rhsMax =   1.68088951091327E-09  1.30748992939737E-02
 cg2d: Sum(rhs),rhsMax =   1.68095751207353E-09  1.30746841229116E-02
 cg2d: Sum(rhs),rhsMax =   1.68102706754603E-09  1.30744681130857E-02
 cg2d: Sum(rhs),rhsMax =   1.68109884346457E-09  1.30742514315055E-02
 cg2d: Sum(rhs),rhsMax =   1.68119060339755E-09  1.30740342431289E-02
 cg2d: Sum(rhs),rhsMax =   1.68127450850264E-09  1.30738167000401E-02
 cg2d: Sum(rhs),rhsMax =   1.68134836608935E-09  1.30735989481320E-02
 cg2d: Sum(rhs),rhsMax =   1.68141620071616E-09  1.30733811253298E-02
 cg2d: Sum(rhs),rhsMax =   1.68149083545899E-09  1.30731633577126E-02
 cg2d: Sum(rhs),rhsMax =   1.68156602531333E-09  1.30729457639729E-02
 cg2d: Sum(rhs),rhsMax =   1.68163039049318E-09  1.30727284501616E-02
 cg2d: Sum(rhs),rhsMax =   1.68171421233154E-09  1.30725115192880E-02
 cg2d: Sum(rhs),rhsMax =   1.68179234427690E-09  1.30722950610792E-02
 cg2d: Sum(rhs),rhsMax =   1.68186067850407E-09  1.30720791557019E-02
 cg2d: Sum(rhs),rhsMax =   1.68192418326107E-09  1.30718638704374E-02
 cg2d: Sum(rhs),rhsMax =   1.68198338590386E-09  1.30716492631652E-02
 cg2d: Sum(rhs),rhsMax =   1.68205069317473E-09  1.30714353819095E-02
 cg2d: Sum(rhs),rhsMax =   1.68213101781056E-09  1.30712222656013E-02
 cg2d: Sum(rhs),rhsMax =   1.68219616014653E-09  1.30710099469853E-02
 cg2d: Sum(rhs),rhsMax =   1.68226033103736E-09  1.30707984449286E-02
 cg2d: Sum(rhs),rhsMax =   1.68235503306136E-09  1.30705877728947E-02
 cg2d: Sum(rhs),rhsMax =   1.68241845455164E-09  1.30703779344920E-02
 cg2d: Sum(rhs),rhsMax =   1.68248495691081E-09  1.30701689270225E-02
 Computing Diagnostic #    26 "THETA   " (list#  1) Parms "SMR     MR      ", Count=     144
 Computing Diagnostic #    27 "SALT    " (list#  1) Parms "SMR     MR      ", Count=     144
 Computing Diagnostic #    30 "UVEL    " (list#  1) Parms "UUR     MR      ", Count=     144
             Vector  Mate for "UVEL    " :  Diagnostic #     31 "VVEL    " exists
 Computing Diagnostic #    32 "WVEL    " (list#  1) Parms "WM      LR      ", Count=     144
 Computing Diagnostic #    31 "VVEL    " (list#  1) Parms "VVR     MR      ", Count=     144
             Vector  Mate for "VVEL    " :  Diagnostic #     30 "UVEL    " exists
 Computing Diagnostic #   197 "BRGfwFlx" (list#  2) Parms "SM      MR      ", Count=     144
 Computing Diagnostic #   198 "BRGhtFlx" (list#  2) Parms "SM      MR      ", Count=     144
 Computing Diagnostic #   199 "BRGmltRt" (list#  2) Parms "SM      MR      ", Count=     144
 Computing Diagnostic #   201 "BRG_TauX" (list#  2) Parms "UU      MR      ", Count=    1728
 Computing Diagnostic #   202 "BRG_TauY" (list#  2) Parms "VV      MR      ", Count=    1728
 Computing Diagnostic #   203 "BRGhFacC" (list#  2) Parms "SM      MR      ", Count=    1728
 cg2d: Sum(rhs),rhsMax =   1.68255703814069E-09  1.30699607410769E-02
 cg2d: Sum(rhs),rhsMax =   1.68262262456587E-09  1.30697533587526E-02
 cg2d: Sum(rhs),rhsMax =   1.68269109757091E-09  1.30695467573771E-02
 cg2d: Sum(rhs),rhsMax =   1.68275871015311E-09  1.30693409075040E-02
 cg2d: Sum(rhs),rhsMax =   1.68283956214488E-09  1.30691357795979E-02
 cg2d: Sum(rhs),rhsMax =   1.68291233726414E-09  1.30689313342956E-02
 cg2d: Sum(rhs),rhsMax =   1.68299407743433E-09  1.30687275336204E-02
 cg2d: Sum(rhs),rhsMax =   1.68305600012353E-09  1.30685243329780E-02
 cg2d: Sum(rhs),rhsMax =   1.68312783155322E-09  1.30683216878567E-02
 cg2d: Sum(rhs),rhsMax =   1.68320155036206E-09  1.30681195498950E-02
 cg2d: Sum(rhs),rhsMax =   1.68327260463563E-09  1.30679178755284E-02
 cg2d: Sum(rhs),rhsMax =   1.68334451933205E-09  1.30677166139148E-02
 cg2d: Sum(rhs),rhsMax =   1.68342573214630E-09  1.30675157204980E-02
 cg2d: Sum(rhs),rhsMax =   1.68348598950097E-09  1.30673151500331E-02
 cg2d: Sum(rhs),rhsMax =   1.68355071550330E-09  1.30671148600183E-02
 cg2d: Sum(rhs),rhsMax =   1.68362151997670E-09  1.30669148089515E-02
 cg2d: Sum(rhs),rhsMax =   1.68369082564901E-09  1.30667149621472E-02
 cg2d: Sum(rhs),rhsMax =   1.68378272435987E-09  1.30665152852565E-02
 cg2d: Sum(rhs),rhsMax =   1.68385644316871E-09  1.30663157496982E-02
 cg2d: Sum(rhs),rhsMax =   1.68391656174549E-09  1.30661163319084E-02
 cg2d: Sum(rhs),rhsMax =   1.68399150179965E-09  1.30659170161175E-02
 cg2d: Sum(rhs),rhsMax =   1.68406721900993E-09  1.30657177863859E-02
 cg2d: Sum(rhs),rhsMax =   1.68413968881787E-09  1.30655186406519E-02
 cg2d: Sum(rhs),rhsMax =   1.68421390722706E-09  1.30653195745329E-02
 cg2d: Sum(rhs),rhsMax =   1.68428029856393E-09  1.30651205983850E-02
 cg2d: Sum(rhs),rhsMax =   1.68436420366902E-09  1.30649217258071E-02
 cg2d: Sum(rhs),rhsMax =   1.68443670123253E-09  1.30647229755121E-02
 cg2d: Sum(rhs),rhsMax =   1.68450700610556E-09  1.30645243779195E-02
 cg2d: Sum(rhs),rhsMax =   1.68458988425435E-09  1.30643259679696E-02
 cg2d: Sum(rhs),rhsMax =   1.68466776639953E-09  1.30641277886877E-02
 cg2d: Sum(rhs),rhsMax =   1.68474256767581E-09  1.30639298890625E-02
 cg2d: Sum(rhs),rhsMax =   1.68481434359435E-09  1.30637323264131E-02
 cg2d: Sum(rhs),rhsMax =   1.68488795138089E-09  1.30635351636362E-02
 cg2d: Sum(rhs),rhsMax =   1.68495500885157E-09  1.30633384713615E-02
 cg2d: Sum(rhs),rhsMax =   1.68502364839007E-09  1.30631423388326E-02
 cg2d: Sum(rhs),rhsMax =   1.68510419507051E-09  1.30629468727091E-02
 cg2d: Sum(rhs),rhsMax =   1.68516967047339E-09  1.30627521593017E-02
 cg2d: Sum(rhs),rhsMax =   1.68523819898958E-09  1.30625582902833E-02
 cg2d: Sum(rhs),rhsMax =   1.68530739363959E-09  1.30623653634805E-02
 cg2d: Sum(rhs),rhsMax =   1.68538052958134E-09  1.30621734797013E-02
 cg2d: Sum(rhs),rhsMax =   1.68545283285582E-09  1.30619827295199E-02
 cg2d: Sum(rhs),rhsMax =   1.68551875234790E-09  1.30617932383546E-02
 cg2d: Sum(rhs),rhsMax =   1.68557900970256E-09  1.30616051106336E-02
 cg2d: Sum(rhs),rhsMax =   1.68564159852558E-09  1.30614184498485E-02
 cg2d: Sum(rhs),rhsMax =   1.68571731573586E-09  1.30612333689829E-02
 cg2d: Sum(rhs),rhsMax =   1.68578964676591E-09  1.30610499795699E-02
 cg2d: Sum(rhs),rhsMax =   1.68586847260066E-09  1.30608683942909E-02
 cg2d: Sum(rhs),rhsMax =   1.68593639049419E-09  1.30606887229466E-02
 cg2d: Sum(rhs),rhsMax =   1.68599950667314E-09  1.30605110732680E-02
 cg2d: Sum(rhs),rhsMax =   1.68605213124451E-09  1.30603355526777E-02
 cg2d: Sum(rhs),rhsMax =   1.68613834006237E-09  1.30601622642103E-02
 cg2d: Sum(rhs),rhsMax =   1.68621575036276E-09  1.30599913098585E-02
 cg2d: Sum(rhs),rhsMax =   1.68627214969241E-09  1.30598227775409E-02
 cg2d: Sum(rhs),rhsMax =   1.68635047592680E-09  1.30596567674266E-02
 cg2d: Sum(rhs),rhsMax =   1.68641220432697E-09  1.30594933647325E-02
 cg2d: Sum(rhs),rhsMax =   1.68648961462736E-09  1.30593326484617E-02
 cg2d: Sum(rhs),rhsMax =   1.68654784582500E-09  1.30591746932436E-02
 cg2d: Sum(rhs),rhsMax =   1.68662611654824E-09  1.30590195666588E-02
 cg2d: Sum(rhs),rhsMax =   1.68669717082182E-09  1.30588673284691E-02
 cg2d: Sum(rhs),rhsMax =   1.68676822509539E-09  1.30587180387152E-02
 cg2d: Sum(rhs),rhsMax =   1.68683128576319E-09  1.30585717307127E-02
 cg2d: Sum(rhs),rhsMax =   1.68689251456300E-09  1.30584284411622E-02
 cg2d: Sum(rhs),rhsMax =   1.68696934199630E-09  1.30582882072513E-02
 cg2d: Sum(rhs),rhsMax =   1.68704139547060E-09  1.30581510416559E-02
 cg2d: Sum(rhs),rhsMax =   1.68711680736955E-09  1.30580169543265E-02
 cg2d: Sum(rhs),rhsMax =   1.68717934068141E-09  1.30578859465515E-02
 cg2d: Sum(rhs),rhsMax =   1.68723357507616E-09  1.30577580108838E-02
 cg2d: Sum(rhs),rhsMax =   1.68727970484284E-09  1.30576331300095E-02
 cg2d: Sum(rhs),rhsMax =   1.68735067584969E-09  1.30575112799710E-02
 cg2d: Sum(rhs),rhsMax =   1.68741881578782E-09  1.30573924232922E-02
 cg2d: Sum(rhs),rhsMax =   1.68748970352794E-09  1.30572755047569E-02
 cg2d: Sum(rhs),rhsMax =   1.68753644391728E-09  1.30571615020389E-02
 cg2d: Sum(rhs),rhsMax =   1.68759961560738E-09  1.30570503697667E-02
 cg2d: Sum(rhs),rhsMax =   1.68764835439816E-09  1.30569420422009E-02
 cg2d: Sum(rhs),rhsMax =   1.68770822317477E-09  1.30568364568782E-02
 cg2d: Sum(rhs),rhsMax =   1.68775327047399E-09  1.30567335382106E-02
 cg2d: Sum(rhs),rhsMax =   1.68781913445493E-09  1.30566332046364E-02
 cg2d: Sum(rhs),rhsMax =   1.68788097387740E-09  1.30565353670133E-02
 cg2d: Sum(rhs),rhsMax =   1.68792549382069E-09  1.30564399296663E-02
 cg2d: Sum(rhs),rhsMax =   1.68798106048307E-09  1.30563467929087E-02
 cg2d: Sum(rhs),rhsMax =   1.68804112354870E-09  1.30562558467438E-02
 cg2d: Sum(rhs),rhsMax =   1.68810110334761E-09  1.30561669794907E-02
 cg2d: Sum(rhs),rhsMax =   1.68815514345333E-09  1.30560800740920E-02
 cg2d: Sum(rhs),rhsMax =   1.68822125723445E-09  1.30559950071399E-02
 cg2d: Sum(rhs),rhsMax =   1.68827796187543E-09  1.30559116526686E-02
 cg2d: Sum(rhs),rhsMax =   1.68834576874666E-09  1.30558298832963E-02
 cg2d: Sum(rhs),rhsMax =   1.68839836556245E-09  1.30557495647109E-02
 cg2d: Sum(rhs),rhsMax =   1.68844727088668E-09  1.30556705623003E-02
 cg2d: Sum(rhs),rhsMax =   1.68850744497462E-09  1.30555927410095E-02
 cg2d: Sum(rhs),rhsMax =   1.68855429638626E-09  1.30555159637641E-02
 cg2d: Sum(rhs),rhsMax =   1.68862596128250E-09  1.30554400893218E-02
 cg2d: Sum(rhs),rhsMax =   1.68866956529179E-09  1.30553649825891E-02
 cg2d: Sum(rhs),rhsMax =   1.68872169026280E-09  1.30552905028802E-02
 cg2d: Sum(rhs),rhsMax =   1.68877700712500E-09  1.30552165155477E-02
 cg2d: Sum(rhs),rhsMax =   1.68884176088291E-09  1.30551428825362E-02
 cg2d: Sum(rhs),rhsMax =   1.68889718876741E-09  1.30550694724229E-02
 cg2d: Sum(rhs),rhsMax =   1.68897207331042E-09  1.30549961515681E-02
 cg2d: Sum(rhs),rhsMax =   1.68902511421543E-09  1.30549227934290E-02
 cg2d: Sum(rhs),rhsMax =   1.68908664832657E-09  1.30548492703314E-02
 cg2d: Sum(rhs),rhsMax =   1.68913627529577E-09  1.30547754632757E-02
 cg2d: Sum(rhs),rhsMax =   1.68918723453260E-09  1.30547012522186E-02
 cg2d: Sum(rhs),rhsMax =   1.68922512089331E-09  1.30546265242651E-02
 cg2d: Sum(rhs),rhsMax =   1.68929306654242E-09  1.30545511728951E-02
 cg2d: Sum(rhs),rhsMax =   1.68936528655017E-09  1.30544750916557E-02
 cg2d: Sum(rhs),rhsMax =   1.68940669786899E-09  1.30543981828923E-02
 cg2d: Sum(rhs),rhsMax =   1.68947220102744E-09  1.30543203552574E-02
 cg2d: Sum(rhs),rhsMax =   1.68952477008766E-09  1.30542415177113E-02
 cg2d: Sum(rhs),rhsMax =   1.68958533275365E-09  1.30541615923125E-02
 cg2d: Sum(rhs),rhsMax =   1.68964670033134E-09  1.30540805022830E-02
 cg2d: Sum(rhs),rhsMax =   1.68971761582704E-09  1.30539981767154E-02
 cg2d: Sum(rhs),rhsMax =   1.68976996284265E-09  1.30539145529137E-02
 cg2d: Sum(rhs),rhsMax =   1.68983116388688E-09  1.30538295744822E-02
 cg2d: Sum(rhs),rhsMax =   1.68990180182682E-09  1.30537431875695E-02
 cg2d: Sum(rhs),rhsMax =   1.68994335192352E-09  1.30536553493640E-02
 cg2d: Sum(rhs),rhsMax =   1.69000219374382E-09  1.30535660204186E-02
 cg2d: Sum(rhs),rhsMax =   1.69006503236702E-09  1.30534751650979E-02
 cg2d: Sum(rhs),rhsMax =   1.69012592809992E-09  1.30533827563123E-02
 cg2d: Sum(rhs),rhsMax =   1.69018940510135E-09  1.30532887732659E-02
 cg2d: Sum(rhs),rhsMax =   1.69025674012779E-09  1.30531931964126E-02
 cg2d: Sum(rhs),rhsMax =   1.69030689445293E-09  1.30530960159758E-02
 cg2d: Sum(rhs),rhsMax =   1.69036654118493E-09  1.30529972276249E-02
 cg2d: Sum(rhs),rhsMax =   1.69044900300008E-09  1.30528968269427E-02
 cg2d: Sum(rhs),rhsMax =   1.69050953791050E-09  1.30527947521463E-02
 cg2d: Sum(rhs),rhsMax =   1.69057623455870E-09  1.30526909095151E-02
 cg2d: Sum(rhs),rhsMax =   1.69063799071445E-09  1.30525853009794E-02
 cg2d: Sum(rhs),rhsMax =   1.69069122590848E-09  1.30524777151459E-02
 cg2d: Sum(rhs),rhsMax =   1.69075237144156E-09  1.30523681066372E-02
 cg2d: Sum(rhs),rhsMax =   1.69080555112444E-09  1.30522564073260E-02
 cg2d: Sum(rhs),rhsMax =   1.69085476176001E-09  1.30521425454066E-02
 cg2d: Sum(rhs),rhsMax =   1.69091213253481E-09  1.30520264594410E-02
 cg2d: Sum(rhs),rhsMax =   1.69097186253353E-09  1.30519080996580E-02
 cg2d: Sum(rhs),rhsMax =   1.69102984393099E-09  1.30517874238715E-02
 cg2d: Sum(rhs),rhsMax =   1.69109051761929E-09  1.30516644057156E-02
 cg2d: Sum(rhs),rhsMax =   1.69115363379824E-09  1.30515390244866E-02
 cg2d: Sum(rhs),rhsMax =   1.69123129389881E-09  1.30514112743210E-02
 cg2d: Sum(rhs),rhsMax =   1.69129790728029E-09  1.30512811535863E-02
 cg2d: Sum(rhs),rhsMax =   1.69136638028533E-09  1.30511486790020E-02
 cg2d: Sum(rhs),rhsMax =   1.69143341000044E-09  1.30510138698813E-02
 cg2d: Sum(rhs),rhsMax =   1.69151895268449E-09  1.30508767624298E-02
 cg2d: Sum(rhs),rhsMax =   1.69158637097766E-09  1.30507373974867E-02
 cg2d: Sum(rhs),rhsMax =   1.69166042285340E-09  1.30505958290740E-02
 cg2d: Sum(rhs),rhsMax =   1.69173652864174E-09  1.30504521195417E-02
 cg2d: Sum(rhs),rhsMax =   1.69179953379839E-09  1.30503063411499E-02
 cg2d: Sum(rhs),rhsMax =   1.69186395448939E-09  1.30501585744873E-02
 Computing Diagnostic #    26 "THETA   " (list#  1) Parms "SMR     MR      ", Count=     144
 Computing Diagnostic #    27 "SALT    " (list#  1) Parms "SMR     MR      ", Count=     144
 Computing Diagnostic #    30 "UVEL    " (list#  1) Parms "UUR     MR      ", Count=     144
             Vector  Mate for "UVEL    " :  Diagnostic #     31 "VVEL    " exists
 Computing Diagnostic #    32 "WVEL    " (list#  1) Parms "WM      LR      ", Count=     144
 Computing Diagnostic #    31 "VVEL    " (list#  1) Parms "VVR     MR      ", Count=     144
             Vector  Mate for "VVEL    " :  Diagnostic #     30 "UVEL    " exists
 Computing Diagnostic #   197 "BRGfwFlx" (list#  2) Parms "SM      MR      ", Count=     144
 Computing Diagnostic #   198 "BRGhtFlx" (list#  2) Parms "SM      MR      ", Count=     144
 Computing Diagnostic #   199 "BRGmltRt" (list#  2) Parms "SM      MR      ", Count=     144
 Computing Diagnostic #   201 "BRG_TauX" (list#  2) Parms "UU      MR      ", Count=    1728
 Computing Diagnostic #   202 "BRG_TauY" (list#  2) Parms "VV      MR      ", Count=    1728
 Computing Diagnostic #   203 "BRGhFacC" (list#  2) Parms "SM      MR      ", Count=    1728
 cg2d: Sum(rhs),rhsMax =   1.69193084542663E-09  1.30500089092210E-02
 cg2d: Sum(rhs),rhsMax =   1.69200034538797E-09  1.30498574434439E-02
 cg2d: Sum(rhs),rhsMax =   1.69206096356511E-09  1.30497042830792E-02
 cg2d: Sum(rhs),rhsMax =   1.69214739442758E-09  1.30495495399239E-02
 cg2d: Sum(rhs),rhsMax =   1.69220465418007E-09  1.30493933346620E-02
 cg2d: Sum(rhs),rhsMax =   1.69226394008959E-09  1.30492357897698E-02
 cg2d: Sum(rhs),rhsMax =   1.69232614033454E-09  1.30490770353460E-02
 cg2d: Sum(rhs),rhsMax =   1.69239361413887E-09  1.30489172104880E-02
 cg2d: Sum(rhs),rhsMax =   1.69245553682806E-09  1.30487564537546E-02
 cg2d: Sum(rhs),rhsMax =   1.69251823667338E-09  1.30485949119407E-02
 cg2d: Sum(rhs),rhsMax =   1.69258146387463E-09  1.30484327327579E-02
 cg2d: Sum(rhs),rhsMax =   1.69265687577358E-09  1.30482700668230E-02
 cg2d: Sum(rhs),rhsMax =   1.69273231542810E-09  1.30481070641686E-02
 cg2d: Sum(rhs),rhsMax =   1.69279684714141E-09  1.30479438814172E-02
 cg2d: Sum(rhs),rhsMax =   1.69287289741860E-09  1.30477806697192E-02
 cg2d: Sum(rhs),rhsMax =   1.69293376539592E-09  1.30476175834502E-02
 cg2d: Sum(rhs),rhsMax =   1.69299185781568E-09  1.30474547750885E-02
 cg2d: Sum(rhs),rhsMax =   1.69304500974299E-09  1.30472923936978E-02
 cg2d: Sum(rhs),rhsMax =   1.69311584197196E-09  1.30471305926530E-02
 cg2d: Sum(rhs),rhsMax =   1.69317959652915E-09  1.30469695177694E-02
 cg2d: Sum(rhs),rhsMax =   1.69324274046367E-09  1.30468093175579E-02
 cg2d: Sum(rhs),rhsMax =   1.69331262900307E-09  1.30466501372167E-02
 cg2d: Sum(rhs),rhsMax =   1.69338285060938E-09  1.30464921164366E-02
 cg2d: Sum(rhs),rhsMax =   1.69345379386066E-09  1.30463353932702E-02
 cg2d: Sum(rhs),rhsMax =   1.69351682677288E-09  1.30461800995220E-02
 cg2d: Sum(rhs),rhsMax =   1.69359617996356E-09  1.30460263645735E-02
 cg2d: Sum(rhs),rhsMax =   1.69366060065457E-09  1.30458743080352E-02
 cg2d: Sum(rhs),rhsMax =   1.69371006109031E-09  1.30457240450110E-02
 cg2d: Sum(rhs),rhsMax =   1.69377492587053E-09  1.30455756859408E-02
 cg2d: Sum(rhs),rhsMax =   1.69383923553923E-09  1.30454293275349E-02
 cg2d: Sum(rhs),rhsMax =   1.69389235971096E-09  1.30452850648882E-02
 cg2d: Sum(rhs),rhsMax =   1.69396355276241E-09  1.30451429812569E-02
 cg2d: Sum(rhs),rhsMax =   1.69404501537684E-09  1.30450031512784E-02
 cg2d: Sum(rhs),rhsMax =   1.69410732664410E-09  1.30448656404062E-02
 cg2d: Sum(rhs),rhsMax =   1.69416961015578E-09  1.30447305072992E-02
 cg2d: Sum(rhs),rhsMax =   1.69424002605112E-09  1.30445977961006E-02
 cg2d: Sum(rhs),rhsMax =   1.69429492657969E-09  1.30444675441033E-02
 cg2d: Sum(rhs),rhsMax =   1.69437225361335E-09  1.30443397772690E-02
 cg2d: Sum(rhs),rhsMax =   1.69443720166029E-09  1.30442145109493E-02
 cg2d: Sum(rhs),rhsMax =   1.69450586895437E-09  1.30440917516778E-02
 cg2d: Sum(rhs),rhsMax =   1.69457989307453E-09  1.30439714949254E-02
 cg2d: Sum(rhs),rhsMax =   1.69465330657204E-09  1.30438537225956E-02
 cg2d: Sum(rhs),rhsMax =   1.69471744970728E-09  1.30437384133096E-02
 cg2d: Sum(rhs),rhsMax =   1.69477787359540E-09  1.30436255283061E-02
 cg2d: Sum(rhs),rhsMax =   1.69483194145670E-09  1.30435150226155E-02
 cg2d: Sum(rhs),rhsMax =   1.69487621159981E-09  1.30434068405671E-02
 cg2d: Sum(rhs),rhsMax =   1.69494224211419E-09  1.30433009185414E-02
 cg2d: Sum(rhs),rhsMax =   1.69502048508186E-09  1.30431971792505E-02
 cg2d: Sum(rhs),rhsMax =   1.69506522706975E-09  1.30430955438473E-02
 cg2d: Sum(rhs),rhsMax =   1.69512442971254E-09  1.30429959168767E-02
 cg2d: Sum(rhs),rhsMax =   1.69517522241591E-09  1.30428982016690E-02
 cg2d: Sum(rhs),rhsMax =   1.69525440907314E-09  1.30428022905729E-02
 cg2d: Sum(rhs),rhsMax =   1.69530861571232E-09  1.30427080698571E-02
 cg2d: Sum(rhs),rhsMax =   1.69534769556279E-09  1.30426154176435E-02
 cg2d: Sum(rhs),rhsMax =   1.69540040340088E-09  1.30425242104416E-02
 cg2d: Sum(rhs),rhsMax =   1.69545655293035E-09  1.30424343126887E-02
 cg2d: Sum(rhs),rhsMax =   1.69551261919310E-09  1.30423455916335E-02
 cg2d: Sum(rhs),rhsMax =   1.69558123097602E-09  1.30422579048230E-02
 cg2d: Sum(rhs),rhsMax =   1.69564434715497E-09  1.30421711090083E-02
 cg2d: Sum(rhs),rhsMax =   1.69570893437943E-09  1.30420850582095E-02
 cg2d: Sum(rhs),rhsMax =   1.69577485387151E-09  1.30419996038076E-02
 cg2d: Sum(rhs),rhsMax =   1.69583849740640E-09  1.30419145915193E-02
 cg2d: Sum(rhs),rhsMax =   1.69588929010978E-09  1.30418298700605E-02
 cg2d: Sum(rhs),rhsMax =   1.69594266408168E-09  1.30417452886344E-02
 cg2d: Sum(rhs),rhsMax =   1.69599165267265E-09  1.30416606947565E-02
 cg2d: Sum(rhs),rhsMax =   1.69604624788988E-09  1.30415759376272E-02
 cg2d: Sum(rhs),rhsMax =   1.69610891997962E-09  1.30414908658336E-02
 cg2d: Sum(rhs),rhsMax =   1.69616096168390E-09  1.30414053354223E-02
 cg2d: Sum(rhs),rhsMax =   1.69621702794664E-09  1.30413192026757E-02
 cg2d: Sum(rhs),rhsMax =   1.69627914492487E-09  1.30412323280653E-02
 cg2d: Sum(rhs),rhsMax =   1.69633712632233E-09  1.30411445746060E-02
 cg2d: Sum(rhs),rhsMax =   1.69638683655826E-09  1.30410558141265E-02
 cg2d: Sum(rhs),rhsMax =   1.69645456016276E-09  1.30409659196892E-02
 cg2d: Sum(rhs),rhsMax =   1.69650435366542E-09  1.30408747726627E-02
 cg2d: Sum(rhs),rhsMax =   1.69657102255805E-09  1.30407822588750E-02
 cg2d: Sum(rhs),rhsMax =   1.69663744165049E-09  1.30406882715575E-02
 cg2d: Sum(rhs),rhsMax =   1.69669284177942E-09  1.30405927104074E-02
 cg2d: Sum(rhs),rhsMax =   1.69675007377634E-09  1.30404954860579E-02
 cg2d: Sum(rhs),rhsMax =   1.69680980377507E-09  1.30403965096868E-02
 cg2d: Sum(rhs),rhsMax =   1.69686098505650E-09  1.30402957066505E-02
 cg2d: Sum(rhs),rhsMax =   1.69691272144945E-09  1.30401930078233E-02
 cg2d: Sum(rhs),rhsMax =   1.69698624596926E-09  1.30400883528856E-02
 cg2d: Sum(rhs),rhsMax =   1.69704483798938E-09  1.30399816875605E-02
 cg2d: Sum(rhs),rhsMax =   1.69711669717465E-09  1.30398729682769E-02
 cg2d: Sum(rhs),rhsMax =   1.69718297748922E-09  1.30397621602798E-02
 cg2d: Sum(rhs),rhsMax =   1.69724534426763E-09  1.30396492355106E-02
 cg2d: Sum(rhs),rhsMax =   1.69730507426635E-09  1.30395341753702E-02
 cg2d: Sum(rhs),rhsMax =   1.69737604527320E-09  1.30394169678069E-02
 cg2d: Sum(rhs),rhsMax =   1.69743050171256E-09  1.30392976108771E-02
 cg2d: Sum(rhs),rhsMax =   1.69749833633936E-09  1.30391761092762E-02
 cg2d: Sum(rhs),rhsMax =   1.69754355017204E-09  1.30390524761658E-02
 cg2d: Sum(rhs),rhsMax =   1.69759098445077E-09  1.30389267315676E-02
 cg2d: Sum(rhs),rhsMax =   1.69764563517916E-09  1.30387989029854E-02
 cg2d: Sum(rhs),rhsMax =   1.69772487734754E-09  1.30386690250093E-02
 cg2d: Sum(rhs),rhsMax =   1.69778874292703E-09  1.30385371377926E-02
 cg2d: Sum(rhs),rhsMax =   1.69785860371086E-09  1.30384032879466E-02
 cg2d: Sum(rhs),rhsMax =   1.69792113702272E-09  1.30382675293975E-02
 cg2d: Sum(rhs),rhsMax =   1.69798461402415E-09  1.30381299192751E-02
 cg2d: Sum(rhs),rhsMax =   1.69804456606748E-09  1.30379905204547E-02
 cg2d: Sum(rhs),rhsMax =   1.69811142924914E-09  1.30378494008357E-02
 cg2d: Sum(rhs),rhsMax =   1.69817260253780E-09  1.30377066312455E-02
 cg2d: Sum(rhs),rhsMax =   1.69823585749462E-09  1.30375622882068E-02
 cg2d: Sum(rhs),rhsMax =   1.69829664220522E-09  1.30374164478180E-02
 cg2d: Sum(rhs),rhsMax =   1.69836941732449E-09  1.30372691934047E-02
 cg2d: Sum(rhs),rhsMax =   1.69844446840095E-09  1.30371206054849E-02
 cg2d: Sum(rhs),rhsMax =   1.69851424591805E-09  1.30369707690740E-02
 cg2d: Sum(rhs),rhsMax =   1.69857880538693E-09  1.30368197706055E-02
 cg2d: Sum(rhs),rhsMax =   1.69863562105022E-09  1.30366676667073E-02
 cg2d: Sum(rhs),rhsMax =   1.69870648103476E-09  1.30365145078831E-02
 cg2d: Sum(rhs),rhsMax =   1.69878430766879E-09  1.30363603815826E-02
 cg2d: Sum(rhs),rhsMax =   1.69884092904304E-09  1.30362053743571E-02
 cg2d: Sum(rhs),rhsMax =   1.69890027046371E-09  1.30360495703018E-02
 cg2d: Sum(rhs),rhsMax =   1.69897704238586E-09  1.30358930530325E-02
 cg2d: Sum(rhs),rhsMax =   1.69902650282161E-09  1.30357359045085E-02
 cg2d: Sum(rhs),rhsMax =   1.69910838176968E-09  1.30355782040273E-02
 cg2d: Sum(rhs),rhsMax =   1.69917196979341E-09  1.30354200307216E-02
 cg2d: Sum(rhs),rhsMax =   1.69924074810979E-09  1.30352614556294E-02
 cg2d: Sum(rhs),rhsMax =   1.69930644555727E-09  1.30351025526898E-02
 cg2d: Sum(rhs),rhsMax =   1.69938146887816E-09  1.30349433864469E-02
 cg2d: Sum(rhs),rhsMax =   1.69944744388140E-09  1.30347840239757E-02
 cg2d: Sum(rhs),rhsMax =   1.69950636896843E-09  1.30346245242117E-02
 cg2d: Sum(rhs),rhsMax =   1.69956310136499E-09  1.30344649429376E-02
 cg2d: Sum(rhs),rhsMax =   1.69961916762773E-09  1.30343053322215E-02
 cg2d: Sum(rhs),rhsMax =   1.69968597529824E-09  1.30341457397265E-02
 cg2d: Sum(rhs),rhsMax =   1.69974556651908E-09  1.30339862100931E-02
 cg2d: Sum(rhs),rhsMax =   1.69981362319049E-09  1.30338267809704E-02
 cg2d: Sum(rhs),rhsMax =   1.69989905485224E-09  1.30336674869004E-02
 cg2d: Sum(rhs),rhsMax =   1.69997016463697E-09  1.30335083578515E-02
 cg2d: Sum(rhs),rhsMax =   1.70005554078756E-09  1.30333494180789E-02
 cg2d: Sum(rhs),rhsMax =   1.70013189637608E-09  1.30331906879707E-02
 cg2d: Sum(rhs),rhsMax =   1.70020053591458E-09  1.30330321827125E-02
 cg2d: Sum(rhs),rhsMax =   1.70026254187050E-09  1.30328739157520E-02
 cg2d: Sum(rhs),rhsMax =   1.70035185931283E-09  1.30327158940175E-02
 cg2d: Sum(rhs),rhsMax =   1.70040942437666E-09  1.30325581210779E-02
 cg2d: Sum(rhs),rhsMax =   1.70048281011859E-09  1.30324005949241E-02
 cg2d: Sum(rhs),rhsMax =   1.70055561299343E-09  1.30322433130343E-02
 cg2d: Sum(rhs),rhsMax =   1.70062305904217E-09  1.30320862660815E-02
 cg2d: Sum(rhs),rhsMax =   1.70069444638266E-09  1.30319294428595E-02
 cg2d: Sum(rhs),rhsMax =   1.70076167038680E-09  1.30317728298909E-02
 cg2d: Sum(rhs),rhsMax =   1.70081521089216E-09  1.30316164080159E-02
 cg2d: Sum(rhs),rhsMax =   1.70087385842344E-09  1.30314601583333E-02
 cg2d: Sum(rhs),rhsMax =   1.70092850915182E-09  1.30313040578768E-02
 cg2d: Sum(rhs),rhsMax =   1.70099229146459E-09  1.30311480832408E-02
 cg2d: Sum(rhs),rhsMax =   1.70106262409320E-09  1.30309922049243E-02
(PID.TID 0000.0001)      cg2d_init_res =   5.34907356514785E-05
(PID.TID 0000.0001)      cg2d_iters(min,last) =      -1      38
(PID.TID 0000.0001)      cg2d_last_res =   6.98724508097490E-14
(PID.TID 0000.0001) // =======================================================
(PID.TID 0000.0001) // Begin MONITOR dynamic field statistics
(PID.TID 0000.0001) // =======================================================
(PID.TID 0000.0001) %MON time_tsnumber                =                 32832
(PID.TID 0000.0001) %MON time_secondsf                =   8.2080000000000E+05
(PID.TID 0000.0001) %MON dynstat_eta_max              =   4.5835187597719E-03
(PID.TID 0000.0001) %MON dynstat_eta_min              =  -2.2864208488752E-03
(PID.TID 0000.0001) %MON dynstat_eta_mean             =  -1.4844105208414E-13
(PID.TID 0000.0001) %MON dynstat_eta_sd               =   2.2995343678335E-03
(PID.TID 0000.0001) %MON dynstat_eta_del2             =   1.8313311205508E-05
(PID.TID 0000.0001) %MON dynstat_uvel_max             =   4.3276357447950E-02
(PID.TID 0000.0001) %MON dynstat_uvel_min             =  -4.5626297129417E-02
(PID.TID 0000.0001) %MON dynstat_uvel_mean            =   3.5592581990261E-09
(PID.TID 0000.0001) %MON dynstat_uvel_sd              =   6.7461206809548E-03
(PID.TID 0000.0001) %MON dynstat_uvel_del2            =   1.0134446629734E-04
(PID.TID 0000.0001) %MON dynstat_vvel_max             =   2.3962468376208E-02
(PID.TID 0000.0001) %MON dynstat_vvel_min             =  -3.5671759160050E-02
(PID.TID 0000.0001) %MON dynstat_vvel_mean            =  -8.0919746521428E-03
(PID.TID 0000.0001) %MON dynstat_vvel_sd              =   1.1622172090078E-02
(PID.TID 0000.0001) %MON dynstat_vvel_del2            =   9.1597289033648E-05
(PID.TID 0000.0001) %MON dynstat_wvel_max             =   1.3728614386013E-03
(PID.TID 0000.0001) %MON dynstat_wvel_min             =  -1.1614769991201E-03
(PID.TID 0000.0001) %MON dynstat_wvel_mean            =   1.7419814734067E-21
(PID.TID 0000.0001) %MON dynstat_wvel_sd              =   1.2786498466160E-04
(PID.TID 0000.0001) %MON dynstat_wvel_del2            =   6.5862374940718E-06
(PID.TID 0000.0001) %MON dynstat_theta_max            =   2.6931451612903E+00
(PID.TID 0000.0001) %MON dynstat_theta_min            =  -7.9028132597417E-01
(PID.TID 0000.0001) %MON dynstat_theta_mean           =   2.2174605101299E+00
(PID.TID 0000.0001) %MON dynstat_theta_sd             =   5.3883533432676E-01
(PID.TID 0000.0001) %MON dynstat_theta_del2           =   1.7297210712579E-03
(PID.TID 0000.0001) %MON dynstat_salt_max             =   3.4699999999999E+01
(PID.TID 0000.0001) %MON dynstat_salt_min             =   3.3067717764320E+01
(PID.TID 0000.0001) %MON dynstat_salt_mean            =   3.4363928331506E+01
(PID.TID 0000.0001) %MON dynstat_salt_sd              =   3.2212199551413E-01
(PID.TID 0000.0001) %MON dynstat_salt_del2            =   1.9176345372298E-04
(PID.TID 0000.0001) %MON advcfl_uvel_max              =   2.2813148564709E-03
(PID.TID 0000.0001) %MON advcfl_vvel_max              =   1.7835879580025E-03
(PID.TID 0000.0001) %MON advcfl_wvel_max              =   6.5867799461092E-04
(PID.TID 0000.0001) %MON advcfl_W_hf_max              =   1.4139696127021E-03
(PID.TID 0000.0001) %MON pe_b_mean                    =   4.4118880297672E-08
(PID.TID 0000.0001) %MON ke_max                       =   1.0266472343360E-03
(PID.TID 0000.0001) %MON ke_mean                      =   1.1306786928130E-04
(PID.TID 0000.0001) %MON ke_vol                       =   3.2921708585402E+10
(PID.TID 0000.0001) // =======================================================
(PID.TID 0000.0001) // End MONITOR dynamic field statistics
(PID.TID 0000.0001) // =======================================================
(PID.TID 0000.0001) // =======================================================
(PID.TID 0000.0001) // Begin OBCS MONITOR field statistics
(PID.TID 0000.0001) // =======================================================
(PID.TID 0000.0001) %MON obc_E_uVel_max               =   0.0000000000000E+00
(PID.TID 0000.0001) %MON obc_E_uVel_min               =   0.0000000000000E+00
(PID.TID 0000.0001) %MON obc_E_uVel_mean              =   0.0000000000000E+00
(PID.TID 0000.0001) %MON obc_E_uVel_sd                =   0.0000000000000E+00
(PID.TID 0000.0001) %MON obc_E_uVel_Int               =   0.0000000000000E+00
(PID.TID 0000.0001) %MON obc_N_vVel_max               =  -3.6115799844846E-05
(PID.TID 0000.0001) %MON obc_N_vVel_min               =  -3.0000000000000E-02
(PID.TID 0000.0001) %MON obc_N_vVel_mean              =  -1.3225455303334E-02
(PID.TID 0000.0001) %MON obc_N_vVel_sd                =   1.1350864292742E-02
(PID.TID 0000.0001) %MON obc_N_vVel_Int               =  -5.9514548865004E+04
(PID.TID 0000.0001) %MON obc_S_vVel_max               =  -3.6115799844846E-05
(PID.TID 0000.0001) %MON obc_S_vVel_min               =  -3.0000000000000E-02
(PID.TID 0000.0001) %MON obc_S_vVel_mean              =  -1.3225455303334E-02
(PID.TID 0000.0001) %MON obc_S_vVel_sd                =   1.1350864292742E-02
(PID.TID 0000.0001) %MON obc_S_vVel_Int               =  -5.9514548865004E+04
(PID.TID 0000.0001) // =======================================================
(PID.TID 0000.0001) // End OBCS MONITOR field statistics
(PID.TID 0000.0001) // =======================================================
 Computing Diagnostic #    26 "THETA   " (list#  1) Parms "SMR     MR      ", Count=     144
 Computing Diagnostic #    27 "SALT    " (list#  1) Parms "SMR     MR      ", Count=     144
 Computing Diagnostic #    30 "UVEL    " (list#  1) Parms "UUR     MR      ", Count=     144
             Vector  Mate for "UVEL    " :  Diagnostic #     31 "VVEL    " exists
 Computing Diagnostic #    32 "WVEL    " (list#  1) Parms "WM      LR      ", Count=     144
 Computing Diagnostic #    31 "VVEL    " (list#  1) Parms "VVR     MR      ", Count=     144
             Vector  Mate for "VVEL    " :  Diagnostic #     30 "UVEL    " exists
 Computing Diagnostic #   197 "BRGfwFlx" (list#  2) Parms "SM      MR      ", Count=     144
 Computing Diagnostic #   198 "BRGhtFlx" (list#  2) Parms "SM      MR      ", Count=     144
 Computing Diagnostic #   199 "BRGmltRt" (list#  2) Parms "SM      MR      ", Count=     144
 Computing Diagnostic #   201 "BRG_TauX" (list#  2) Parms "UU      MR      ", Count=    1728
 Computing Diagnostic #   202 "BRG_TauY" (list#  2) Parms "VV      MR      ", Count=    1728
 Computing Diagnostic #   203 "BRGhFacC" (list#  2) Parms "SM      MR      ", Count=    1728
 cg2d: Sum(rhs),rhsMax =   1.70113539921246E-09  1.30308363973060E-02
 cg2d: Sum(rhs),rhsMax =   1.70120001419249E-09  1.30306806291013E-02
 cg2d: Sum(rhs),rhsMax =   1.70126937537596E-09  1.30305249615002E-02
 cg2d: Sum(rhs),rhsMax =   1.70134711874326E-09  1.30303706988990E-02
 cg2d: Sum(rhs),rhsMax =   1.70139918820311E-09  1.30302163831085E-02
 cg2d: Sum(rhs),rhsMax =   1.70147088085493E-09  1.30300619598555E-02
 cg2d: Sum(rhs),rhsMax =   1.70154981771198E-09  1.30299073803021E-02
 cg2d: Sum(rhs),rhsMax =   1.70162231527549E-09  1.30297525908877E-02
 cg2d: Sum(rhs),rhsMax =   1.70168779067836E-09  1.30295975398873E-02
 cg2d: Sum(rhs),rhsMax =   1.70174782598842E-09  1.30294421786402E-02
 cg2d: Sum(rhs),rhsMax =   1.70181208014597E-09  1.30292864610032E-02
 cg2d: Sum(rhs),rhsMax =   1.70187508530262E-09  1.30291303357523E-02
 cg2d: Sum(rhs),rhsMax =   1.70193861781520E-09  1.30289737644323E-02
 cg2d: Sum(rhs),rhsMax =   1.70201744364995E-09  1.30288167045937E-02
 cg2d: Sum(rhs),rhsMax =   1.70208239169689E-09  1.30286591187643E-02
 cg2d: Sum(rhs),rhsMax =   1.70215572192767E-09  1.30285009713032E-02
 cg2d: Sum(rhs),rhsMax =   1.70222405615483E-09  1.30283422360421E-02
 cg2d: Sum(rhs),rhsMax =   1.70228456330968E-09  1.30281828830810E-02
 cg2d: Sum(rhs),rhsMax =   1.70235645025052E-09  1.30280228829377E-02
 cg2d: Sum(rhs),rhsMax =   1.70241268304672E-09  1.30278622132720E-02
 cg2d: Sum(rhs),rhsMax =   1.70247696495984E-09  1.30277008570918E-02
 cg2d: Sum(rhs),rhsMax =   1.70253836029310E-09  1.30275387975844E-02
 cg2d: Sum(rhs),rhsMax =   1.70260697207603E-09  1.30273760245870E-02
 cg2d: Sum(rhs),rhsMax =   1.70268724120071E-09  1.30272125368915E-02
 cg2d: Sum(rhs),rhsMax =   1.70275271660358E-09  1.30270483361704E-02
 cg2d: Sum(rhs),rhsMax =   1.70281777567283E-09  1.30268834256674E-02
 cg2d: Sum(rhs),rhsMax =   1.70287731138252E-09  1.30267178135255E-02
 cg2d: Sum(rhs),rhsMax =   1.70294642276581E-09  1.30265515150000E-02
 cg2d: Sum(rhs),rhsMax =   1.70301148183505E-09  1.30263845455104E-02
 cg2d: Sum(rhs),rhsMax =   1.70308817049047E-09  1.30262169270287E-02
 cg2d: Sum(rhs),rhsMax =   1.70315916925290E-09  1.30260486837039E-02
 cg2d: Sum(rhs),rhsMax =   1.70322686510183E-09  1.30258798448365E-02
 cg2d: Sum(rhs),rhsMax =   1.70330188842271E-09  1.30257104434376E-02
 cg2d: Sum(rhs),rhsMax =   1.70338687599525E-09  1.30255405122519E-02
 cg2d: Sum(rhs),rhsMax =   1.70345837435804E-09  1.30253700931184E-02
 cg2d: Sum(rhs),rhsMax =   1.70353378625698E-09  1.30251992262846E-02
 cg2d: Sum(rhs),rhsMax =   1.70360378581869E-09  1.30250279558815E-02
 cg2d: Sum(rhs),rhsMax =   1.70368114060793E-09  1.30248563292861E-02
 cg2d: Sum(rhs),rhsMax =   1.70374456209821E-09  1.30246843937750E-02
 cg2d: Sum(rhs),rhsMax =   1.70382064013097E-09  1.30245122038298E-02
 cg2d: Sum(rhs),rhsMax =   1.70389871656518E-09  1.30243398068221E-02
 cg2d: Sum(rhs),rhsMax =   1.70396147192164E-09  1.30241672609689E-02
 cg2d: Sum(rhs),rhsMax =   1.70402900123712E-09  1.30239946193080E-02
 cg2d: Sum(rhs),rhsMax =   1.70409686361950E-09  1.30238219375857E-02
 cg2d: Sum(rhs),rhsMax =   1.70416061817669E-09  1.30236492718476E-02
 cg2d: Sum(rhs),rhsMax =   1.70422578826823E-09  1.30234766788010E-02
 cg2d: Sum(rhs),rhsMax =   1.70429317880583E-09  1.30233042159218E-02
 cg2d: Sum(rhs),rhsMax =   1.70436936786089E-09  1.30231319385908E-02
 cg2d: Sum(rhs),rhsMax =   1.70444902636291E-09  1.30229599040112E-02
 cg2d: Sum(rhs),rhsMax =   1.70451991410303E-09  1.30227881668447E-02
 cg2d: Sum(rhs),rhsMax =   1.70459960036062E-09  1.30226167826778E-02
 cg2d: Sum(rhs),rhsMax =   1.70467645554950E-09  1.30224458034990E-02
 cg2d: Sum(rhs),rhsMax =   1.70474356853134E-09  1.30222752837584E-02
 cg2d: Sum(rhs),rhsMax =   1.70481562200564E-09  1.30221052731233E-02
 cg2d: Sum(rhs),rhsMax =   1.70488462236662E-09  1.30219358209636E-02
 cg2d: Sum(rhs),rhsMax =   1.70493363871316E-09  1.30217669758927E-02
 cg2d: Sum(rhs),rhsMax =   1.70500608076551E-09  1.30215987811880E-02
 cg2d: Sum(rhs),rhsMax =   1.70507141739051E-09  1.30214312817099E-02
 cg2d: Sum(rhs),rhsMax =   1.70514877217975E-09  1.30212645199334E-02
 cg2d: Sum(rhs),rhsMax =   1.70521147202507E-09  1.30210985345308E-02
 cg2d: Sum(rhs),rhsMax =   1.70527966747436E-09  1.30209333621363E-02
 cg2d: Sum(rhs),rhsMax =   1.70533229204572E-09  1.30207690368536E-02
 cg2d: Sum(rhs),rhsMax =   1.70541292199289E-09  1.30206055928456E-02
 cg2d: Sum(rhs),rhsMax =   1.70547612143856E-09  1.30204430589736E-02
 cg2d: Sum(rhs),rhsMax =   1.70553535183693E-09  1.30202814682303E-02
 cg2d: Sum(rhs),rhsMax =   1.70559508183565E-09  1.30201208276266E-02
 cg2d: Sum(rhs),rhsMax =   1.70567052149018E-09  1.30199611756919E-02
 cg2d: Sum(rhs),rhsMax =   1.70574090962994E-09  1.30198025305527E-02
 cg2d: Sum(rhs),rhsMax =   1.70580247149665E-09  1.30196449084591E-02
 cg2d: Sum(rhs),rhsMax =   1.70587297065872E-09  1.30194883235600E-02
 cg2d: Sum(rhs),rhsMax =   1.70593106307848E-09  1.30193327914106E-02
 cg2d: Sum(rhs),rhsMax =   1.70600311655278E-09  1.30191783244498E-02
 cg2d: Sum(rhs),rhsMax =   1.70606592742040E-09  1.30190249320181E-02
 cg2d: Sum(rhs),rhsMax =   1.70614414263248E-09  1.30188726243954E-02
 cg2d: Sum(rhs),rhsMax =   1.70620526040999E-09  1.30187214101315E-02
 cg2d: Sum(rhs),rhsMax =   1.70627531548284E-09  1.30185712945821E-02
 cg2d: Sum(rhs),rhsMax =   1.70634822937998E-09  1.30184222830348E-02
 cg2d: Sum(rhs),rhsMax =   1.70642108776597E-09  1.30182743810529E-02
 cg2d: Sum(rhs),rhsMax =   1.70648750685842E-09  1.30181275910330E-02
 cg2d: Sum(rhs),rhsMax =   1.70654457232189E-09  1.30179819178200E-02
 cg2d: Sum(rhs),rhsMax =   1.70661873521993E-09  1.30178373616442E-02
 cg2d: Sum(rhs),rhsMax =   1.70667660559509E-09  1.30176939258090E-02
 cg2d: Sum(rhs),rhsMax =   1.70675082400429E-09  1.30175516113624E-02
 cg2d: Sum(rhs),rhsMax =   1.70680203304130E-09  1.30174104219998E-02
 cg2d: Sum(rhs),rhsMax =   1.70686625944327E-09  1.30172703548417E-02
 cg2d: Sum(rhs),rhsMax =   1.70691910605925E-09  1.30171314143820E-02
 cg2d: Sum(rhs),rhsMax =   1.70699365753535E-09  1.30169936004787E-02
 cg2d: Sum(rhs),rhsMax =   1.70704014812451E-09  1.30168569159513E-02
 cg2d: Sum(rhs),rhsMax =   1.70711406122237E-09  1.30167213617828E-02
 cg2d: Sum(rhs),rhsMax =   1.70716821235040E-09  1.30165869404135E-02
 cg2d: Sum(rhs),rhsMax =   1.70722727621531E-09  1.30164536536497E-02
 cg2d: Sum(rhs),rhsMax =   1.70728997606062E-09  1.30163215028829E-02
 cg2d: Sum(rhs),rhsMax =   1.70735647841980E-09  1.30161904926236E-02
 cg2d: Sum(rhs),rhsMax =   1.70743510996552E-09  1.30160606255722E-02
 cg2d: Sum(rhs),rhsMax =   1.70750255601426E-09  1.30159319062834E-02
 cg2d: Sum(rhs),rhsMax =   1.70756653261606E-09  1.30158043356178E-02
 cg2d: Sum(rhs),rhsMax =   1.70762842754968E-09  1.30156779199597E-02
 cg2d: Sum(rhs),rhsMax =   1.70769232088475E-09  1.30155526602360E-02
 cg2d: Sum(rhs),rhsMax =   1.70776240371318E-09  1.30154285632154E-02
 cg2d: Sum(rhs),rhsMax =   1.70783018282883E-09  1.30153158126358E-02
 cg2d: Sum(rhs),rhsMax =   1.70787933795324E-09  1.30152041507303E-02
 cg2d: Sum(rhs),rhsMax =   1.70794642317951E-09  1.30150853841664E-02
 cg2d: Sum(rhs),rhsMax =   1.70801747745308E-09  1.30149354142784E-02
 cg2d: Sum(rhs),rhsMax =   1.70808220345542E-09  1.30147857744799E-02
 cg2d: Sum(rhs),rhsMax =   1.70814629107952E-09  1.30146380770385E-02
 cg2d: Sum(rhs),rhsMax =   1.70820899092483E-09  1.30144919076446E-02
 cg2d: Sum(rhs),rhsMax =   1.70826680578884E-09  1.30143472811428E-02
 cg2d: Sum(rhs),rhsMax =   1.70834774104733E-09  1.30142042716551E-02
 cg2d: Sum(rhs),rhsMax =   1.70843172941915E-09  1.30140629451847E-02
 cg2d: Sum(rhs),rhsMax =   1.70850605885065E-09  1.30139233604266E-02
 cg2d: Sum(rhs),rhsMax =   1.70857433756666E-09  1.30137855779118E-02
 cg2d: Sum(rhs),rhsMax =   1.70864555837369E-09  1.30136496570569E-02
 cg2d: Sum(rhs),rhsMax =   1.70870870230821E-09  1.30135156526554E-02
 cg2d: Sum(rhs),rhsMax =   1.70878070027136E-09  1.30133836215276E-02
 cg2d: Sum(rhs),rhsMax =   1.70884353889456E-09  1.30132536148140E-02
 cg2d: Sum(rhs),rhsMax =   1.70892638928777E-09  1.30131256786252E-02
 cg2d: Sum(rhs),rhsMax =   1.70898648010898E-09  1.30129998595560E-02
 cg2d: Sum(rhs),rhsMax =   1.70904798646454E-09  1.30128761992752E-02
 cg2d: Sum(rhs),rhsMax =   1.70911879093794E-09  1.30127547357813E-02
 cg2d: Sum(rhs),rhsMax =   1.70917247022118E-09  1.30126355033005E-02
 cg2d: Sum(rhs),rhsMax =   1.70924635556347E-09  1.30125185318906E-02
 cg2d: Sum(rhs),rhsMax =   1.70931632736959E-09  1.30124038485398E-02
 cg2d: Sum(rhs),rhsMax =   1.70939187804642E-09  1.30122914754377E-02
 cg2d: Sum(rhs),rhsMax =   1.70945016475521E-09  1.30121814296052E-02
 cg2d: Sum(rhs),rhsMax =   1.70951466871294E-09  1.30120737254254E-02
 cg2d: Sum(rhs),rhsMax =   1.70958455725234E-09  1.30119683711445E-02
 cg2d: Sum(rhs),rhsMax =   1.70964645218596E-09  1.30118653688995E-02
 cg2d: Sum(rhs),rhsMax =   1.70971919954965E-09  1.30117647191961E-02
 cg2d: Sum(rhs),rhsMax =   1.70978245450648E-09  1.30116664152351E-02
 cg2d: Sum(rhs),rhsMax =   1.70984126857121E-09  1.30115704412452E-02
 cg2d: Sum(rhs),rhsMax =   1.70990555048434E-09  1.30114767884345E-02
 cg2d: Sum(rhs),rhsMax =   1.70995501092008E-09  1.30113854316004E-02
 cg2d: Sum(rhs),rhsMax =   1.71001024451556E-09  1.30112963426300E-02
 cg2d: Sum(rhs),rhsMax =   1.71007541460710E-09  1.30112094904706E-02
 cg2d: Sum(rhs),rhsMax =   1.71013678218479E-09  1.30111248375804E-02
 cg2d: Sum(rhs),rhsMax =   1.71018527117539E-09  1.30110423408395E-02
 cg2d: Sum(rhs),rhsMax =   1.71023106787516E-09  1.30109619521212E-02
 cg2d: Sum(rhs),rhsMax =   1.71030783979731E-09  1.30108836200857E-02
 cg2d: Sum(rhs),rhsMax =   1.71037356500037E-09  1.30108072856552E-02
 cg2d: Sum(rhs),rhsMax =   1.71043554320072E-09  1.30107328853167E-02
 cg2d: Sum(rhs),rhsMax =   1.71050054675881E-09  1.30106603534692E-02
 cg2d: Sum(rhs),rhsMax =   1.71054934106074E-09  1.30105896161289E-02
 cg2d: Sum(rhs),rhsMax =   1.71061112497206E-09  1.30105205973200E-02
 cg2d: Sum(rhs),rhsMax =   1.71067188192708E-09  1.30104532133249E-02
 Computing Diagnostic #    26 "THETA   " (list#  1) Parms "SMR     MR      ", Count=     144
 Computing Diagnostic #    27 "SALT    " (list#  1) Parms "SMR     MR      ", Count=     144
 Computing Diagnostic #    30 "UVEL    " (list#  1) Parms "UUR     MR      ", Count=     144
             Vector  Mate for "UVEL    " :  Diagnostic #     31 "VVEL    " exists
 Computing Diagnostic #    32 "WVEL    " (list#  1) Parms "WM      LR      ", Count=     144
 Computing Diagnostic #    31 "VVEL    " (list#  1) Parms "VVR     MR      ", Count=     144
             Vector  Mate for "VVEL    " :  Diagnostic #     30 "UVEL    " exists
 Computing Diagnostic #   197 "BRGfwFlx" (list#  2) Parms "SM      MR      ", Count=     144
 Computing Diagnostic #   198 "BRGhtFlx" (list#  2) Parms "SM      MR      ", Count=     144
 Computing Diagnostic #   199 "BRGmltRt" (list#  2) Parms "SM      MR      ", Count=     144
 Computing Diagnostic #   201 "BRG_TauX" (list#  2) Parms "UU      MR      ", Count=    1728
 Computing Diagnostic #   202 "BRG_TauY" (list#  2) Parms "VV      MR      ", Count=    1728
 Computing Diagnostic #   203 "BRGhFacC" (list#  2) Parms "SM      MR      ", Count=    1728
 cg2d: Sum(rhs),rhsMax =   1.71072006560635E-09  1.30103873813643E-02
 cg2d: Sum(rhs),rhsMax =   1.71076311450413E-09  1.30103230106771E-02
 cg2d: Sum(rhs),rhsMax =   1.71081149247243E-09  1.30102600072000E-02
 cg2d: Sum(rhs),rhsMax =   1.71086894651395E-09  1.30101982749314E-02
 cg2d: Sum(rhs),rhsMax =   1.71092184864108E-09  1.30101377124826E-02
 cg2d: Sum(rhs),rhsMax =   1.71095557166545E-09  1.30100782147095E-02
 cg2d: Sum(rhs),rhsMax =   1.71101202650625E-09  1.30100196771893E-02
 cg2d: Sum(rhs),rhsMax =   1.71106756541306E-09  1.30099619900405E-02
 cg2d: Sum(rhs),rhsMax =   1.71112032876231E-09  1.30099050408130E-02
 cg2d: Sum(rhs),rhsMax =   1.71118549885385E-09  1.30098487155624E-02
 cg2d: Sum(rhs),rhsMax =   1.71124622805330E-09  1.30097929003810E-02
 cg2d: Sum(rhs),rhsMax =   1.71131925297274E-09  1.30097374772141E-02
 cg2d: Sum(rhs),rhsMax =   1.71137123916587E-09  1.30096823262921E-02
 cg2d: Sum(rhs),rhsMax =   1.71140521199042E-09  1.30096273296826E-02
 cg2d: Sum(rhs),rhsMax =   1.71147027105967E-09  1.30095723688260E-02
 cg2d: Sum(rhs),rhsMax =   1.71153205497099E-09  1.30095173216555E-02
 cg2d: Sum(rhs),rhsMax =   1.71159819650768E-09  1.30094620693544E-02
 cg2d: Sum(rhs),rhsMax =   1.71164218909503E-09  1.30094064904651E-02
 cg2d: Sum(rhs),rhsMax =   1.71169281526495E-09  1.30093504677178E-02
 cg2d: Sum(rhs),rhsMax =   1.71175532082124E-09  1.30092938830617E-02
 cg2d: Sum(rhs),rhsMax =   1.71180722374764E-09  1.30092366176237E-02
 cg2d: Sum(rhs),rhsMax =   1.71184386110745E-09  1.30091785580649E-02
 cg2d: Sum(rhs),rhsMax =   1.71191008591087E-09  1.30091195909493E-02
 cg2d: Sum(rhs),rhsMax =   1.71198444309795E-09  1.30090596055507E-02
 cg2d: Sum(rhs),rhsMax =   1.71204786458823E-09  1.30089984906672E-02
 cg2d: Sum(rhs),rhsMax =   1.71210912114361E-09  1.30089361425980E-02
 cg2d: Sum(rhs),rhsMax =   1.71218442202026E-09  1.30088724575313E-02
 cg2d: Sum(rhs),rhsMax =   1.71224734391018E-09  1.30088073354334E-02
 cg2d: Sum(rhs),rhsMax =   1.71231620549328E-09  1.30087406802510E-02
 cg2d: Sum(rhs),rhsMax =   1.71237024559900E-09  1.30086724003277E-02
 cg2d: Sum(rhs),rhsMax =   1.71243247359953E-09  1.30086024056190E-02
 cg2d: Sum(rhs),rhsMax =   1.71248037972305E-09  1.30085306112163E-02
 cg2d: Sum(rhs),rhsMax =   1.71254818659428E-09  1.30084569382650E-02
 cg2d: Sum(rhs),rhsMax =   1.71259689762948E-09  1.30083813108882E-02
 cg2d: Sum(rhs),rhsMax =   1.71265071569060E-09  1.30083036562709E-02
 cg2d: Sum(rhs),rhsMax =   1.71270833626558E-09  1.30082239111906E-02
 cg2d: Sum(rhs),rhsMax =   1.71277497740263E-09  1.30081420113400E-02
 cg2d: Sum(rhs),rhsMax =   1.71282973915332E-09  1.30080579017344E-02
 cg2d: Sum(rhs),rhsMax =   1.71288361272559E-09  1.30079715304230E-02
 cg2d: Sum(rhs),rhsMax =   1.71293770834247E-09  1.30078828542169E-02
 cg2d: Sum(rhs),rhsMax =   1.71298519813234E-09  1.30077918287455E-02
 cg2d: Sum(rhs),rhsMax =   1.71305369889296E-09  1.30076984205519E-02
 cg2d: Sum(rhs),rhsMax =   1.71311775876148E-09  1.30076026002799E-02
 cg2d: Sum(rhs),rhsMax =   1.71318320640879E-09  1.30075043435123E-02
 cg2d: Sum(rhs),rhsMax =   1.71323932818268E-09  1.30074036291463E-02
 cg2d: Sum(rhs),rhsMax =   1.71330299947314E-09  1.30073004448259E-02
 cg2d: Sum(rhs),rhsMax =   1.71337527499205E-09  1.30071947836425E-02
 cg2d: Sum(rhs),rhsMax =   1.71343531030210E-09  1.30070866398609E-02
 cg2d: Sum(rhs),rhsMax =   1.71349062716430E-09  1.30069760193772E-02
 cg2d: Sum(rhs),rhsMax =   1.71356126510425E-09  1.30068629267579E-02
 cg2d: Sum(rhs),rhsMax =   1.71362854461954E-09  1.30067473764625E-02
 cg2d: Sum(rhs),rhsMax =   1.71368724766197E-09  1.30066293852844E-02
 cg2d: Sum(rhs),rhsMax =   1.71373845669898E-09  1.30065089777708E-02
 cg2d: Sum(rhs),rhsMax =   1.71379871405364E-09  1.30063861792215E-02
 cg2d: Sum(rhs),rhsMax =   1.71386502212378E-09  1.30062610242320E-02
 cg2d: Sum(rhs),rhsMax =   1.71393479964088E-09  1.30061335488468E-02
 cg2d: Sum(rhs),rhsMax =   1.71399283654949E-09  1.30060037939263E-02
 cg2d: Sum(rhs),rhsMax =   1.71406136506569E-09  1.30058718059287E-02
 cg2d: Sum(rhs),rhsMax =   1.71412170568708E-09  1.30057376338642E-02
 cg2d: Sum(rhs),rhsMax =   1.71418093608544E-09  1.30056013334810E-02
 cg2d: Sum(rhs),rhsMax =   1.71425154626981E-09  1.30054629589844E-02
 cg2d: Sum(rhs),rhsMax =   1.71432712470221E-09  1.30053223436312E-02
 cg2d: Sum(rhs),rhsMax =   1.71438932494716E-09  1.30051800007539E-02
 cg2d: Sum(rhs),rhsMax =   1.71444786145614E-09  1.30050356878032E-02
 cg2d: Sum(rhs),rhsMax =   1.71451611241658E-09  1.30048894114776E-02
 cg2d: Sum(rhs),rhsMax =   1.71458597320040E-09  1.30047412747562E-02
 cg2d: Sum(rhs),rhsMax =   1.71466599252490E-09  1.30045913513033E-02
 cg2d: Sum(rhs),rhsMax =   1.71474895394041E-09  1.30044396972809E-02
 cg2d: Sum(rhs),rhsMax =   1.71481964739151E-09  1.30042863690578E-02
 cg2d: Sum(rhs),rhsMax =   1.71487668509940E-09  1.30041314273958E-02
 cg2d: Sum(rhs),rhsMax =   1.71495720402426E-09  1.30039749412682E-02
 cg2d: Sum(rhs),rhsMax =   1.71501648993377E-09  1.30038169830892E-02
 cg2d: Sum(rhs),rhsMax =   1.71507741342225E-09  1.30036576320042E-02
 cg2d: Sum(rhs),rhsMax =   1.71513969693393E-09  1.30034969685766E-02
 cg2d: Sum(rhs),rhsMax =   1.71519290437239E-09  1.30033350775589E-02
 cg2d: Sum(rhs),rhsMax =   1.71527037018393E-09  1.30031720420032E-02
 cg2d: Sum(rhs),rhsMax =   1.71534195181344E-09  1.30030079553340E-02
 cg2d: Sum(rhs),rhsMax =   1.71540981419582E-09  1.30028429073494E-02
 cg2d: Sum(rhs),rhsMax =   1.71548142358091E-09  1.30026769891659E-02
 cg2d: Sum(rhs),rhsMax =   1.71554426220411E-09  1.30025102972876E-02
 cg2d: Sum(rhs),rhsMax =   1.71561331807624E-09  1.30023429276894E-02
 cg2d: Sum(rhs),rhsMax =   1.71568118045862E-09  1.30021749769326E-02
 cg2d: Sum(rhs),rhsMax =   1.71575831320325E-09  1.30020065429780E-02
 cg2d: Sum(rhs),rhsMax =   1.71583769414951E-09  1.30018377135815E-02
 cg2d: Sum(rhs),rhsMax =   1.71592073883176E-09  1.30016685946939E-02
 cg2d: Sum(rhs),rhsMax =   1.71598935061468E-09  1.30014992867794E-02
 cg2d: Sum(rhs),rhsMax =   1.71606370780175E-09  1.30013298959344E-02
 cg2d: Sum(rhs),rhsMax =   1.71615457955632E-09  1.30011605247526E-02
 cg2d: Sum(rhs),rhsMax =   1.71622924205472E-09  1.30009912823038E-02
 cg2d: Sum(rhs),rhsMax =   1.71628602996243E-09  1.30008222720218E-02
 cg2d: Sum(rhs),rhsMax =   1.71635292089967E-09  1.30006535981529E-02
 cg2d: Sum(rhs),rhsMax =   1.71642788870940E-09  1.30004853668825E-02
 cg2d: Sum(rhs),rhsMax =   1.71649147673314E-09  1.30003176816833E-02
 cg2d: Sum(rhs),rhsMax =   1.71657568714956E-09  1.30001506455860E-02
 cg2d: Sum(rhs),rhsMax =   1.71664346626521E-09  1.29999843606404E-02
 cg2d: Sum(rhs),rhsMax =   1.71671798998574E-09  1.29998189245317E-02
 cg2d: Sum(rhs),rhsMax =   1.71678085636451E-09  1.29996544390870E-02
 cg2d: Sum(rhs),rhsMax =   1.71685496375140E-09  1.29994909987494E-02
 cg2d: Sum(rhs),rhsMax =   1.71692904338272E-09  1.29993286973446E-02
 cg2d: Sum(rhs),rhsMax =   1.71700451079282E-09  1.29991676263330E-02
 cg2d: Sum(rhs),rhsMax =   1.71708056107001E-09  1.29990078759894E-02
 cg2d: Sum(rhs),rhsMax =   1.71714123475830E-09  1.29988495331875E-02
 cg2d: Sum(rhs),rhsMax =   1.71720462849301E-09  1.29986926808195E-02
 cg2d: Sum(rhs),rhsMax =   1.71728464781751E-09  1.29985374019530E-02
 cg2d: Sum(rhs),rhsMax =   1.71735189957722E-09  1.29983837704437E-02
 cg2d: Sum(rhs),rhsMax =   1.71742603471969E-09  1.29982318628430E-02
 cg2d: Sum(rhs),rhsMax =   1.71749961475065E-09  1.29980817482846E-02
 cg2d: Sum(rhs),rhsMax =   1.71755540345764E-09  1.29979334920043E-02
 cg2d: Sum(rhs),rhsMax =   1.71762007394882E-09  1.29977871576570E-02
 cg2d: Sum(rhs),rhsMax =   1.71769498624741E-09  1.29976428016336E-02
 cg2d: Sum(rhs),rhsMax =   1.71775457746826E-09  1.29975004776745E-02
 cg2d: Sum(rhs),rhsMax =   1.71782116309416E-09  1.29973602348271E-02
 cg2d: Sum(rhs),rhsMax =   1.71789299452385E-09  1.29972221192573E-02
 cg2d: Sum(rhs),rhsMax =   1.71796293857440E-09  1.29970861686013E-02
 cg2d: Sum(rhs),rhsMax =   1.71803293813610E-09  1.29969524198008E-02
 cg2d: Sum(rhs),rhsMax =   1.71809408366919E-09  1.29968209027014E-02
 cg2d: Sum(rhs),rhsMax =   1.71816455507567E-09  1.29966916434232E-02
 cg2d: Sum(rhs),rhsMax =   1.71823874572929E-09  1.29965646622770E-02
 cg2d: Sum(rhs),rhsMax =   1.71829195316775E-09  1.29964399763136E-02
 cg2d: Sum(rhs),rhsMax =   1.71837044593559E-09  1.29963175960278E-02
 cg2d: Sum(rhs),rhsMax =   1.71841690876917E-09  1.29961975298539E-02
 cg2d: Sum(rhs),rhsMax =   1.71847774899092E-09  1.29960797762150E-02
 cg2d: Sum(rhs),rhsMax =   1.71853972719127E-09  1.29959643335366E-02
 cg2d: Sum(rhs),rhsMax =   1.71861738729184E-09  1.29958511937754E-02
 cg2d: Sum(rhs),rhsMax =   1.71866065823423E-09  1.29957403448433E-02
 cg2d: Sum(rhs),rhsMax =   1.71872258092343E-09  1.29956317687572E-02
 cg2d: Sum(rhs),rhsMax =   1.71879679933262E-09  1.29955254424798E-02
 cg2d: Sum(rhs),rhsMax =   1.71886782585062E-09  1.29954213424340E-02
 cg2d: Sum(rhs),rhsMax =   1.71892511335869E-09  1.29953194348360E-02
 cg2d: Sum(rhs),rhsMax =   1.71899433576428E-09  1.29952196848752E-02
 cg2d: Sum(rhs),rhsMax =   1.71905328860689E-09  1.29951220575281E-02
 cg2d: Sum(rhs),rhsMax =   1.71911807012037E-09  1.29950265087692E-02
 cg2d: Sum(rhs),rhsMax =   1.71917977076497E-09  1.29949329912900E-02
 cg2d: Sum(rhs),rhsMax =   1.71922734382157E-09  1.29948414550005E-02
 cg2d: Sum(rhs),rhsMax =   1.71929254166869E-09  1.29947518488845E-02
 cg2d: Sum(rhs),rhsMax =   1.71934541604024E-09  1.29946641151175E-02
 cg2d: Sum(rhs),rhsMax =   1.71940703341811E-09  1.29945781925582E-02
 cg2d: Sum(rhs),rhsMax =   1.71946534788248E-09  1.29944940189453E-02
 cg2d: Sum(rhs),rhsMax =   1.71952635463768E-09  1.29944115301508E-02
 cg2d: Sum(rhs),rhsMax =   1.71958067229916E-09  1.29943306563487E-02
 cg2d: Sum(rhs),rhsMax =   1.71964503747901E-09  1.29942513275185E-02
 cg2d: Sum(rhs),rhsMax =   1.71967728945788E-09  1.29941734703782E-02
 cg2d: Sum(rhs),rhsMax =   1.71974898210969E-09  1.29940970122147E-02
 cg2d: Sum(rhs),rhsMax =   1.71981345831185E-09  1.29940218753312E-02
 Computing Diagnostic #    26 "THETA   " (list#  1) Parms "SMR     MR      ", Count=     144
 Computing Diagnostic #    27 "SALT    " (list#  1) Parms "SMR     MR      ", Count=     144
 Computing Diagnostic #    30 "UVEL    " (list#  1) Parms "UUR     MR      ", Count=     144
             Vector  Mate for "UVEL    " :  Diagnostic #     31 "VVEL    " exists
 Computing Diagnostic #    32 "WVEL    " (list#  1) Parms "WM      LR      ", Count=     144
 Computing Diagnostic #    31 "VVEL    " (list#  1) Parms "VVR     MR      ", Count=     144
             Vector  Mate for "VVEL    " :  Diagnostic #     30 "UVEL    " exists
 Computing Diagnostic #   197 "BRGfwFlx" (list#  2) Parms "SM      MR      ", Count=     144
 Computing Diagnostic #   198 "BRGhtFlx" (list#  2) Parms "SM      MR      ", Count=     144
 Computing Diagnostic #   199 "BRGmltRt" (list#  2) Parms "SM      MR      ", Count=     144
 Computing Diagnostic #   201 "BRG_TauX" (list#  2) Parms "UU      MR      ", Count=    1728
 Computing Diagnostic #   202 "BRG_TauY" (list#  2) Parms "VV      MR      ", Count=    1728
 Computing Diagnostic #   203 "BRGhFacC" (list#  2) Parms "SM      MR      ", Count=    1728
 cg2d: Sum(rhs),rhsMax =   1.71988281949531E-09  1.29939479816721E-02
 cg2d: Sum(rhs),rhsMax =   1.71994832265376E-09  1.29938752527802E-02
 cg2d: Sum(rhs),rhsMax =   1.72001521359100E-09  1.29938036089470E-02
 cg2d: Sum(rhs),rhsMax =   1.72006972554151E-09  1.29937329683591E-02
 cg2d: Sum(rhs),rhsMax =   1.72012198929039E-09  1.29936632502861E-02
 cg2d: Sum(rhs),rhsMax =   1.72017738941932E-09  1.29935943726615E-02
 cg2d: Sum(rhs),rhsMax =   1.72024225419953E-09  1.29935262540694E-02
 cg2d: Sum(rhs),rhsMax =   1.72031341949541E-09  1.29934588115769E-02
 cg2d: Sum(rhs),rhsMax =   1.72035480305865E-09  1.29933919656891E-02
 cg2d: Sum(rhs),rhsMax =   1.72041600410289E-09  1.29933256335302E-02
 cg2d: Sum(rhs),rhsMax =   1.72047545654586E-09  1.29932597364460E-02
 cg2d: Sum(rhs),rhsMax =   1.72052497249275E-09  1.29931941943865E-02
 cg2d: Sum(rhs),rhsMax =   1.72057518232904E-09  1.29931289314230E-02
 cg2d: Sum(rhs),rhsMax =   1.72064229531088E-09  1.29930638684590E-02
 cg2d: Sum(rhs),rhsMax =   1.72068703729877E-09  1.29929989332578E-02
 cg2d: Sum(rhs),rhsMax =   1.72074909876585E-09  1.29929340517239E-02
 cg2d: Sum(rhs),rhsMax =   1.72079650528900E-09  1.29928691522326E-02
 cg2d: Sum(rhs),rhsMax =   1.72084937966055E-09  1.29928041663481E-02
 cg2d: Sum(rhs),rhsMax =   1.72090747208031E-09  1.29927390263236E-02
 cg2d: Sum(rhs),rhsMax =   1.72096437101033E-09  1.29926736704934E-02
 cg2d: Sum(rhs),rhsMax =   1.72102809781194E-09  1.29926080345852E-02
 cg2d: Sum(rhs),rhsMax =   1.72109046459035E-09  1.29925420603602E-02
 cg2d: Sum(rhs),rhsMax =   1.72114744678709E-09  1.29924756930632E-02
 cg2d: Sum(rhs),rhsMax =   1.72121439323547E-09  1.29924088766364E-02
 cg2d: Sum(rhs),rhsMax =   1.72127276321099E-09  1.29923411864923E-02
 cg2d: Sum(rhs),rhsMax =   1.72132227915789E-09  1.29922723279212E-02
 cg2d: Sum(rhs),rhsMax =   1.72136388476574E-09  1.29922022603267E-02
 cg2d: Sum(rhs),rhsMax =   1.72142744503390E-09  1.29921309570209E-02
 cg2d: Sum(rhs),rhsMax =   1.72148320598531E-09  1.29920583962345E-02
 cg2d: Sum(rhs),rhsMax =   1.72153891142557E-09  1.29919845616278E-02
 cg2d: Sum(rhs),rhsMax =   1.72158401423594E-09  1.29919094440084E-02
 cg2d: Sum(rhs),rhsMax =   1.72163241995982E-09  1.29918330415236E-02
 cg2d: Sum(rhs),rhsMax =   1.72170053214238E-09  1.29917553550989E-02
 cg2d: Sum(rhs),rhsMax =   1.72175712576106E-09  1.29916763968538E-02
 cg2d: Sum(rhs),rhsMax =   1.72182335056448E-09  1.29915961837966E-02
 cg2d: Sum(rhs),rhsMax =   1.72189440483805E-09  1.29915147371629E-02
 cg2d: Sum(rhs),rhsMax =   1.72194652980906E-09  1.29914320854018E-02
 cg2d: Sum(rhs),rhsMax =   1.72200290138314E-09  1.29913457665769E-02
 cg2d: Sum(rhs),rhsMax =   1.72206943149789E-09  1.29912577069162E-02
 cg2d: Sum(rhs),rhsMax =   1.72213279747702E-09  1.29911686270984E-02
 cg2d: Sum(rhs),rhsMax =   1.72219796756856E-09  1.29910785969395E-02
 cg2d: Sum(rhs),rhsMax =   1.72227249128909E-09  1.29909876987991E-02
 cg2d: Sum(rhs),rhsMax =   1.72234113082759E-09  1.29908960219318E-02
 cg2d: Sum(rhs),rhsMax =   1.72239614237846E-09  1.29908036537044E-02
 cg2d: Sum(rhs),rhsMax =   1.72245978591334E-09  1.29907106871279E-02
 cg2d: Sum(rhs),rhsMax =   1.72249792207424E-09  1.29906172119414E-02
 cg2d: Sum(rhs),rhsMax =   1.72256617303468E-09  1.29905233256734E-02
 cg2d: Sum(rhs),rhsMax =   1.72263572850717E-09  1.29904291187484E-02
 cg2d: Sum(rhs),rhsMax =   1.72269221110355E-09  1.29903346879205E-02
 cg2d: Sum(rhs),rhsMax =   1.72273653675781E-09  1.29902401253450E-02
 cg2d: Sum(rhs),rhsMax =   1.72279129850850E-09  1.29901455252772E-02
 cg2d: Sum(rhs),rhsMax =   1.72283867727607E-09  1.29900509774747E-02
 cg2d: Sum(rhs),rhsMax =   1.72290468003489E-09  1.29899565719852E-02
 cg2d: Sum(rhs),rhsMax =   1.72295938627443E-09  1.29898623931131E-02
 cg2d: Sum(rhs),rhsMax =   1.72302114243017E-09  1.29897685253015E-02
 cg2d: Sum(rhs),rhsMax =   1.72309194690357E-09  1.29896750491732E-02
 cg2d: Sum(rhs),rhsMax =   1.72313890933751E-09  1.29895820398253E-02
 cg2d: Sum(rhs),rhsMax =   1.72320657743086E-09  1.29894895699755E-02
 cg2d: Sum(rhs),rhsMax =   1.72327022096574E-09  1.29893977045885E-02
 cg2d: Sum(rhs),rhsMax =   1.72333383674506E-09  1.29893065074509E-02
 cg2d: Sum(rhs),rhsMax =   1.72338870951805E-09  1.29892160359751E-02
 cg2d: Sum(rhs),rhsMax =   1.72347550120300E-09  1.29891263408881E-02
 cg2d: Sum(rhs),rhsMax =   1.72353525895730E-09  1.29890374676469E-02
 cg2d: Sum(rhs),rhsMax =   1.72360403727367E-09  1.29889494560357E-02
 cg2d: Sum(rhs),rhsMax =   1.72367950468377E-09  1.29888623403404E-02
 cg2d: Sum(rhs),rhsMax =   1.72372918716412E-09  1.29887761470761E-02
 cg2d: Sum(rhs),rhsMax =   1.72380137941630E-09  1.29886908970301E-02
 cg2d: Sum(rhs),rhsMax =   1.72385636321160E-09  1.29886066052281E-02
 cg2d: Sum(rhs),rhsMax =   1.72391204089628E-09  1.29885232797790E-02
 cg2d: Sum(rhs),rhsMax =   1.72397482400832E-09  1.29884409206452E-02
 cg2d: Sum(rhs),rhsMax =   1.72401501408181E-09  1.29883595243161E-02
 cg2d: Sum(rhs),rhsMax =   1.72408567977733E-09  1.29882790788262E-02
 cg2d: Sum(rhs),rhsMax =   1.72415715038454E-09  1.29881995668231E-02
 cg2d: Sum(rhs),rhsMax =   1.72421676936096E-09  1.29881209635739E-02
 cg2d: Sum(rhs),rhsMax =   1.72426833922046E-09  1.29880432408039E-02
 cg2d: Sum(rhs),rhsMax =   1.72434388989728E-09  1.29879663633950E-02
 cg2d: Sum(rhs),rhsMax =   1.72439842960337E-09  1.29878902884354E-02
 cg2d: Sum(rhs),rhsMax =   1.72445183133085E-09  1.29878149701849E-02
 cg2d: Sum(rhs),rhsMax =   1.72449737823044E-09  1.29877403576028E-02
 cg2d: Sum(rhs),rhsMax =   1.72456776637020E-09  1.29876663933367E-02
 cg2d: Sum(rhs),rhsMax =   1.72462147340902E-09  1.29875930172819E-02
 cg2d: Sum(rhs),rhsMax =   1.72468184178598E-09  1.29875201654349E-02
 cg2d: Sum(rhs),rhsMax =   1.72473249571148E-09  1.29874477690164E-02
 cg2d: Sum(rhs),rhsMax =   1.72478606397242E-09  1.29873757560771E-02
 cg2d: Sum(rhs),rhsMax =   1.72485148386414E-09  1.29873040512790E-02
 cg2d: Sum(rhs),rhsMax =   1.72491729233393E-09  1.29872325774096E-02
 cg2d: Sum(rhs),rhsMax =   1.72499331485554E-09  1.29871612576290E-02
 cg2d: Sum(rhs),rhsMax =   1.72504993622979E-09  1.29870900089586E-02
 cg2d: Sum(rhs),rhsMax =   1.72510891682798E-09  1.29870187496119E-02
 cg2d: Sum(rhs),rhsMax =   1.72517633512115E-09  1.29869473990785E-02
 cg2d: Sum(rhs),rhsMax =   1.72522107710904E-09  1.29868758720025E-02
 cg2d: Sum(rhs),rhsMax =   1.72530154052275E-09  1.29868040852368E-02
 cg2d: Sum(rhs),rhsMax =   1.72535116749195E-09  1.29867319572629E-02
 cg2d: Sum(rhs),rhsMax =   1.72541114729086E-09  1.29866594145154E-02
 cg2d: Sum(rhs),rhsMax =   1.72545591703432E-09  1.29865863922102E-02
 cg2d: Sum(rhs),rhsMax =   1.72552019894745E-09  1.29865128109496E-02
 cg2d: Sum(rhs),rhsMax =   1.72557279576324E-09  1.29864385948647E-02
 cg2d: Sum(rhs),rhsMax =   1.72563641154255E-09  1.29863636689584E-02
 cg2d: Sum(rhs),rhsMax =   1.72569705747527E-09  1.29862879594271E-02
 cg2d: Sum(rhs),rhsMax =   1.72576342105657E-09  1.29862113986445E-02
 cg2d: Sum(rhs),rhsMax =   1.72582267921051E-09  1.29861339196740E-02
 cg2d: Sum(rhs),rhsMax =   1.72586697710919E-09  1.29860552086388E-02
 cg2d: Sum(rhs),rhsMax =   1.72592606872968E-09  1.29859746094661E-02
 cg2d: Sum(rhs),rhsMax =   1.72597192094059E-09  1.29858929138330E-02
 cg2d: Sum(rhs),rhsMax =   1.72602851455927E-09  1.29858100893582E-02
 cg2d: Sum(rhs),rhsMax =   1.72609193604956E-09  1.29857261033474E-02
 cg2d: Sum(rhs),rhsMax =   1.72614061932919E-09  1.29856409311347E-02
 cg2d: Sum(rhs),rhsMax =   1.72619038507626E-09  1.29855545500060E-02
 cg2d: Sum(rhs),rhsMax =   1.72625061467535E-09  1.29854669433557E-02
 cg2d: Sum(rhs),rhsMax =   1.72630207351254E-09  1.29853780997117E-02
 cg2d: Sum(rhs),rhsMax =   1.72635611361827E-09  1.29852880131374E-02
 cg2d: Sum(rhs),rhsMax =   1.72642194984363E-09  1.29851966784852E-02
 cg2d: Sum(rhs),rhsMax =   1.72649025631522E-09  1.29851040993742E-02
 cg2d: Sum(rhs),rhsMax =   1.72656156038897E-09  1.29850102824206E-02
 cg2d: Sum(rhs),rhsMax =   1.72661818176323E-09  1.29849152394694E-02
 cg2d: Sum(rhs),rhsMax =   1.72667799502868E-09  1.29848189842909E-02
 cg2d: Sum(rhs),rhsMax =   1.72673658704880E-09  1.29847215369893E-02
 cg2d: Sum(rhs),rhsMax =   1.72678446541674E-09  1.29846229218735E-02
 cg2d: Sum(rhs),rhsMax =   1.72685385435578E-09  1.29845231661704E-02
 cg2d: Sum(rhs),rhsMax =   1.72689496036327E-09  1.29844222996239E-02
 cg2d: Sum(rhs),rhsMax =   1.72696099087766E-09  1.29843203582457E-02
 cg2d: Sum(rhs),rhsMax =   1.72702285805570E-09  1.29842173781412E-02
 cg2d: Sum(rhs),rhsMax =   1.72709566093054E-09  1.29841133992361E-02
 cg2d: Sum(rhs),rhsMax =   1.72715822199798E-09  1.29840084654203E-02
 cg2d: Sum(rhs),rhsMax =   1.72722558478000E-09  1.29837958467120E-02
 cg2d: Sum(rhs),rhsMax =   1.72731043357466E-09  1.29835781170804E-02
 cg2d: Sum(rhs),rhsMax =   1.72737585346638E-09  1.29833611911370E-02
 cg2d: Sum(rhs),rhsMax =   1.72745343030023E-09  1.29831435603465E-02
 cg2d: Sum(rhs),rhsMax =   1.72752434579593E-09  1.29829251027025E-02
 cg2d: Sum(rhs),rhsMax =   1.72758471417289E-09  1.29827059322618E-02
 cg2d: Sum(rhs),rhsMax =   1.72766648209866E-09  1.29824861549222E-02
 cg2d: Sum(rhs),rhsMax =   1.72775913021006E-09  1.29822658718889E-02
 cg2d: Sum(rhs),rhsMax =   1.72784470064968E-09  1.29820451808463E-02
 cg2d: Sum(rhs),rhsMax =   1.72791839170294E-09  1.29818241811140E-02
 cg2d: Sum(rhs),rhsMax =   1.72799224928966E-09  1.29816029647284E-02
 cg2d: Sum(rhs),rhsMax =   1.72805617038030E-09  1.29813816260784E-02
 cg2d: Sum(rhs),rhsMax =   1.72813693910534E-09  1.29811602538496E-02
 cg2d: Sum(rhs),rhsMax =   1.72820491251002E-09  1.29809389351073E-02
 cg2d: Sum(rhs),rhsMax =   1.72827774314044E-09  1.29807177534183E-02
 cg2d: Sum(rhs),rhsMax =   1.72837244516444E-09  1.29804967882977E-02
 cg2d: Sum(rhs),rhsMax =   1.72843567236569E-09  1.29802761156048E-02
 cg2d: Sum(rhs),rhsMax =   1.72851422064468E-09  1.29800558069753E-02
 cg2d: Sum(rhs),rhsMax =   1.72859099256684E-09  1.29798359305672E-02
 cg2d: Sum(rhs),rhsMax =   1.72865893821594E-09  1.29796165492081E-02
 Computing Diagnostic #    26 "THETA   " (list#  1) Parms "SMR     MR      ", Count=     144
 Computing Diagnostic #    27 "SALT    " (list#  1) Parms "SMR     MR      ", Count=     144
 Computing Diagnostic #    30 "UVEL    " (list#  1) Parms "UUR     MR      ", Count=     144
             Vector  Mate for "UVEL    " :  Diagnostic #     31 "VVEL    " exists
 Computing Diagnostic #    32 "WVEL    " (list#  1) Parms "WM      LR      ", Count=     144
 Computing Diagnostic #    31 "VVEL    " (list#  1) Parms "VVR     MR      ", Count=     144
             Vector  Mate for "VVEL    " :  Diagnostic #     30 "UVEL    " exists
 Computing Diagnostic #   197 "BRGfwFlx" (list#  2) Parms "SM      MR      ", Count=     144
 Computing Diagnostic #   198 "BRGhtFlx" (list#  2) Parms "SM      MR      ", Count=     144
 Computing Diagnostic #   199 "BRGmltRt" (list#  2) Parms "SM      MR      ", Count=     144
 Computing Diagnostic #   201 "BRG_TauX" (list#  2) Parms "UU      MR      ", Count=    1728
 Computing Diagnostic #   202 "BRG_TauY" (list#  2) Parms "VV      MR      ", Count=    1728
 Computing Diagnostic #   203 "BRGhFacC" (list#  2) Parms "SM      MR      ", Count=    1728
 cg2d: Sum(rhs),rhsMax =   1.72873915182947E-09  1.29793977214763E-02
 cg2d: Sum(rhs),rhsMax =   1.72881539639569E-09  1.29791795016281E-02
 cg2d: Sum(rhs),rhsMax =   1.72889852434466E-09  1.29789619351329E-02
 cg2d: Sum(rhs),rhsMax =   1.72897374195458E-09  1.29787450702655E-02
 cg2d: Sum(rhs),rhsMax =   1.72903910633515E-09  1.29785289367545E-02
 cg2d: Sum(rhs),rhsMax =   1.72911188145441E-09  1.29783135733680E-02
 cg2d: Sum(rhs),rhsMax =   1.72916306273585E-09  1.29780990064411E-02
 cg2d: Sum(rhs),rhsMax =   1.72923278474180E-09  1.29778852559754E-02
 cg2d: Sum(rhs),rhsMax =   1.72930847419650E-09  1.29776723389257E-02
 cg2d: Sum(rhs),rhsMax =   1.72938424691793E-09  1.29774602642544E-02
 cg2d: Sum(rhs),rhsMax =   1.72945693877047E-09  1.29772490373702E-02
 cg2d: Sum(rhs),rhsMax =   1.72954614519050E-09  1.29770386572590E-02
 cg2d: Sum(rhs),rhsMax =   1.72960851196891E-09  1.29768291194543E-02
 cg2d: Sum(rhs),rhsMax =   1.72969724654415E-09  1.29766204120209E-02
 cg2d: Sum(rhs),rhsMax =   1.72976602486052E-09  1.29764125192711E-02
 cg2d: Sum(rhs),rhsMax =   1.72985542556958E-09  1.29762054208404E-02
 cg2d: Sum(rhs),rhsMax =   1.72993319669246E-09  1.29759990914201E-02
 cg2d: Sum(rhs),rhsMax =   1.72999414793651E-09  1.29757934992397E-02
 cg2d: Sum(rhs),rhsMax =   1.73007641546263E-09  1.29755886119117E-02
 cg2d: Sum(rhs),rhsMax =   1.73016886928501E-09  1.29753843888109E-02
 cg2d: Sum(rhs),rhsMax =   1.73025010985484E-09  1.29751807894666E-02
 cg2d: Sum(rhs),rhsMax =   1.73033279371460E-09  1.29749777663086E-02
 cg2d: Sum(rhs),rhsMax =   1.73039091388993E-09  1.29747752712776E-02
 cg2d: Sum(rhs),rhsMax =   1.73047051688080E-09  1.29745732505195E-02
 cg2d: Sum(rhs),rhsMax =   1.73053540941659E-09  1.29743716490172E-02
 cg2d: Sum(rhs),rhsMax =   1.73060943353676E-09  1.29741704089325E-02
 cg2d: Sum(rhs),rhsMax =   1.73068678832600E-09  1.29739694689865E-02
 cg2d: Sum(rhs),rhsMax =   1.73076364351488E-09  1.29737687693926E-02
 cg2d: Sum(rhs),rhsMax =   1.73084452326222E-09  1.29735682446561E-02
 cg2d: Sum(rhs),rhsMax =   1.73093639421751E-09  1.29733678301997E-02
 cg2d: Sum(rhs),rhsMax =   1.73101893929939E-09  1.29731674610028E-02
 cg2d: Sum(rhs),rhsMax =   1.73109493406542E-09  1.29729670675103E-02
 cg2d: Sum(rhs),rhsMax =   1.73116829205178E-09  1.29727665855696E-02
 cg2d: Sum(rhs),rhsMax =   1.73121833535461E-09  1.29725659466806E-02
 cg2d: Sum(rhs),rhsMax =   1.73129313663090E-09  1.29723650849656E-02
 cg2d: Sum(rhs),rhsMax =   1.73138281489571E-09  1.29721639332558E-02
 cg2d: Sum(rhs),rhsMax =   1.73145239812378E-09  1.29719624269815E-02
 cg2d: Sum(rhs),rhsMax =   1.73153794080783E-09  1.29717605007339E-02
 cg2d: Sum(rhs),rhsMax =   1.73161854299941E-09  1.29715580916206E-02
 cg2d: Sum(rhs),rhsMax =   1.73170525141764E-09  1.29713551396340E-02
 cg2d: Sum(rhs),rhsMax =   1.73179087736841E-09  1.29711515850678E-02
 cg2d: Sum(rhs),rhsMax =   1.73186115448587E-09  1.29709473715023E-02
 cg2d: Sum(rhs),rhsMax =   1.73193925867565E-09  1.29707424439099E-02
 cg2d: Sum(rhs),rhsMax =   1.73200723208033E-09  1.29705367508059E-02
 cg2d: Sum(rhs),rhsMax =   1.73209621645576E-09  1.29703302430539E-02
 cg2d: Sum(rhs),rhsMax =   1.73217129528780E-09  1.29701228741998E-02
 cg2d: Sum(rhs),rhsMax =   1.73223166366476E-09  1.29699146033258E-02
 cg2d: Sum(rhs),rhsMax =   1.73229289246457E-09  1.29697053917669E-02
 cg2d: Sum(rhs),rhsMax =   1.73237749145905E-09  1.29694952025521E-02
 cg2d: Sum(rhs),rhsMax =   1.73244432688513E-09  1.29692840046424E-02
 cg2d: Sum(rhs),rhsMax =   1.73251213375636E-09  1.29690717718688E-02
 cg2d: Sum(rhs),rhsMax =   1.73258829505585E-09  1.29688584782094E-02
 cg2d: Sum(rhs),rhsMax =   1.73265837788428E-09  1.29686441059535E-02
 cg2d: Sum(rhs),rhsMax =   1.73275299664155E-09  1.29684286432111E-02
 cg2d: Sum(rhs),rhsMax =   1.73282455051549E-09  1.29682120817028E-02
 cg2d: Sum(rhs),rhsMax =   1.73290787275349E-09  1.29679944129992E-02
 cg2d: Sum(rhs),rhsMax =   1.73298980721270E-09  1.29677756368232E-02
 cg2d: Sum(rhs),rhsMax =   1.73306349826596E-09  1.29675557553291E-02
 cg2d: Sum(rhs),rhsMax =   1.73313924323182E-09  1.29673347699084E-02
 cg2d: Sum(rhs),rhsMax =   1.73320818808165E-09  1.29671127030069E-02
 cg2d: Sum(rhs),rhsMax =   1.73328876251766E-09  1.29668895580516E-02
 cg2d: Sum(rhs),rhsMax =   1.73335718001155E-09  1.29666653516156E-02
 cg2d: Sum(rhs),rhsMax =   1.73345196530228E-09  1.29664401166140E-02
 cg2d: Sum(rhs),rhsMax =   1.73352349142064E-09  1.29662138822146E-02
 cg2d: Sum(rhs),rhsMax =   1.73361250355164E-09  1.29659866807922E-02
 cg2d: Sum(rhs),rhsMax =   1.73368694400544E-09  1.29657585434631E-02
 cg2d: Sum(rhs),rhsMax =   1.73375971912471E-09  1.29655295084202E-02
 cg2d: Sum(rhs),rhsMax =   1.73384201440641E-09  1.29652996199278E-02
 cg2d: Sum(rhs),rhsMax =   1.73391925817334E-09  1.29650689234608E-02
 cg2d: Sum(rhs),rhsMax =   1.73399372638272E-09  1.29648374687416E-02
 cg2d: Sum(rhs),rhsMax =   1.73407929682234E-09  1.29646053073501E-02
 cg2d: Sum(rhs),rhsMax =   1.73414607673728E-09  1.29643724961698E-02
 cg2d: Sum(rhs),rhsMax =   1.73422712301807E-09  1.29641390931565E-02
 cg2d: Sum(rhs),rhsMax =   1.73429959282601E-09  1.29639051593145E-02
 cg2d: Sum(rhs),rhsMax =   1.73438213790789E-09  1.29636707583991E-02
 cg2d: Sum(rhs),rhsMax =   1.73444966722336E-09  1.29634359574389E-02
 cg2d: Sum(rhs),rhsMax =   1.73452824325793E-09  1.29632008210325E-02
 cg2d: Sum(rhs),rhsMax =   1.73461117691787E-09  1.29629654224790E-02
 cg2d: Sum(rhs),rhsMax =   1.73467817887740E-09  1.29627298298044E-02
 cg2d: Sum(rhs),rhsMax =   1.73474812292795E-09  1.29624941171934E-02
 cg2d: Sum(rhs),rhsMax =   1.73483449827927E-09  1.29622583573116E-02
 cg2d: Sum(rhs),rhsMax =   1.73491299104711E-09  1.29620226264023E-02
 cg2d: Sum(rhs),rhsMax =   1.73500605549215E-09  1.29617869991779E-02
 cg2d: Sum(rhs),rhsMax =   1.73507996859001E-09  1.29615515504688E-02
 cg2d: Sum(rhs),rhsMax =   1.73517852863903E-09  1.29613163608332E-02
 cg2d: Sum(rhs),rhsMax =   1.73525671609553E-09  1.29610815014875E-02
 cg2d: Sum(rhs),rhsMax =   1.73533598601949E-09  1.29608470532322E-02
 cg2d: Sum(rhs),rhsMax =   1.73541508941000E-09  1.29606130904024E-02
 cg2d: Sum(rhs),rhsMax =   1.73550859794425E-09  1.29603796892717E-02
 cg2d: Sum(rhs),rhsMax =   1.73559130955958E-09  1.29601469240970E-02
 cg2d: Sum(rhs),rhsMax =   1.73568209804742E-09  1.29599148702683E-02
 cg2d: Sum(rhs),rhsMax =   1.73576303330591E-09  1.29596836014039E-02
 cg2d: Sum(rhs),rhsMax =   1.73584427387574E-09  1.29594531885685E-02
 cg2d: Sum(rhs),rhsMax =   1.73591746532864E-09  1.29592237012503E-02
 cg2d: Sum(rhs),rhsMax =   1.73599021269233E-09  1.29589952092111E-02
 cg2d: Sum(rhs),rhsMax =   1.73607056508374E-09  1.29587677801780E-02
 cg2d: Sum(rhs),rhsMax =   1.73615519183379E-09  1.29585414782365E-02
 cg2d: Sum(rhs),rhsMax =   1.73623126986655E-09  1.29583163650837E-02
 cg2d: Sum(rhs),rhsMax =   1.73630768096622E-09  1.29580925028799E-02
 cg2d: Sum(rhs),rhsMax =   1.73640329892422E-09  1.29578699488011E-02
 cg2d: Sum(rhs),rhsMax =   1.73647521362064E-09  1.29576487592984E-02
 cg2d: Sum(rhs),rhsMax =   1.73655134716455E-09  1.29574289874485E-02
 cg2d: Sum(rhs),rhsMax =   1.73662018099208E-09  1.29572100547529E-02
 cg2d: Sum(rhs),rhsMax =   1.73669054137626E-09  1.29569919236408E-02
 cg2d: Sum(rhs),rhsMax =   1.73676972803349E-09  1.29567753714297E-02
 cg2d: Sum(rhs),rhsMax =   1.73686456883537E-09  1.29565604523739E-02
 cg2d: Sum(rhs),rhsMax =   1.73693912031148E-09  1.29563704261196E-02
 cg2d: Sum(rhs),rhsMax =   1.73700920313991E-09  1.29562163610098E-02
 cg2d: Sum(rhs),rhsMax =   1.73707903616815E-09  1.29560640396389E-02
 cg2d: Sum(rhs),rhsMax =   1.73713798901076E-09  1.29559134144594E-02
 cg2d: Sum(rhs),rhsMax =   1.73722372598384E-09  1.29557653917504E-02
 cg2d: Sum(rhs),rhsMax =   1.73730174690689E-09  1.29556198160504E-02
 cg2d: Sum(rhs),rhsMax =   1.73735720254697E-09  1.29554759406656E-02
 cg2d: Sum(rhs),rhsMax =   1.73743011644412E-09  1.29553337266554E-02
 cg2d: Sum(rhs),rhsMax =   1.73749756249286E-09  1.29551931362949E-02
 cg2d: Sum(rhs),rhsMax =   1.73756059540509E-09  1.29550541245480E-02
 cg2d: Sum(rhs),rhsMax =   1.73762429445112E-09  1.29549166439128E-02
 cg2d: Sum(rhs),rhsMax =   1.73767333855324E-09  1.29547806469321E-02
 cg2d: Sum(rhs),rhsMax =   1.73774802880722E-09  1.29546460819924E-02
 cg2d: Sum(rhs),rhsMax =   1.73781192214228E-09  1.29545128960155E-02
 cg2d: Sum(rhs),rhsMax =   1.73786923740593E-09  1.29543810340707E-02
 cg2d: Sum(rhs),rhsMax =   1.73793307522985E-09  1.29542504432655E-02
 cg2d: Sum(rhs),rhsMax =   1.73797987113034E-09  1.29541210652892E-02
 cg2d: Sum(rhs),rhsMax =   1.73805517200698E-09  1.29539928455533E-02
 cg2d: Sum(rhs),rhsMax =   1.73811878778629E-09  1.29538657251221E-02
 cg2d: Sum(rhs),rhsMax =   1.73819283966203E-09  1.29537396469115E-02
 cg2d: Sum(rhs),rhsMax =   1.73825578930753E-09  1.29536145538387E-02
 cg2d: Sum(rhs),rhsMax =   1.73829953209470E-09  1.29534903870789E-02
 cg2d: Sum(rhs),rhsMax =   1.73836911532277E-09  1.29533670873784E-02
 cg2d: Sum(rhs),rhsMax =   1.73844019735192E-09  1.29532446002506E-02
 cg2d: Sum(rhs),rhsMax =   1.73850853157909E-09  1.29531228668520E-02
 cg2d: Sum(rhs),rhsMax =   1.73858061280896E-09  1.29530018329762E-02
 cg2d: Sum(rhs),rhsMax =   1.73863687336073E-09  1.29528814423394E-02
 cg2d: Sum(rhs),rhsMax =   1.73870809416776E-09  1.29527616393561E-02
 cg2d: Sum(rhs),rhsMax =   1.73877168219150E-09  1.29526423717135E-02
 cg2d: Sum(rhs),rhsMax =   1.73883166199040E-09  1.29525235862726E-02
 cg2d: Sum(rhs),rhsMax =   1.73889633248159E-09  1.29524052312807E-02
 cg2d: Sum(rhs),rhsMax =   1.73897068966866E-09  1.29522872581495E-02
 cg2d: Sum(rhs),rhsMax =   1.73902667266468E-09  1.29521696166112E-02
 cg2d: Sum(rhs),rhsMax =   1.73906908318422E-09  1.29520522604387E-02
 cg2d: Sum(rhs),rhsMax =   1.73912753642647E-09  1.29519351428556E-02
 cg2d: Sum(rhs),rhsMax =   1.73917927281941E-09  1.29518182217810E-02
 cg2d: Sum(rhs),rhsMax =   1.73924183388685E-09  1.29517014562310E-02
 cg2d: Sum(rhs),rhsMax =   1.73930195246363E-09  1.29515848036102E-02
 Computing Diagnostic #    26 "THETA   " (list#  1) Parms "SMR     MR      ", Count=     144
 Computing Diagnostic #    27 "SALT    " (list#  1) Parms "SMR     MR      ", Count=     144
 Computing Diagnostic #    30 "UVEL    " (list#  1) Parms "UUR     MR      ", Count=     144
             Vector  Mate for "UVEL    " :  Diagnostic #     31 "VVEL    " exists
 Computing Diagnostic #    32 "WVEL    " (list#  1) Parms "WM      LR      ", Count=     144
 Computing Diagnostic #    31 "VVEL    " (list#  1) Parms "VVR     MR      ", Count=     144
             Vector  Mate for "VVEL    " :  Diagnostic #     30 "UVEL    " exists
 Computing Diagnostic #   197 "BRGfwFlx" (list#  2) Parms "SM      MR      ", Count=     144
 Computing Diagnostic #   198 "BRGhtFlx" (list#  2) Parms "SM      MR      ", Count=     144
 Computing Diagnostic #   199 "BRGmltRt" (list#  2) Parms "SM      MR      ", Count=     144
 Computing Diagnostic #   201 "BRG_TauX" (list#  2) Parms "UU      MR      ", Count=    1728
 Computing Diagnostic #   202 "BRG_TauY" (list#  2) Parms "VV      MR      ", Count=    1728
 Computing Diagnostic #   203 "BRGhFacC" (list#  2) Parms "SM      MR      ", Count=    1728
 cg2d: Sum(rhs),rhsMax =   1.73937300673721E-09  1.29514682272845E-02
 cg2d: Sum(rhs),rhsMax =   1.73942563130858E-09  1.29513516913365E-02
 cg2d: Sum(rhs),rhsMax =   1.73948433435100E-09  1.29512351615249E-02
 cg2d: Sum(rhs),rhsMax =   1.73955325144526E-09  1.29511186045046E-02
 cg2d: Sum(rhs),rhsMax =   1.73963282668055E-09  1.29510019909624E-02
 cg2d: Sum(rhs),rhsMax =   1.73970718386762E-09  1.29508852933162E-02
 cg2d: Sum(rhs),rhsMax =   1.73977954265325E-09  1.29507684837291E-02
 cg2d: Sum(rhs),rhsMax =   1.73983522033794E-09  1.29506515400492E-02
 cg2d: Sum(rhs),rhsMax =   1.73990502561061E-09  1.29505344367965E-02
 cg2d: Sum(rhs),rhsMax =   1.73994746388573E-09  1.29504171521574E-02
 cg2d: Sum(rhs),rhsMax =   1.74001002495316E-09  1.29502996646082E-02
 cg2d: Sum(rhs),rhsMax =   1.74006101194557E-09  1.29501819620744E-02
 cg2d: Sum(rhs),rhsMax =   1.74011108300398E-09  1.29500640275323E-02
 cg2d: Sum(rhs),rhsMax =   1.74017067422483E-09  1.29499458491933E-02
 cg2d: Sum(rhs),rhsMax =   1.74024064603095E-09  1.29498274142688E-02
 cg2d: Sum(rhs),rhsMax =   1.74030403976566E-09  1.29497087175848E-02
 cg2d: Sum(rhs),rhsMax =   1.74037645406244E-09  1.29495897491832E-02
 cg2d: Sum(rhs),rhsMax =   1.74045053369376E-09  1.29494705049913E-02
 cg2d: Sum(rhs),rhsMax =   1.74051470458458E-09  1.29493509799006E-02
 cg2d: Sum(rhs),rhsMax =   1.74057215862611E-09  1.29492311731289E-02
 cg2d: Sum(rhs),rhsMax =   1.74062081415016E-09  1.29491110829343E-02
 cg2d: Sum(rhs),rhsMax =   1.74068584546383E-09  1.29489907104214E-02
 cg2d: Sum(rhs),rhsMax =   1.74075875936097E-09  1.29488700555595E-02
 cg2d: Sum(rhs),rhsMax =   1.74082445680845E-09  1.29487491241355E-02
 cg2d: Sum(rhs),rhsMax =   1.74086223214687E-09  1.29486279182051E-02
 cg2d: Sum(rhs),rhsMax =   1.74092931737313E-09  1.29485064424762E-02
 cg2d: Sum(rhs),rhsMax =   1.74098790939325E-09  1.29483847042436E-02
 cg2d: Sum(rhs),rhsMax =   1.74105485584164E-09  1.29482627078327E-02
 cg2d: Sum(rhs),rhsMax =   1.74110184603116E-09  1.29481404628155E-02
 cg2d: Sum(rhs),rhsMax =   1.74116912554645E-09  1.29480179762622E-02
 cg2d: Sum(rhs),rhsMax =   1.74122999352377E-09  1.29478952565235E-02
 cg2d: Sum(rhs),rhsMax =   1.74127554042336E-09  1.29477723133836E-02
 cg2d: Sum(rhs),rhsMax =   1.74134986985486E-09  1.29476491559406E-02
 cg2d: Sum(rhs),rhsMax =   1.74140973863146E-09  1.29475257940494E-02
 cg2d: Sum(rhs),rhsMax =   1.74147235521005E-09  1.29474022756424E-02
 cg2d: Sum(rhs),rhsMax =   1.74153019782963E-09  1.29472785864509E-02
 cg2d: Sum(rhs),rhsMax =   1.74160408317192E-09  1.29471547809240E-02
 cg2d: Sum(rhs),rhsMax =   1.74168027222699E-09  1.29470308814602E-02
 cg2d: Sum(rhs),rhsMax =   1.74172976041831E-09  1.29469069080311E-02
 cg2d: Sum(rhs),rhsMax =   1.74178027556593E-09  1.29467828824316E-02
 cg2d: Sum(rhs),rhsMax =   1.74185396661919E-09  1.29466588242195E-02
 cg2d: Sum(rhs),rhsMax =   1.74191364110676E-09  1.29465347535638E-02
 cg2d: Sum(rhs),rhsMax =   1.74197739566395E-09  1.29464106873311E-02
 cg2d: Sum(rhs),rhsMax =   1.74205455616416E-09  1.29462866409253E-02
 cg2d: Sum(rhs),rhsMax =   1.74212419490338E-09  1.29461626286364E-02
 cg2d: Sum(rhs),rhsMax =   1.74218214854527E-09  1.29460386599456E-02
 cg2d: Sum(rhs),rhsMax =   1.74224934479383E-09  1.29459147445931E-02
 cg2d: Sum(rhs),rhsMax =   1.74232528404872E-09  1.29457908880750E-02
 cg2d: Sum(rhs),rhsMax =   1.74238107275571E-09  1.29456670952850E-02
 cg2d: Sum(rhs),rhsMax =   1.74244105255461E-09  1.29455433660726E-02
 cg2d: Sum(rhs),rhsMax =   1.74250422424471E-09  1.29454196988926E-02
 cg2d: Sum(rhs),rhsMax =   1.74256720164578E-09  1.29452960895590E-02
 cg2d: Sum(rhs),rhsMax =   1.74262826391214E-09  1.29451725304260E-02
 cg2d: Sum(rhs),rhsMax =   1.74268649510978E-09  1.29450490113043E-02
 cg2d: Sum(rhs),rhsMax =   1.74275632813803E-09  1.29449255202009E-02
 cg2d: Sum(rhs),rhsMax =   1.74281603038118E-09  1.29448020392983E-02
 cg2d: Sum(rhs),rhsMax =   1.74289105370207E-09  1.29446785523061E-02
 cg2d: Sum(rhs),rhsMax =   1.74294925714413E-09  1.29445550369192E-02
 cg2d: Sum(rhs),rhsMax =   1.74300460176191E-09  1.29444314695004E-02
 cg2d: Sum(rhs),rhsMax =   1.74305261890773E-09  1.29443078218676E-02
 cg2d: Sum(rhs),rhsMax =   1.74311809431060E-09  1.29441840674665E-02
 cg2d: Sum(rhs),rhsMax =   1.74316930334761E-09  1.29440601718819E-02
 cg2d: Sum(rhs),rhsMax =   1.74322353774237E-09  1.29439361042197E-02
 cg2d: Sum(rhs),rhsMax =   1.74329550794994E-09  1.29438118247971E-02
 cg2d: Sum(rhs),rhsMax =   1.74337666525304E-09  1.29436872983693E-02
 cg2d: Sum(rhs),rhsMax =   1.74345285430810E-09  1.29435624821722E-02
 cg2d: Sum(rhs),rhsMax =   1.74351766357717E-09  1.29434373354837E-02
 cg2d: Sum(rhs),rhsMax =   1.74359515714428E-09  1.29433118157168E-02
 cg2d: Sum(rhs),rhsMax =   1.74364264693416E-09  1.29431858763605E-02
 cg2d: Sum(rhs),rhsMax =   1.74369885197478E-09  1.29430594708236E-02
 cg2d: Sum(rhs),rhsMax =   1.74374981121161E-09  1.29429325524123E-02
 cg2d: Sum(rhs),rhsMax =   1.74381631357079E-09  1.29428050723940E-02
 cg2d: Sum(rhs),rhsMax =   1.74390063500951E-09  1.29426769827486E-02
 cg2d: Sum(rhs),rhsMax =   1.74396547203415E-09  1.29425482335459E-02
 cg2d: Sum(rhs),rhsMax =   1.74403946839874E-09  1.29424187737331E-02
 cg2d: Sum(rhs),rhsMax =   1.74409492403882E-09  1.29422885562731E-02
 cg2d: Sum(rhs),rhsMax =   1.74417313925090E-09  1.29421575291602E-02
 cg2d: Sum(rhs),rhsMax =   1.74423842036475E-09  1.29420256445939E-02
 cg2d: Sum(rhs),rhsMax =   1.74429706789603E-09  1.29418928534838E-02
 cg2d: Sum(rhs),rhsMax =   1.74436651234622E-09  1.29417591052629E-02
 cg2d: Sum(rhs),rhsMax =   1.74444286793474E-09  1.29416243321833E-02
 cg2d: Sum(rhs),rhsMax =   1.74452152723603E-09  1.29414884809051E-02
 cg2d: Sum(rhs),rhsMax =   1.74458081314555E-09  1.29413514702340E-02
 cg2d: Sum(rhs),rhsMax =   1.74465034086246E-09  1.29412132348988E-02
 cg2d: Sum(rhs),rhsMax =   1.74470687896999E-09  1.29410737119944E-02
 cg2d: Sum(rhs),rhsMax =   1.74477782222127E-09  1.29409328417356E-02
 cg2d: Sum(rhs),rhsMax =   1.74483652526369E-09  1.29407905674254E-02
 cg2d: Sum(rhs),rhsMax =   1.74490877302702E-09  1.29406468368320E-02
 cg2d: Sum(rhs),rhsMax =   1.74497558069753E-09  1.29405016035278E-02
 cg2d: Sum(rhs),rhsMax =   1.74502753913508E-09  1.29403548228425E-02
 cg2d: Sum(rhs),rhsMax =   1.74507844286076E-09  1.29402064598430E-02
 cg2d: Sum(rhs),rhsMax =   1.74515638051709E-09  1.29400564830157E-02
 cg2d: Sum(rhs),rhsMax =   1.74521902485125E-09  1.29399048680529E-02
 cg2d: Sum(rhs),rhsMax =   1.74529524166189E-09  1.29397515967253E-02
 cg2d: Sum(rhs),rhsMax =   1.74535561003886E-09  1.29395966564053E-02
 cg2d: Sum(rhs),rhsMax =   1.74542288955415E-09  1.29394400451269E-02
 cg2d: Sum(rhs),rhsMax =   1.74548889231296E-09  1.29392817623089E-02
 cg2d: Sum(rhs),rhsMax =   1.74557152066157E-09  1.29391218179185E-02
 cg2d: Sum(rhs),rhsMax =   1.74564537824828E-09  1.29389602294734E-02
 cg2d: Sum(rhs),rhsMax =   1.74570988220601E-09  1.29387970189252E-02
 cg2d: Sum(rhs),rhsMax =   1.74577410860799E-09  1.29386322194427E-02
 cg2d: Sum(rhs),rhsMax =   1.74584022238911E-09  1.29384658663050E-02
 cg2d: Sum(rhs),rhsMax =   1.74590383816842E-09  1.29382980064009E-02
 cg2d: Sum(rhs),rhsMax =   1.74596648250258E-09  1.29381286895673E-02
 cg2d: Sum(rhs),rhsMax =   1.74603848046573E-09  1.29379579728926E-02
 cg2d: Sum(rhs),rhsMax =   1.74610251257867E-09  1.29377859198700E-02
 cg2d: Sum(rhs),rhsMax =   1.74618580706110E-09  1.29376126001794E-02
 cg2d: Sum(rhs),rhsMax =   1.74625644500104E-09  1.29374380873160E-02
 cg2d: Sum(rhs),rhsMax =   1.74632566740662E-09  1.29372624618313E-02
 cg2d: Sum(rhs),rhsMax =   1.74639869232607E-09  1.29370858066732E-02
 cg2d: Sum(rhs),rhsMax =   1.74647293849084E-09  1.29369082095275E-02
 cg2d: Sum(rhs),rhsMax =   1.74654560258780E-09  1.29367297635523E-02
 cg2d: Sum(rhs),rhsMax =   1.74660752527700E-09  1.29365505631291E-02
 cg2d: Sum(rhs),rhsMax =   1.74667452723654E-09  1.29363707045186E-02
 cg2d: Sum(rhs),rhsMax =   1.74673470132447E-09  1.29361902889454E-02
 cg2d: Sum(rhs),rhsMax =   1.74680567233132E-09  1.29360094173761E-02
 cg2d: Sum(rhs),rhsMax =   1.74688855048011E-09  1.29358281912658E-02
 cg2d: Sum(rhs),rhsMax =   1.74695546917292E-09  1.29356467135880E-02
 cg2d: Sum(rhs),rhsMax =   1.74703587707548E-09  1.29354650877163E-02
 cg2d: Sum(rhs),rhsMax =   1.74710554357027E-09  1.29353081122288E-02
 cg2d: Sum(rhs),rhsMax =   1.74716785483753E-09  1.29351511498781E-02
 cg2d: Sum(rhs),rhsMax =   1.74725287016564E-09  1.29349941775704E-02
 cg2d: Sum(rhs),rhsMax =   1.74734246516373E-09  1.29348374064852E-02
 cg2d: Sum(rhs),rhsMax =   1.74741759950692E-09  1.29346808607475E-02
 cg2d: Sum(rhs),rhsMax =   1.74748898684740E-09  1.29345246036786E-02
 cg2d: Sum(rhs),rhsMax =   1.74756481507998E-09  1.29343687066125E-02
 cg2d: Sum(rhs),rhsMax =   1.74763378768539E-09  1.29342132289664E-02
 cg2d: Sum(rhs),rhsMax =   1.74768644001233E-09  1.29340582347014E-02
 cg2d: Sum(rhs),rhsMax =   1.74774186789683E-09  1.29339037754856E-02
 cg2d: Sum(rhs),rhsMax =   1.74781200623642E-09  1.29337499019799E-02
 cg2d: Sum(rhs),rhsMax =   1.74786735085419E-09  1.29335966573066E-02
 cg2d: Sum(rhs),rhsMax =   1.74793576834809E-09  1.29334440800483E-02
 cg2d: Sum(rhs),rhsMax =   1.74800723895530E-09  1.29332922047620E-02
 cg2d: Sum(rhs),rhsMax =   1.74807585073822E-09  1.29331410570931E-02
 cg2d: Sum(rhs),rhsMax =   1.74812872510977E-09  1.29329906597728E-02
 cg2d: Sum(rhs),rhsMax =   1.74819342335653E-09  1.29328410255014E-02
 cg2d: Sum(rhs),rhsMax =   1.74827377574793E-09  1.29326921643480E-02
 cg2d: Sum(rhs),rhsMax =   1.74833605925961E-09  1.29325440770344E-02
 cg2d: Sum(rhs),rhsMax =   1.74840944500154E-09  1.29323967572493E-02
 cg2d: Sum(rhs),rhsMax =   1.74847736289507E-09  1.29322501973366E-02
 cg2d: Sum(rhs),rhsMax =   1.74854916656919E-09  1.29321043758824E-02
 cg2d: Sum(rhs),rhsMax =   1.74860781410047E-09  1.29319592712659E-02
 cg2d: Sum(rhs),rhsMax =   1.74867803570677E-09  1.29318148520807E-02
 cg2d: Sum(rhs),rhsMax =   1.74873804326126E-09  1.29316710824405E-02
 Computing Diagnostic #    26 "THETA   " (list#  1) Parms "SMR     MR      ", Count=     144
 Computing Diagnostic #    27 "SALT    " (list#  1) Parms "SMR     MR      ", Count=     144
 Computing Diagnostic #    30 "UVEL    " (list#  1) Parms "UUR     MR      ", Count=     144
             Vector  Mate for "UVEL    " :  Diagnostic #     31 "VVEL    " exists
 Computing Diagnostic #    32 "WVEL    " (list#  1) Parms "WM      LR      ", Count=     144
 Computing Diagnostic #    31 "VVEL    " (list#  1) Parms "VVR     MR      ", Count=     144
             Vector  Mate for "VVEL    " :  Diagnostic #     30 "UVEL    " exists
 Computing Diagnostic #   197 "BRGfwFlx" (list#  2) Parms "SM      MR      ", Count=     144
 Computing Diagnostic #   198 "BRGhtFlx" (list#  2) Parms "SM      MR      ", Count=     144
 Computing Diagnostic #   199 "BRGmltRt" (list#  2) Parms "SM      MR      ", Count=     144
 Computing Diagnostic #   201 "BRG_TauX" (list#  2) Parms "UU      MR      ", Count=    1728
 Computing Diagnostic #   202 "BRG_TauY" (list#  2) Parms "VV      MR      ", Count=    1728
 Computing Diagnostic #   203 "BRGhFacC" (list#  2) Parms "SM      MR      ", Count=    1728
 cg2d: Sum(rhs),rhsMax =   1.74880182557402E-09  1.29315279192210E-02
 cg2d: Sum(rhs),rhsMax =   1.74888051263089E-09  1.29313853123768E-02
 cg2d: Sum(rhs),rhsMax =   1.74894537741110E-09  1.29312432087580E-02
 cg2d: Sum(rhs),rhsMax =   1.74900161020730E-09  1.29311015492240E-02
 cg2d: Sum(rhs),rhsMax =   1.74907008321235E-09  1.29309602745672E-02
 cg2d: Sum(rhs),rhsMax =   1.74914227546452E-09  1.29308193156620E-02
 cg2d: Sum(rhs),rhsMax =   1.74920547491020E-09  1.29306786019946E-02
 cg2d: Sum(rhs),rhsMax =   1.74928080354242E-09  1.29305380614012E-02
 cg2d: Sum(rhs),rhsMax =   1.74933911800679E-09  1.29303976163948E-02
 cg2d: Sum(rhs),rhsMax =   1.74940878450158E-09  1.29302571875654E-02
 cg2d: Sum(rhs),rhsMax =   1.74948988629353E-09  1.29301166941602E-02
 cg2d: Sum(rhs),rhsMax =   1.74954536968919E-09  1.29299760543072E-02
 cg2d: Sum(rhs),rhsMax =   1.74960085308484E-09  1.29298351851477E-02
 cg2d: Sum(rhs),rhsMax =   1.74967640376167E-09  1.29296940040635E-02
 cg2d: Sum(rhs),rhsMax =   1.74974165711994E-09  1.29295524264868E-02
 cg2d: Sum(rhs),rhsMax =   1.74980427369853E-09  1.29294103713902E-02
 cg2d: Sum(rhs),rhsMax =   1.74987443979369E-09  1.29292677561783E-02
 cg2d: Sum(rhs),rhsMax =   1.74993222690212E-09  1.29291245031197E-02
 cg2d: Sum(rhs),rhsMax =   1.74999401081344E-09  1.29289805336511E-02
 cg2d: Sum(rhs),rhsMax =   1.75006456548665E-09  1.29288357754896E-02
 cg2d: Sum(rhs),rhsMax =   1.75012856984402E-09  1.29286901580899E-02
 cg2d: Sum(rhs),rhsMax =   1.75020475889909E-09  1.29285436140946E-02
 cg2d: Sum(rhs),rhsMax =   1.75026590443217E-09  1.29283960823880E-02
 cg2d: Sum(rhs),rhsMax =   1.75033645910538E-09  1.29282475051167E-02
 cg2d: Sum(rhs),rhsMax =   1.75041500738438E-09  1.29280978316018E-02
 cg2d: Sum(rhs),rhsMax =   1.75047046302446E-09  1.29279470136326E-02
 cg2d: Sum(rhs),rhsMax =   1.75053666007230E-09  1.29277950125169E-02
 cg2d: Sum(rhs),rhsMax =   1.75061742879734E-09  1.29276417957735E-02
 cg2d: Sum(rhs),rhsMax =   1.75067904617521E-09  1.29274873333308E-02
 cg2d: Sum(rhs),rhsMax =   1.75074763020255E-09  1.29273316073949E-02
 cg2d: Sum(rhs),rhsMax =   1.75080858144661E-09  1.29271746023567E-02
 cg2d: Sum(rhs),rhsMax =   1.75087924714212E-09  1.29270163122429E-02
 cg2d: Sum(rhs),rhsMax =   1.75093134435755E-09  1.29268567388549E-02
 cg2d: Sum(rhs),rhsMax =   1.75099684751601E-09  1.29266958912407E-02
 cg2d: Sum(rhs),rhsMax =   1.75107683908493E-09  1.29265337876412E-02
 cg2d: Sum(rhs),rhsMax =   1.75114456268943E-09  1.29263704472207E-02
 cg2d: Sum(rhs),rhsMax =   1.75120967726983E-09  1.29262058894067E-02
 cg2d: Sum(rhs),rhsMax =   1.75127176649248E-09  1.29260401544769E-02
 cg2d: Sum(rhs),rhsMax =   1.75133210711387E-09  1.29258733195846E-02
 cg2d: Sum(rhs),rhsMax =   1.75139674984948E-09  1.29257054490494E-02
 cg2d: Sum(rhs),rhsMax =   1.75145892233886E-09  1.29255365987777E-02
 cg2d: Sum(rhs),rhsMax =   1.75152861658923E-09  1.29253668323007E-02
 cg2d: Sum(rhs),rhsMax =   1.75160327908763E-09  1.29251962251050E-02
 cg2d: Sum(rhs),rhsMax =   1.75166733895615E-09  1.29250248594060E-02
 cg2d: Sum(rhs),rhsMax =   1.75174463823424E-09  1.29248528261041E-02
 cg2d: Sum(rhs),rhsMax =   1.75181180672723E-09  1.29246802211519E-02
 cg2d: Sum(rhs),rhsMax =   1.75188116791070E-09  1.29245071470082E-02
 cg2d: Sum(rhs),rhsMax =   1.75197298335483E-09  1.29243337106453E-02
 cg2d: Sum(rhs),rhsMax =   1.75204059593703E-09  1.29241600227211E-02
 cg2d: Sum(rhs),rhsMax =   1.75210418396077E-09  1.29239862001114E-02
 cg2d: Sum(rhs),rhsMax =   1.75216752218432E-09  1.29238123591900E-02
 cg2d: Sum(rhs),rhsMax =   1.75224063037049E-09  1.29236386247377E-02
 cg2d: Sum(rhs),rhsMax =   1.75231093524353E-09  1.29234651192153E-02
 cg2d: Sum(rhs),rhsMax =   1.75238226707286E-09  1.29232919695218E-02
 cg2d: Sum(rhs),rhsMax =   1.75244141420450E-09  1.29231193029142E-02
 cg2d: Sum(rhs),rhsMax =   1.75250722267428E-09  1.29229472454100E-02
 cg2d: Sum(rhs),rhsMax =   1.75257516832339E-09  1.29227759258619E-02
 cg2d: Sum(rhs),rhsMax =   1.75265782442757E-09  1.29226054729603E-02
 cg2d: Sum(rhs),rhsMax =   1.75272818481176E-09  1.29224360126783E-02
 cg2d: Sum(rhs),rhsMax =   1.75278777603260E-09  1.29222676690617E-02
 cg2d: Sum(rhs),rhsMax =   1.75285036485562E-09  1.29221005676206E-02
 cg2d: Sum(rhs),rhsMax =   1.75292072523980E-09  1.29219348247159E-02
 cg2d: Sum(rhs),rhsMax =   1.75299066929036E-09  1.29217705606677E-02
 cg2d: Sum(rhs),rhsMax =   1.75305941985116E-09  1.29216078882398E-02
 cg2d: Sum(rhs),rhsMax =   1.75313816241918E-09  1.29214469158530E-02
 cg2d: Sum(rhs),rhsMax =   1.75319664341700E-09  1.29212877495055E-02
 cg2d: Sum(rhs),rhsMax =   1.75327638518574E-09  1.29211304861257E-02
 cg2d: Sum(rhs),rhsMax =   1.75334291530049E-09  1.29209752212274E-02
 cg2d: Sum(rhs),rhsMax =   1.75340714170247E-09  1.29208220418703E-02
 cg2d: Sum(rhs),rhsMax =   1.75345063468946E-09  1.29206710290313E-02
 cg2d: Sum(rhs),rhsMax =   1.75352773967852E-09  1.29205222565743E-02
 cg2d: Sum(rhs),rhsMax =   1.75360204135444E-09  1.29203757929588E-02
 cg2d: Sum(rhs),rhsMax =   1.75366485222206E-09  1.29202316969619E-02
 cg2d: Sum(rhs),rhsMax =   1.75371661637058E-09  1.29200900189910E-02
 cg2d: Sum(rhs),rhsMax =   1.75379066824632E-09  1.29199508075702E-02
 cg2d: Sum(rhs),rhsMax =   1.75384493039665E-09  1.29198140962453E-02
 cg2d: Sum(rhs),rhsMax =   1.75392148027420E-09  1.29196799123801E-02
 cg2d: Sum(rhs),rhsMax =   1.75399206270299E-09  1.29195482796756E-02
 cg2d: Sum(rhs),rhsMax =   1.75404374358479E-09  1.29194192090104E-02
 cg2d: Sum(rhs),rhsMax =   1.75410955205457E-09  1.29192927046214E-02
 cg2d: Sum(rhs),rhsMax =   1.75417577685799E-09  1.29191687627284E-02
 cg2d: Sum(rhs),rhsMax =   1.75425032833409E-09  1.29190473720292E-02
 cg2d: Sum(rhs),rhsMax =   1.75431591475927E-09  1.29189285111153E-02
 cg2d: Sum(rhs),rhsMax =   1.75437786520405E-09  1.29188121551044E-02
 cg2d: Sum(rhs),rhsMax =   1.75444334060693E-09  1.29186982671987E-02
 cg2d: Sum(rhs),rhsMax =   1.75450345918371E-09  1.29185868072006E-02
 cg2d: Sum(rhs),rhsMax =   1.75455641682198E-09  1.29184777257600E-02
 cg2d: Sum(rhs),rhsMax =   1.75462197549159E-09  1.29183709669533E-02
 cg2d: Sum(rhs),rhsMax =   1.75469186403099E-09  1.29182664695851E-02
 cg2d: Sum(rhs),rhsMax =   1.75474318409030E-09  1.29181641666527E-02
 cg2d: Sum(rhs),rhsMax =   1.75479941688650E-09  1.29180639817097E-02
 cg2d: Sum(rhs),rhsMax =   1.75485329045877E-09  1.29179658380641E-02
 cg2d: Sum(rhs),rhsMax =   1.75489861531375E-09  1.29178696536791E-02
 cg2d: Sum(rhs),rhsMax =   1.75494463405812E-09  1.29177753376681E-02
 cg2d: Sum(rhs),rhsMax =   1.75501685406587E-09  1.29176828016260E-02
 cg2d: Sum(rhs),rhsMax =   1.75507955391119E-09  1.29175919464473E-02
 cg2d: Sum(rhs),rhsMax =   1.75514455746928E-09  1.29175026716518E-02
 cg2d: Sum(rhs),rhsMax =   1.75520362133419E-09  1.29174148808139E-02
 cg2d: Sum(rhs),rhsMax =   1.75525605161653E-09  1.29173284701075E-02
 cg2d: Sum(rhs),rhsMax =   1.75530720514239E-09  1.29172433326889E-02
 cg2d: Sum(rhs),rhsMax =   1.75536871149795E-09  1.29171593632765E-02
 cg2d: Sum(rhs),rhsMax =   1.75541864377848E-09  1.29170764560014E-02
 cg2d: Sum(rhs),rhsMax =   1.75547992808944E-09  1.29169945046962E-02
 cg2d: Sum(rhs),rhsMax =   1.75554468184735E-09  1.29169134032826E-02
 cg2d: Sum(rhs),rhsMax =   1.75561465365348E-09  1.29168330447986E-02
 cg2d: Sum(rhs),rhsMax =   1.75567457794124E-09  1.29167533293623E-02
 cg2d: Sum(rhs),rhsMax =   1.75572489879983E-09  1.29166741521457E-02
 cg2d: Sum(rhs),rhsMax =   1.75578221406347E-09  1.29165954146072E-02
 cg2d: Sum(rhs),rhsMax =   1.75583042549832E-09  1.29165170190359E-02
 cg2d: Sum(rhs),rhsMax =   1.75590764150968E-09  1.29164388706986E-02
 cg2d: Sum(rhs),rhsMax =   1.75597100748881E-09  1.29163608783171E-02
 cg2d: Sum(rhs),rhsMax =   1.75603220853304E-09  1.29162829533101E-02
 cg2d: Sum(rhs),rhsMax =   1.75608266816951E-09  1.29162050127840E-02
 cg2d: Sum(rhs),rhsMax =   1.75615322284273E-09  1.29161269749857E-02
 cg2d: Sum(rhs),rhsMax =   1.75621292508588E-09  1.29160487643307E-02
 cg2d: Sum(rhs),rhsMax =   1.75627715148785E-09  1.29159703069049E-02
 cg2d: Sum(rhs),rhsMax =   1.75633796395402E-09  1.29158915362566E-02
 cg2d: Sum(rhs),rhsMax =   1.75638695254499E-09  1.29158123886812E-02
 cg2d: Sum(rhs),rhsMax =   1.75645303857053E-09  1.29157328034226E-02
 cg2d: Sum(rhs),rhsMax =   1.75651690415002E-09  1.29156527276459E-02
 cg2d: Sum(rhs),rhsMax =   1.75657816070540E-09  1.29155721094105E-02
 cg2d: Sum(rhs),rhsMax =   1.75664677248832E-09  1.29154909042700E-02
 cg2d: Sum(rhs),rhsMax =   1.75669909174836E-09  1.29154090688810E-02
 cg2d: Sum(rhs),rhsMax =   1.75676492797372E-09  1.29153265682390E-02
 cg2d: Sum(rhs),rhsMax =   1.75682243752640E-09  1.29152433654235E-02
 cg2d: Sum(rhs),rhsMax =   1.75686601378011E-09  1.29151594344434E-02
 cg2d: Sum(rhs),rhsMax =   1.75693146142741E-09  1.29150747483195E-02
 cg2d: Sum(rhs),rhsMax =   1.75698472437702E-09  1.29149892836858E-02
 cg2d: Sum(rhs),rhsMax =   1.75704878424554E-09  1.29149030239055E-02
 cg2d: Sum(rhs),rhsMax =   1.75710793137718E-09  1.29148159497821E-02
 cg2d: Sum(rhs),rhsMax =   1.75718017914051E-09  1.29147280498861E-02
 cg2d: Sum(rhs),rhsMax =   1.75724010342826E-09  1.29146393130647E-02
 cg2d: Sum(rhs),rhsMax =   1.75729661378021E-09  1.29145497285387E-02
 cg2d: Sum(rhs),rhsMax =   1.75735587193415E-09  1.29144592942215E-02
 cg2d: Sum(rhs),rhsMax =   1.75740039187744E-09  1.29143680026160E-02
 cg2d: Sum(rhs),rhsMax =   1.75746717179237E-09  1.29142758536214E-02
 cg2d: Sum(rhs),rhsMax =   1.75752976061538E-09  1.29141828414171E-02
 cg2d: Sum(rhs),rhsMax =   1.75759576337420E-09  1.29140889633392E-02
 cg2d: Sum(rhs),rhsMax =   1.75765293985997E-09  1.29139942209525E-02
 cg2d: Sum(rhs),rhsMax =   1.75772293942167E-09  1.29138986103054E-02
 cg2d: Sum(rhs),rhsMax =   1.75778686051231E-09  1.29138021293186E-02
 cg2d: Sum(rhs),rhsMax =   1.75784928280187E-09  1.29137047770224E-02
 cg2d: Sum(rhs),rhsMax =   1.75791159406913E-09  1.29136065489149E-02
 cg2d: Sum(rhs),rhsMax =   1.75796804890993E-09  1.29135074441576E-02
(PID.TID 0000.0001)      cg2d_init_res =   5.32288079966652E-05
(PID.TID 0000.0001)      cg2d_iters(min,last) =      -1      38
(PID.TID 0000.0001)      cg2d_last_res =   5.22765809249220E-14
(PID.TID 0000.0001) // =======================================================
(PID.TID 0000.0001) // Begin MONITOR dynamic field statistics
(PID.TID 0000.0001) // =======================================================
(PID.TID 0000.0001) %MON time_tsnumber                =                 33696
(PID.TID 0000.0001) %MON time_secondsf                =   8.4240000000000E+05
(PID.TID 0000.0001) %MON dynstat_eta_max              =   4.5631345106055E-03
(PID.TID 0000.0001) %MON dynstat_eta_min              =  -2.2760135765251E-03
(PID.TID 0000.0001) %MON dynstat_eta_mean             =  -1.5202280437262E-13
(PID.TID 0000.0001) %MON dynstat_eta_sd               =   2.2877834546852E-03
(PID.TID 0000.0001) %MON dynstat_eta_del2             =   1.8231181523590E-05
(PID.TID 0000.0001) %MON dynstat_uvel_max             =   4.3200522294077E-02
(PID.TID 0000.0001) %MON dynstat_uvel_min             =  -4.5703032715954E-02
(PID.TID 0000.0001) %MON dynstat_uvel_mean            =   3.3782950716874E-09
(PID.TID 0000.0001) %MON dynstat_uvel_sd              =   6.7564076962381E-03
(PID.TID 0000.0001) %MON dynstat_uvel_del2            =   1.0137521166738E-04
(PID.TID 0000.0001) %MON dynstat_vvel_max             =   2.4027918462826E-02
(PID.TID 0000.0001) %MON dynstat_vvel_min             =  -3.5733721021248E-02
(PID.TID 0000.0001) %MON dynstat_vvel_mean            =  -8.0919746379368E-03
(PID.TID 0000.0001) %MON dynstat_vvel_sd              =   1.1625186654217E-02
(PID.TID 0000.0001) %MON dynstat_vvel_del2            =   9.1604206922012E-05
(PID.TID 0000.0001) %MON dynstat_wvel_max             =   1.3708035614039E-03
(PID.TID 0000.0001) %MON dynstat_wvel_min             =  -1.1638554274580E-03
(PID.TID 0000.0001) %MON dynstat_wvel_mean            =  -2.7223412083270E-21
(PID.TID 0000.0001) %MON dynstat_wvel_sd              =   1.2811027033676E-04
(PID.TID 0000.0001) %MON dynstat_wvel_del2            =   6.6113409453826E-06
(PID.TID 0000.0001) %MON dynstat_theta_max            =   2.6931451612903E+00
(PID.TID 0000.0001) %MON dynstat_theta_min            =  -7.9670981248130E-01
(PID.TID 0000.0001) %MON dynstat_theta_mean           =   2.2172283227248E+00
(PID.TID 0000.0001) %MON dynstat_theta_sd             =   5.3958883023938E-01
(PID.TID 0000.0001) %MON dynstat_theta_del2           =   1.7352535008974E-03
(PID.TID 0000.0001) %MON dynstat_salt_max             =   3.4699999999999E+01
(PID.TID 0000.0001) %MON dynstat_salt_min             =   3.3069818917921E+01
(PID.TID 0000.0001) %MON dynstat_salt_mean            =   3.4363921727481E+01
(PID.TID 0000.0001) %MON dynstat_salt_sd              =   3.2209700984290E-01
(PID.TID 0000.0001) %MON dynstat_salt_del2            =   1.9157924782355E-04
(PID.TID 0000.0001) %MON advcfl_uvel_max              =   2.2851516357977E-03
(PID.TID 0000.0001) %MON advcfl_vvel_max              =   1.7866860510624E-03
(PID.TID 0000.0001) %MON advcfl_wvel_max              =   6.5821817124239E-04
(PID.TID 0000.0001) %MON advcfl_W_hf_max              =   1.4118501156123E-03
(PID.TID 0000.0001) %MON pe_b_mean                    =   4.3669126210091E-08
(PID.TID 0000.0001) %MON ke_max                       =   1.0301822565276E-03
(PID.TID 0000.0001) %MON ke_mean                      =   1.1317218885154E-04
(PID.TID 0000.0001) %MON ke_vol                       =   3.2921708585402E+10
(PID.TID 0000.0001) // =======================================================
(PID.TID 0000.0001) // End MONITOR dynamic field statistics
(PID.TID 0000.0001) // =======================================================
(PID.TID 0000.0001) // =======================================================
(PID.TID 0000.0001) // Begin OBCS MONITOR field statistics
(PID.TID 0000.0001) // =======================================================
(PID.TID 0000.0001) %MON obc_E_uVel_max               =   0.0000000000000E+00
(PID.TID 0000.0001) %MON obc_E_uVel_min               =   0.0000000000000E+00
(PID.TID 0000.0001) %MON obc_E_uVel_mean              =   0.0000000000000E+00
(PID.TID 0000.0001) %MON obc_E_uVel_sd                =   0.0000000000000E+00
(PID.TID 0000.0001) %MON obc_E_uVel_Int               =   0.0000000000000E+00
(PID.TID 0000.0001) %MON obc_N_vVel_max               =  -3.6115799844846E-05
(PID.TID 0000.0001) %MON obc_N_vVel_min               =  -3.0000000000000E-02
(PID.TID 0000.0001) %MON obc_N_vVel_mean              =  -1.3225455303334E-02
(PID.TID 0000.0001) %MON obc_N_vVel_sd                =   1.1350864292742E-02
(PID.TID 0000.0001) %MON obc_N_vVel_Int               =  -5.9514548865004E+04
(PID.TID 0000.0001) %MON obc_S_vVel_max               =  -3.6115799844846E-05
(PID.TID 0000.0001) %MON obc_S_vVel_min               =  -3.0000000000000E-02
(PID.TID 0000.0001) %MON obc_S_vVel_mean              =  -1.3225455303334E-02
(PID.TID 0000.0001) %MON obc_S_vVel_sd                =   1.1350864292742E-02
(PID.TID 0000.0001) %MON obc_S_vVel_Int               =  -5.9514548865004E+04
(PID.TID 0000.0001) // =======================================================
(PID.TID 0000.0001) // End OBCS MONITOR field statistics
(PID.TID 0000.0001) // =======================================================
 Computing Diagnostic #    26 "THETA   " (list#  1) Parms "SMR     MR      ", Count=     144
 Computing Diagnostic #    27 "SALT    " (list#  1) Parms "SMR     MR      ", Count=     144
 Computing Diagnostic #    30 "UVEL    " (list#  1) Parms "UUR     MR      ", Count=     144
             Vector  Mate for "UVEL    " :  Diagnostic #     31 "VVEL    " exists
 Computing Diagnostic #    32 "WVEL    " (list#  1) Parms "WM      LR      ", Count=     144
 Computing Diagnostic #    31 "VVEL    " (list#  1) Parms "VVR     MR      ", Count=     144
             Vector  Mate for "VVEL    " :  Diagnostic #     30 "UVEL    " exists
 Computing Diagnostic #   197 "BRGfwFlx" (list#  2) Parms "SM      MR      ", Count=     144
 Computing Diagnostic #   198 "BRGhtFlx" (list#  2) Parms "SM      MR      ", Count=     144
 Computing Diagnostic #   199 "BRGmltRt" (list#  2) Parms "SM      MR      ", Count=     144
 Computing Diagnostic #   201 "BRG_TauX" (list#  2) Parms "UU      MR      ", Count=    1728
 Computing Diagnostic #   202 "BRG_TauY" (list#  2) Parms "VV      MR      ", Count=    1728
 Computing Diagnostic #   203 "BRGhFacC" (list#  2) Parms "SM      MR      ", Count=    1728
 cg2d: Sum(rhs),rhsMax =   1.75802292168292E-09  1.29134074567763E-02
 cg2d: Sum(rhs),rhsMax =   1.75808981262016E-09  1.29133065787548E-02
 cg2d: Sum(rhs),rhsMax =   1.75815273451008E-09  1.29132048046374E-02
 cg2d: Sum(rhs),rhsMax =   1.75821993075864E-09  1.29131021223714E-02
 cg2d: Sum(rhs),rhsMax =   1.75825851100875E-09  1.29129985233698E-02
 cg2d: Sum(rhs),rhsMax =   1.75832956528232E-09  1.29128939921298E-02
 cg2d: Sum(rhs),rhsMax =   1.75839851013215E-09  1.29127885139496E-02
 cg2d: Sum(rhs),rhsMax =   1.75845299432709E-09  1.29126820696893E-02
 cg2d: Sum(rhs),rhsMax =   1.75851722072906E-09  1.29125746406145E-02
 cg2d: Sum(rhs),rhsMax =   1.75857492457077E-09  1.29124662039727E-02
 cg2d: Sum(rhs),rhsMax =   1.75864933726899E-09  1.29123567343042E-02
 cg2d: Sum(rhs),rhsMax =   1.75870853991178E-09  1.29122462068545E-02
 cg2d: Sum(rhs),rhsMax =   1.75876918584450E-09  1.29121345909430E-02
 cg2d: Sum(rhs),rhsMax =   1.75881953445867E-09  1.29120218570802E-02
 cg2d: Sum(rhs),rhsMax =   1.75887956976872E-09  1.29119079713267E-02
 cg2d: Sum(rhs),rhsMax =   1.75893880016709E-09  1.29117928996076E-02
 cg2d: Sum(rhs),rhsMax =   1.75901465615524E-09  1.29116766070820E-02
 cg2d: Sum(rhs),rhsMax =   1.75907591271063E-09  1.29115590554830E-02
 cg2d: Sum(rhs),rhsMax =   1.75914824374068E-09  1.29114402059129E-02
 cg2d: Sum(rhs),rhsMax =   1.75921477385543E-09  1.29113200192988E-02
 cg2d: Sum(rhs),rhsMax =   1.75927417078725E-09  1.29111984552193E-02
 cg2d: Sum(rhs),rhsMax =   1.75934022905722E-09  1.29110754724213E-02
 cg2d: Sum(rhs),rhsMax =   1.75940589874912E-09  1.29109510308643E-02
 cg2d: Sum(rhs),rhsMax =   1.75948064451426E-09  1.29108250879819E-02
 cg2d: Sum(rhs),rhsMax =   1.75955003345329E-09  1.29106976044471E-02
 cg2d: Sum(rhs),rhsMax =   1.75961553661175E-09  1.29105685412009E-02
 cg2d: Sum(rhs),rhsMax =   1.75966852200560E-09  1.29104378571921E-02
 cg2d: Sum(rhs),rhsMax =   1.75975006788676E-09  1.29103055174572E-02
 cg2d: Sum(rhs),rhsMax =   1.75980358063654E-09  1.29101714855805E-02
 cg2d: Sum(rhs),rhsMax =   1.75987951989143E-09  1.29100357244284E-02
 cg2d: Sum(rhs),rhsMax =   1.75994863127471E-09  1.29098982069969E-02
 cg2d: Sum(rhs),rhsMax =   1.76001996310404E-09  1.29097589014757E-02
 cg2d: Sum(rhs),rhsMax =   1.76008632668534E-09  1.29096177815824E-02
 cg2d: Sum(rhs),rhsMax =   1.76016204389562E-09  1.29094748249888E-02
 cg2d: Sum(rhs),rhsMax =   1.76020939490762E-09  1.29093300121808E-02
 cg2d: Sum(rhs),rhsMax =   1.76028155940422E-09  1.29091833254848E-02
 cg2d: Sum(rhs),rhsMax =   1.76034342658227E-09  1.29090347554128E-02
 cg2d: Sum(rhs),rhsMax =   1.76042019850442E-09  1.29088842905365E-02
 cg2d: Sum(rhs),rhsMax =   1.76050068967371E-09  1.29087319300309E-02
 cg2d: Sum(rhs),rhsMax =   1.76057129985807E-09  1.29085776704958E-02
 cg2d: Sum(rhs),rhsMax =   1.76062131540533E-09  1.29084215214492E-02
 cg2d: Sum(rhs),rhsMax =   1.76068629120785E-09  1.29082634916812E-02
 cg2d: Sum(rhs),rhsMax =   1.76075812263754E-09  1.29081035939695E-02
 cg2d: Sum(rhs),rhsMax =   1.76082642910913E-09  1.29079418496789E-02
 cg2d: Sum(rhs),rhsMax =   1.76089143266722E-09  1.29077782833909E-02
 cg2d: Sum(rhs),rhsMax =   1.76095552029132E-09  1.29076129249040E-02
 cg2d: Sum(rhs),rhsMax =   1.76103420734819E-09  1.29074458085721E-02
 cg2d: Sum(rhs),rhsMax =   1.76109687943793E-09  1.29072769742860E-02
 cg2d: Sum(rhs),rhsMax =   1.76116007888361E-09  1.29071064596111E-02
 cg2d: Sum(rhs),rhsMax =   1.76123804429551E-09  1.29069342713640E-02
 cg2d: Sum(rhs),rhsMax =   1.76131659257450E-09  1.29067604883858E-02
 cg2d: Sum(rhs),rhsMax =   1.76138492680167E-09  1.29065851009906E-02
 cg2d: Sum(rhs),rhsMax =   1.76144940300382E-09  1.29064081535960E-02
 cg2d: Sum(rhs),rhsMax =   1.76152165076715E-09  1.29062296940688E-02
 cg2d: Sum(rhs),rhsMax =   1.76159403730836E-09  1.29060497708096E-02
 cg2d: Sum(rhs),rhsMax =   1.76166767285046E-09  1.29058684361867E-02
 cg2d: Sum(rhs),rhsMax =   1.76174158594833E-09  1.29056857493124E-02
 cg2d: Sum(rhs),rhsMax =   1.76180164901396E-09  1.29055017719206E-02
 cg2d: Sum(rhs),rhsMax =   1.76187311962117E-09  1.29053165737759E-02
 cg2d: Sum(rhs),rhsMax =   1.76193634682242E-09  1.29051302268705E-02
 cg2d: Sum(rhs),rhsMax =   1.76200121160264E-09  1.29049428092053E-02
 cg2d: Sum(rhs),rhsMax =   1.76207221036506E-09  1.29047544053025E-02
 cg2d: Sum(rhs),rhsMax =   1.76215070313290E-09  1.29045650987060E-02
 cg2d: Sum(rhs),rhsMax =   1.76223355352612E-09  1.29043749800754E-02
 cg2d: Sum(rhs),rhsMax =   1.76232337056881E-09  1.29041841434775E-02
 cg2d: Sum(rhs),rhsMax =   1.76238135196627E-09  1.29039926856473E-02
 cg2d: Sum(rhs),rhsMax =   1.76245806837727E-09  1.29038007082400E-02
 cg2d: Sum(rhs),rhsMax =   1.76254580375179E-09  1.29036083095793E-02
 cg2d: Sum(rhs),rhsMax =   1.76262496265345E-09  1.29034155974374E-02
 cg2d: Sum(rhs),rhsMax =   1.76268022400450E-09  1.29032226807924E-02
 cg2d: Sum(rhs),rhsMax =   1.76276093721839E-09  1.29030296694401E-02
 cg2d: Sum(rhs),rhsMax =   1.76282996533494E-09  1.29028366762634E-02
 cg2d: Sum(rhs),rhsMax =   1.76291212183877E-09  1.29026438158369E-02
 cg2d: Sum(rhs),rhsMax =   1.76299685961112E-09  1.29024511985277E-02
 cg2d: Sum(rhs),rhsMax =   1.76307388133345E-09  1.29022589368041E-02
 cg2d: Sum(rhs),rhsMax =   1.76315370636893E-09  1.29020671409229E-02
 cg2d: Sum(rhs),rhsMax =   1.76324241318859E-09  1.29018759161546E-02
 cg2d: Sum(rhs),rhsMax =   1.76332110024546E-09  1.29016853705404E-02
 cg2d: Sum(rhs),rhsMax =   1.76338135760012E-09  1.29014956033587E-02
 cg2d: Sum(rhs),rhsMax =   1.76345885116724E-09  1.29013067122874E-02
 cg2d: Sum(rhs),rhsMax =   1.76353395775486E-09  1.29011187913463E-02
 cg2d: Sum(rhs),rhsMax =   1.76360684389643E-09  1.29009319289512E-02
 cg2d: Sum(rhs),rhsMax =   1.76366554693885E-09  1.29007462098142E-02
 cg2d: Sum(rhs),rhsMax =   1.76373490812232E-09  1.29005617105520E-02
 cg2d: Sum(rhs),rhsMax =   1.76380099414786E-09  1.29003785021599E-02
 cg2d: Sum(rhs),rhsMax =   1.76387532357936E-09  1.29001966526596E-02
 cg2d: Sum(rhs),rhsMax =   1.76395409390295E-09  1.29000162199516E-02
 cg2d: Sum(rhs),rhsMax =   1.76401163121120E-09  1.28998372553545E-02
 cg2d: Sum(rhs),rhsMax =   1.76408834762221E-09  1.28996598050972E-02
 cg2d: Sum(rhs),rhsMax =   1.76416320440964E-09  1.28994839045515E-02
 cg2d: Sum(rhs),rhsMax =   1.76422360054218E-09  1.28993095853778E-02
 cg2d: Sum(rhs),rhsMax =   1.76429598708339E-09  1.28991368685407E-02
 cg2d: Sum(rhs),rhsMax =   1.76439129973005E-09  1.28989657703601E-02
 cg2d: Sum(rhs),rhsMax =   1.76445605348796E-09  1.28987962947420E-02
 cg2d: Sum(rhs),rhsMax =   1.76454703626483E-09  1.28986284434478E-02
 cg2d: Sum(rhs),rhsMax =   1.76461190104504E-09  1.28984622068819E-02
 cg2d: Sum(rhs),rhsMax =   1.76468137325081E-09  1.28982975674856E-02
 cg2d: Sum(rhs),rhsMax =   1.76475570268231E-09  1.28981345037375E-02
 cg2d: Sum(rhs),rhsMax =   1.76483477831724E-09  1.28979729845824E-02
 cg2d: Sum(rhs),rhsMax =   1.76490755343650E-09  1.28978129701043E-02
 cg2d: Sum(rhs),rhsMax =   1.76497988446656E-09  1.28976544189413E-02
 cg2d: Sum(rhs),rhsMax =   1.76504727500415E-09  1.28974972783961E-02
 cg2d: Sum(rhs),rhsMax =   1.76512221505831E-09  1.28973414924066E-02
 cg2d: Sum(rhs),rhsMax =   1.76519279748710E-09  1.28971870000166E-02
 cg2d: Sum(rhs),rhsMax =   1.76525602468836E-09  1.28970337341417E-02
 cg2d: Sum(rhs),rhsMax =   1.76531569917593E-09  1.28968816231948E-02
 cg2d: Sum(rhs),rhsMax =   1.76539657892327E-09  1.28967305921678E-02
 cg2d: Sum(rhs),rhsMax =   1.76547101937707E-09  1.28965805605003E-02
 cg2d: Sum(rhs),rhsMax =   1.76554135200568E-09  1.28964314493396E-02
 cg2d: Sum(rhs),rhsMax =   1.76563783038652E-09  1.28962831708605E-02
 cg2d: Sum(rhs),rhsMax =   1.76571648968782E-09  1.28961356405314E-02
 cg2d: Sum(rhs),rhsMax =   1.76577649724230E-09  1.28959887722802E-02
 cg2d: Sum(rhs),rhsMax =   1.76584594169249E-09  1.28958424751958E-02
 cg2d: Sum(rhs),rhsMax =   1.76591541389826E-09  1.28956966632481E-02
 cg2d: Sum(rhs),rhsMax =   1.76598280443585E-09  1.28955512484344E-02
 cg2d: Sum(rhs),rhsMax =   1.76602876766907E-09  1.28954061457907E-02
 cg2d: Sum(rhs),rhsMax =   1.76609737945199E-09  1.28952612679510E-02
 cg2d: Sum(rhs),rhsMax =   1.76617293012882E-09  1.28951165350307E-02
 cg2d: Sum(rhs),rhsMax =   1.76623854430957E-09  1.28949718672324E-02
 cg2d: Sum(rhs),rhsMax =   1.76630801651534E-09  1.28948271875888E-02
 cg2d: Sum(rhs),rhsMax =   1.76637154902792E-09  1.28946824251101E-02
 cg2d: Sum(rhs),rhsMax =   1.76644798788317E-09  1.28945375111521E-02
 cg2d: Sum(rhs),rhsMax =   1.76652376060460E-09  1.28943923846175E-02
 cg2d: Sum(rhs),rhsMax =   1.76658887518499E-09  1.28942469875415E-02
 cg2d: Sum(rhs),rhsMax =   1.76665984619184E-09  1.28941012661035E-02
 cg2d: Sum(rhs),rhsMax =   1.76673553564655E-09  1.28939551771153E-02
 cg2d: Sum(rhs),rhsMax =   1.76680839403254E-09  1.28938086802806E-02
 cg2d: Sum(rhs),rhsMax =   1.76689446407252E-09  1.28936617439467E-02
 cg2d: Sum(rhs),rhsMax =   1.76697217968425E-09  1.28935143405381E-02
 cg2d: Sum(rhs),rhsMax =   1.76704198495692E-09  1.28933664519629E-02
 cg2d: Sum(rhs),rhsMax =   1.76710929222779E-09  1.28932180686820E-02
 cg2d: Sum(rhs),rhsMax =   1.76718165101342E-09  1.28930691853489E-02
 cg2d: Sum(rhs),rhsMax =   1.76725548084455E-09  1.28929198038473E-02
 cg2d: Sum(rhs),rhsMax =   1.76730965972816E-09  1.28927699358557E-02
 cg2d: Sum(rhs),rhsMax =   1.76738393364850E-09  1.28926195995206E-02
 cg2d: Sum(rhs),rhsMax =   1.76746411950646E-09  1.28924688189087E-02
 cg2d: Sum(rhs),rhsMax =   1.76753980896116E-09  1.28923176276136E-02
 cg2d: Sum(rhs),rhsMax =   1.76760933667808E-09  1.28921660627727E-02
 cg2d: Sum(rhs),rhsMax =   1.76767503412556E-09  1.28920141704324E-02
 cg2d: Sum(rhs),rhsMax =   1.76774592186568E-09  1.28918549664021E-02
 cg2d: Sum(rhs),rhsMax =   1.76782097294215E-09  1.28916931771359E-02
 cg2d: Sum(rhs),rhsMax =   1.76788109151893E-09  1.28915311366400E-02
 cg2d: Sum(rhs),rhsMax =   1.76796388640099E-09  1.28913691619949E-02
 cg2d: Sum(rhs),rhsMax =   1.76803116591628E-09  1.28912074240938E-02
 Computing Diagnostic #    26 "THETA   " (list#  1) Parms "SMR     MR      ", Count=     144
 Computing Diagnostic #    27 "SALT    " (list#  1) Parms "SMR     MR      ", Count=     144
 Computing Diagnostic #    30 "UVEL    " (list#  1) Parms "UUR     MR      ", Count=     144
             Vector  Mate for "UVEL    " :  Diagnostic #     31 "VVEL    " exists
 Computing Diagnostic #    32 "WVEL    " (list#  1) Parms "WM      LR      ", Count=     144
 Computing Diagnostic #    31 "VVEL    " (list#  1) Parms "VVR     MR      ", Count=     144
             Vector  Mate for "VVEL    " :  Diagnostic #     30 "UVEL    " exists
 Computing Diagnostic #   197 "BRGfwFlx" (list#  2) Parms "SM      MR      ", Count=     144
 Computing Diagnostic #   198 "BRGhtFlx" (list#  2) Parms "SM      MR      ", Count=     144
 Computing Diagnostic #   199 "BRGmltRt" (list#  2) Parms "SM      MR      ", Count=     144
 Computing Diagnostic #   201 "BRG_TauX" (list#  2) Parms "UU      MR      ", Count=    1728
 Computing Diagnostic #   202 "BRG_TauY" (list#  2) Parms "VV      MR      ", Count=    1728
 Computing Diagnostic #   203 "BRGhFacC" (list#  2) Parms "SM      MR      ", Count=    1728
 cg2d: Sum(rhs),rhsMax =   1.76810868723898E-09  1.28910460779762E-02
 cg2d: Sum(rhs),rhsMax =   1.76817530062046E-09  1.28908852743482E-02
 cg2d: Sum(rhs),rhsMax =   1.76825279418757E-09  1.28907251660255E-02
 cg2d: Sum(rhs),rhsMax =   1.76831599363325E-09  1.28905659014980E-02
 cg2d: Sum(rhs),rhsMax =   1.76839135002105E-09  1.28904076333118E-02
 cg2d: Sum(rhs),rhsMax =   1.76846148836063E-09  1.28902505061579E-02
 cg2d: Sum(rhs),rhsMax =   1.76850778466076E-09  1.28900946676043E-02
 cg2d: Sum(rhs),rhsMax =   1.76858080958020E-09  1.28899402562194E-02
 cg2d: Sum(rhs),rhsMax =   1.76865613821242E-09  1.28897874051175E-02
 cg2d: Sum(rhs),rhsMax =   1.76872089197033E-09  1.28896362316162E-02
 cg2d: Sum(rhs),rhsMax =   1.76878159341420E-09  1.28894868720682E-02
 cg2d: Sum(rhs),rhsMax =   1.76884168423541E-09  1.28893394272227E-02
 cg2d: Sum(rhs),rhsMax =   1.76891631897824E-09  1.28891940202386E-02
 cg2d: Sum(rhs),rhsMax =   1.76897566039891E-09  1.28890507353111E-02
 cg2d: Sum(rhs),rhsMax =   1.76903569570896E-09  1.28889096746696E-02
 cg2d: Sum(rhs),rhsMax =   1.76910311400214E-09  1.28887709045097E-02
 cg2d: Sum(rhs),rhsMax =   1.76916478689115E-09  1.28886345101966E-02
 cg2d: Sum(rhs),rhsMax =   1.76922981820482E-09  1.28885005347625E-02
 cg2d: Sum(rhs),rhsMax =   1.76930170514566E-09  1.28883690427883E-02
 cg2d: Sum(rhs),rhsMax =   1.76936265638972E-09  1.28882400466270E-02
 cg2d: Sum(rhs),rhsMax =   1.76942213658826E-09  1.28881135896927E-02
 cg2d: Sum(rhs),rhsMax =   1.76947986818554E-09  1.28879896708777E-02
 cg2d: Sum(rhs),rhsMax =   1.76953887653930E-09  1.28878683004565E-02
 cg2d: Sum(rhs),rhsMax =   1.76961764686290E-09  1.28877494516285E-02
 cg2d: Sum(rhs),rhsMax =   1.76967562826036E-09  1.28876331144781E-02
 cg2d: Sum(rhs),rhsMax =   1.76973449783624E-09  1.28875192353152E-02
 cg2d: Sum(rhs),rhsMax =   1.76978512400616E-09  1.28874077807898E-02
 cg2d: Sum(rhs),rhsMax =   1.76984613076137E-09  1.28872986743486E-02
 cg2d: Sum(rhs),rhsMax =   1.76991118983061E-09  1.28871918592018E-02
 cg2d: Sum(rhs),rhsMax =   1.76998385392757E-09  1.28870872353524E-02
 cg2d: Sum(rhs),rhsMax =   1.77003911527862E-09  1.28869847231380E-02
 cg2d: Sum(rhs),rhsMax =   1.77010545110434E-09  1.28868842051153E-02
 cg2d: Sum(rhs),rhsMax =   1.77016870606117E-09  1.28867855776611E-02
 cg2d: Sum(rhs),rhsMax =   1.77022152492157E-09  1.28866887062082E-02
 cg2d: Sum(rhs),rhsMax =   1.77029135794982E-09  1.28865934721089E-02
 cg2d: Sum(rhs),rhsMax =   1.77033881998412E-09  1.28864997224325E-02
 cg2d: Sum(rhs),rhsMax =   1.77039993776162E-09  1.28864073240150E-02
 cg2d: Sum(rhs),rhsMax =   1.77046369231881E-09  1.28863161103075E-02
 cg2d: Sum(rhs),rhsMax =   1.77052247862797E-09  1.28862259387211E-02
 cg2d: Sum(rhs),rhsMax =   1.77058206984881E-09  1.28861366323397E-02
 cg2d: Sum(rhs),rhsMax =   1.77062831063779E-09  1.28860480400274E-02
 cg2d: Sum(rhs),rhsMax =   1.77069045537159E-09  1.28859599790490E-02
 cg2d: Sum(rhs),rhsMax =   1.77074871432481E-09  1.28858722939990E-02
 cg2d: Sum(rhs),rhsMax =   1.77081518892841E-09  1.28857848001374E-02
 cg2d: Sum(rhs),rhsMax =   1.77087294828127E-09  1.28856973397809E-02
 cg2d: Sum(rhs),rhsMax =   1.77093345543611E-09  1.28856097314687E-02
 cg2d: Sum(rhs),rhsMax =   1.77100104026273E-09  1.28855218203364E-02
 cg2d: Sum(rhs),rhsMax =   1.77106834753360E-09  1.28854334263429E-02
 cg2d: Sum(rhs),rhsMax =   1.77113718136113E-09  1.28853444039183E-02
 cg2d: Sum(rhs),rhsMax =   1.77119244271218E-09  1.28852545830947E-02
 cg2d: Sum(rhs),rhsMax =   1.77125497602404E-09  1.28851638252104E-02
 cg2d: Sum(rhs),rhsMax =   1.77131515011197E-09  1.28850719720457E-02
 cg2d: Sum(rhs),rhsMax =   1.77137496337743E-09  1.28849789014397E-02
 cg2d: Sum(rhs),rhsMax =   1.77143985591321E-09  1.28848844659715E-02
 cg2d: Sum(rhs),rhsMax =   1.77149664382092E-09  1.28847885617353E-02
 cg2d: Sum(rhs),rhsMax =   1.77156395109179E-09  1.28846910584943E-02
 cg2d: Sum(rhs),rhsMax =   1.77162334802361E-09  1.28845918689943E-02
 cg2d: Sum(rhs),rhsMax =   1.77168130166550E-09  1.28844908861111E-02
 cg2d: Sum(rhs),rhsMax =   1.77174722115758E-09  1.28843880375858E-02
 cg2d: Sum(rhs),rhsMax =   1.77180531357735E-09  1.28842832422979E-02
 cg2d: Sum(rhs),rhsMax =   1.77186540439855E-09  1.28841764510807E-02
 cg2d: Sum(rhs),rhsMax =   1.77192888139999E-09  1.28840675999292E-02
 cg2d: Sum(rhs),rhsMax =   1.77197229112025E-09  1.28839566652800E-02
 cg2d: Sum(rhs),rhsMax =   1.77203585138841E-09  1.28838436081038E-02
 cg2d: Sum(rhs),rhsMax =   1.77210346397061E-09  1.28837284254080E-02
 cg2d: Sum(rhs),rhsMax =   1.77216358254739E-09  1.28836111022946E-02
 cg2d: Sum(rhs),rhsMax =   1.77222944652833E-09  1.28834916603603E-02
 cg2d: Sum(rhs),rhsMax =   1.77228767772597E-09  1.28833701063488E-02
 cg2d: Sum(rhs),rhsMax =   1.77236966769634E-09  1.28832464857459E-02
 cg2d: Sum(rhs),rhsMax =   1.77244316446057E-09  1.28831208262606E-02
 cg2d: Sum(rhs),rhsMax =   1.77251036070913E-09  1.28829931944742E-02
 cg2d: Sum(rhs),rhsMax =   1.77257680755716E-09  1.28828636393855E-02
 cg2d: Sum(rhs),rhsMax =   1.77265621625899E-09  1.28827322485213E-02
 cg2d: Sum(rhs),rhsMax =   1.77273010160128E-09  1.28825990873897E-02
 cg2d: Sum(rhs),rhsMax =   1.77279430024768E-09  1.28824642618991E-02
 cg2d: Sum(rhs),rhsMax =   1.77285597313670E-09  1.28823278541913E-02
 cg2d: Sum(rhs),rhsMax =   1.77291362146725E-09  1.28821899866032E-02
 cg2d: Sum(rhs),rhsMax =   1.77298356551781E-09  1.28820507539986E-02
 cg2d: Sum(rhs),rhsMax =   1.77305600757016E-09  1.28819102887586E-02
 cg2d: Sum(rhs),rhsMax =   1.77312026172771E-09  1.28817686972525E-02
 cg2d: Sum(rhs),rhsMax =   1.77318587590847E-09  1.28816261245699E-02
 cg2d: Sum(rhs),rhsMax =   1.77325285011243E-09  1.28814826847890E-02
 cg2d: Sum(rhs),rhsMax =   1.77331849204876E-09  1.28813385220822E-02
 cg2d: Sum(rhs),rhsMax =   1.77338685403150E-09  1.28811937582402E-02
 cg2d: Sum(rhs),rhsMax =   1.77345543805885E-09  1.28810534582275E-02
 cg2d: Sum(rhs),rhsMax =   1.77352607599879E-09  1.28809127727208E-02
 cg2d: Sum(rhs),rhsMax =   1.77358713826514E-09  1.28807717790843E-02
 cg2d: Sum(rhs),rhsMax =   1.77366737963425E-09  1.28806305519007E-02
 cg2d: Sum(rhs),rhsMax =   1.77373413179360E-09  1.28804891700205E-02
 cg2d: Sum(rhs),rhsMax =   1.77379874677364E-09  1.28803476888990E-02
 cg2d: Sum(rhs),rhsMax =   1.77386308419791E-09  1.28802061929701E-02
 cg2d: Sum(rhs),rhsMax =   1.77393638667311E-09  1.28800647390156E-02
 cg2d: Sum(rhs),rhsMax =   1.77399250844701E-09  1.28799234034112E-02
 cg2d: Sum(rhs),rhsMax =   1.77406406232095E-09  1.28797822348209E-02
 cg2d: Sum(rhs),rhsMax =   1.77411757507073E-09  1.28796413074581E-02
 cg2d: Sum(rhs),rhsMax =   1.77419121061284E-09  1.28795006621374E-02
 cg2d: Sum(rhs),rhsMax =   1.77427275649400E-09  1.28793603664743E-02
 cg2d: Sum(rhs),rhsMax =   1.77433642778446E-09  1.28792204539153E-02
 cg2d: Sum(rhs),rhsMax =   1.77439182791339E-09  1.28790809818245E-02
 cg2d: Sum(rhs),rhsMax =   1.77446776716828E-09  1.28789419773052E-02
 cg2d: Sum(rhs),rhsMax =   1.77451939253892E-09  1.28788034906121E-02
 cg2d: Sum(rhs),rhsMax =   1.77458767125493E-09  1.28786655347007E-02
 cg2d: Sum(rhs),rhsMax =   1.77466505379975E-09  1.28785281519444E-02
 cg2d: Sum(rhs),rhsMax =   1.77473222229274E-09  1.28783913501636E-02
 cg2d: Sum(rhs),rhsMax =   1.77479883567422E-09  1.28782551573539E-02
 cg2d: Sum(rhs),rhsMax =   1.77485642849362E-09  1.28781195726362E-02
 cg2d: Sum(rhs),rhsMax =   1.77492201491880E-09  1.28779846150225E-02
 cg2d: Sum(rhs),rhsMax =   1.77499701048411E-09  1.28778502706064E-02
 cg2d: Sum(rhs),rhsMax =   1.77505435350334E-09  1.28777165512002E-02
 cg2d: Sum(rhs),rhsMax =   1.77512032850657E-09  1.28775834318606E-02
 cg2d: Sum(rhs),rhsMax =   1.77520334543324E-09  1.28774509142592E-02
 cg2d: Sum(rhs),rhsMax =   1.77525438793680E-09  1.28773189659418E-02
 cg2d: Sum(rhs),rhsMax =   1.77531822576071E-09  1.28771875781171E-02
 cg2d: Sum(rhs),rhsMax =   1.77537934353822E-09  1.28770567088704E-02
 cg2d: Sum(rhs),rhsMax =   1.77545583790462E-09  1.28769263418693E-02
 cg2d: Sum(rhs),rhsMax =   1.77552939018000E-09  1.28767964275039E-02
 cg2d: Sum(rhs),rhsMax =   1.77559014713502E-09  1.28766669407395E-02
 cg2d: Sum(rhs),rhsMax =   1.77564937753338E-09  1.28765378262477E-02
 cg2d: Sum(rhs),rhsMax =   1.77571554682565E-09  1.28764090527833E-02
 cg2d: Sum(rhs),rhsMax =   1.77578537985390E-09  1.28762805590010E-02
 cg2d: Sum(rhs),rhsMax =   1.77584366656269E-09  1.28761523072671E-02
 cg2d: Sum(rhs),rhsMax =   1.77591208405659E-09  1.28760242345134E-02
 cg2d: Sum(rhs),rhsMax =   1.77599188133648E-09  1.28758962986509E-02
 cg2d: Sum(rhs),rhsMax =   1.77605405382586E-09  1.28757684322579E-02
 cg2d: Sum(rhs),rhsMax =   1.77612441421005E-09  1.28756405898809E-02
 cg2d: Sum(rhs),rhsMax =   1.77617612284742E-09  1.28755127040439E-02
 cg2d: Sum(rhs),rhsMax =   1.77624376318519E-09  1.28753847298285E-02
 cg2d: Sum(rhs),rhsMax =   1.77631143127854E-09  1.28752565971785E-02
 cg2d: Sum(rhs),rhsMax =   1.77638087572873E-09  1.28751282622759E-02
 cg2d: Sum(rhs),rhsMax =   1.77643469378985E-09  1.28749996543849E-02
 cg2d: Sum(rhs),rhsMax =   1.77649300825422E-09  1.28748707351066E-02
 cg2d: Sum(rhs),rhsMax =   1.77655964939127E-09  1.28747414340665E-02
 cg2d: Sum(rhs),rhsMax =   1.77662104472454E-09  1.28746117122550E-02
 cg2d: Sum(rhs),rhsMax =   1.77668205147974E-09  1.28744814948670E-02
 cg2d: Sum(rhs),rhsMax =   1.77675427148749E-09  1.28743507707506E-02
 cg2d: Sum(rhs),rhsMax =   1.77681852564504E-09  1.28742194754410E-02
 cg2d: Sum(rhs),rhsMax =   1.77689196689812E-09  1.28740875744550E-02
 cg2d: Sum(rhs),rhsMax =   1.77696218850443E-09  1.28739550161514E-02
 cg2d: Sum(rhs),rhsMax =   1.77702078052455E-09  1.28738217792885E-02
 cg2d: Sum(rhs),rhsMax =   1.77708264770260E-09  1.28736878148352E-02
 cg2d: Sum(rhs),rhsMax =   1.77714912230620E-09  1.28735531037287E-02
 cg2d: Sum(rhs),rhsMax =   1.77722447869400E-09  1.28734176055880E-02
 cg2d: Sum(rhs),rhsMax =   1.77728318173642E-09  1.28732813122142E-02
 cg2d: Sum(rhs),rhsMax =   1.77733858186535E-09  1.28731441903081E-02
 Computing Diagnostic #    26 "THETA   " (list#  1) Parms "SMR     MR      ", Count=     144
 Computing Diagnostic #    27 "SALT    " (list#  1) Parms "SMR     MR      ", Count=     144
 Computing Diagnostic #    30 "UVEL    " (list#  1) Parms "UUR     MR      ", Count=     144
             Vector  Mate for "UVEL    " :  Diagnostic #     31 "VVEL    " exists
 Computing Diagnostic #    32 "WVEL    " (list#  1) Parms "WM      LR      ", Count=     144
 Computing Diagnostic #    31 "VVEL    " (list#  1) Parms "VVR     MR      ", Count=     144
             Vector  Mate for "VVEL    " :  Diagnostic #     30 "UVEL    " exists
 Computing Diagnostic #   197 "BRGfwFlx" (list#  2) Parms "SM      MR      ", Count=     144
 Computing Diagnostic #   198 "BRGhtFlx" (list#  2) Parms "SM      MR      ", Count=     144
 Computing Diagnostic #   199 "BRGmltRt" (list#  2) Parms "SM      MR      ", Count=     144
 Computing Diagnostic #   201 "BRG_TauX" (list#  2) Parms "UU      MR      ", Count=    1728
 Computing Diagnostic #   202 "BRG_TauY" (list#  2) Parms "VV      MR      ", Count=    1728
 Computing Diagnostic #   203 "BRGhFacC" (list#  2) Parms "SM      MR      ", Count=    1728
 cg2d: Sum(rhs),rhsMax =   1.77739778450814E-09  1.28730062376484E-02
 cg2d: Sum(rhs),rhsMax =   1.77745654306172E-09  1.28728674321541E-02
 cg2d: Sum(rhs),rhsMax =   1.77751288688022E-09  1.28727277689200E-02
 cg2d: Sum(rhs),rhsMax =   1.77756401265050E-09  1.28725872445783E-02
 cg2d: Sum(rhs),rhsMax =   1.77763292974475E-09  1.28724458558055E-02
 cg2d: Sum(rhs),rhsMax =   1.77770462239657E-09  1.28723036083718E-02
 cg2d: Sum(rhs),rhsMax =   1.77776893206527E-09  1.28721605073588E-02
 cg2d: Sum(rhs),rhsMax =   1.77785211552539E-09  1.28720165652688E-02
 cg2d: Sum(rhs),rhsMax =   1.77790979161152E-09  1.28718717932121E-02
 cg2d: Sum(rhs),rhsMax =   1.77797809808311E-09  1.28717262087647E-02
 cg2d: Sum(rhs),rhsMax =   1.77803288758938E-09  1.28715798292933E-02
 cg2d: Sum(rhs),rhsMax =   1.77809947321528E-09  1.28714326792352E-02
 cg2d: Sum(rhs),rhsMax =   1.77816830704280E-09  1.28712847789947E-02
 cg2d: Sum(rhs),rhsMax =   1.77824954761263E-09  1.28711361776204E-02
 cg2d: Sum(rhs),rhsMax =   1.77831338543655E-09  1.28709868412799E-02
 cg2d: Sum(rhs),rhsMax =   1.77839415416159E-09  1.28708368586054E-02
 cg2d: Sum(rhs),rhsMax =   1.77847095383932E-09  1.28706862663429E-02
 cg2d: Sum(rhs),rhsMax =   1.77853473615208E-09  1.28705350891669E-02
 cg2d: Sum(rhs),rhsMax =   1.77860098871108E-09  1.28703833728431E-02
 cg2d: Sum(rhs),rhsMax =   1.77865466799432E-09  1.28702311531689E-02
 cg2d: Sum(rhs),rhsMax =   1.77872316875494E-09  1.28700784708538E-02
 cg2d: Sum(rhs),rhsMax =   1.77880138396702E-09  1.28699253733853E-02
 cg2d: Sum(rhs),rhsMax =   1.77887526930931E-09  1.28697719018524E-02
 cg2d: Sum(rhs),rhsMax =   1.77893497155246E-09  1.28696180943348E-02
 cg2d: Sum(rhs),rhsMax =   1.77899592279651E-09  1.28694639883497E-02
 cg2d: Sum(rhs),rhsMax =   1.77906453457943E-09  1.28693096130471E-02
 cg2d: Sum(rhs),rhsMax =   1.77912712340245E-09  1.28691550037825E-02
 cg2d: Sum(rhs),rhsMax =   1.77919212696054E-09  1.28690001874032E-02
 cg2d: Sum(rhs),rhsMax =   1.77926087752134E-09  1.28688451982463E-02
 cg2d: Sum(rhs),rhsMax =   1.77933531797514E-09  1.28686900589351E-02
 cg2d: Sum(rhs),rhsMax =   1.77940995271797E-09  1.28685347952094E-02
 cg2d: Sum(rhs),rhsMax =   1.77949122104337E-09  1.28683794263695E-02
 cg2d: Sum(rhs),rhsMax =   1.77955858382539E-09  1.28682239728054E-02
 cg2d: Sum(rhs),rhsMax =   1.77962930503206E-09  1.28680684466831E-02
 cg2d: Sum(rhs),rhsMax =   1.77969233794428E-09  1.28679128613131E-02
 cg2d: Sum(rhs),rhsMax =   1.77976300363980E-09  1.28677572218867E-02
 cg2d: Sum(rhs),rhsMax =   1.77982686921929E-09  1.28676015353020E-02
 cg2d: Sum(rhs),rhsMax =   1.77990441829756E-09  1.28674458005334E-02
 cg2d: Sum(rhs),rhsMax =   1.77997960815190E-09  1.28672900144305E-02
 cg2d: Sum(rhs),rhsMax =   1.78004172513013E-09  1.28671341710871E-02
 cg2d: Sum(rhs),rhsMax =   1.78010114981753E-09  1.28669782617452E-02
 cg2d: Sum(rhs),rhsMax =   1.78017545149345E-09  1.28668222717670E-02
 cg2d: Sum(rhs),rhsMax =   1.78024117669651E-09  1.28666661877032E-02
 cg2d: Sum(rhs),rhsMax =   1.78029643804756E-09  1.28665099871783E-02
 cg2d: Sum(rhs),rhsMax =   1.78036241305080E-09  1.28663536523336E-02
 cg2d: Sum(rhs),rhsMax =   1.78043452203624E-09  1.28661971560595E-02
 cg2d: Sum(rhs),rhsMax =   1.78049774923750E-09  1.28660404764490E-02
 cg2d: Sum(rhs),rhsMax =   1.78055048483117E-09  1.28658835810071E-02
 cg2d: Sum(rhs),rhsMax =   1.78063330746880E-09  1.28657264432179E-02
 cg2d: Sum(rhs),rhsMax =   1.78070552747656E-09  1.28655690265652E-02
 cg2d: Sum(rhs),rhsMax =   1.78076484114165E-09  1.28654113049906E-02
 cg2d: Sum(rhs),rhsMax =   1.78084402779888E-09  1.28652532406080E-02
 cg2d: Sum(rhs),rhsMax =   1.78090706071110E-09  1.28650948004048E-02
 cg2d: Sum(rhs),rhsMax =   1.78097447900427E-09  1.28649359468027E-02
 cg2d: Sum(rhs),rhsMax =   1.78103745640534E-09  1.28647766490431E-02
 cg2d: Sum(rhs),rhsMax =   1.78110665105535E-09  1.28646168695560E-02
 cg2d: Sum(rhs),rhsMax =   1.78117096072405E-09  1.28644565773985E-02
 cg2d: Sum(rhs),rhsMax =   1.78124306970950E-09  1.28642957368892E-02
 cg2d: Sum(rhs),rhsMax =   1.78131667749604E-09  1.28641343181911E-02
 cg2d: Sum(rhs),rhsMax =   1.78138720441368E-09  1.28639722886040E-02
 cg2d: Sum(rhs),rhsMax =   1.78146641882648E-09  1.28638096221931E-02
 cg2d: Sum(rhs),rhsMax =   1.78155548646863E-09  1.28636462902555E-02
 cg2d: Sum(rhs),rhsMax =   1.78163017672262E-09  1.28634822692485E-02
 cg2d: Sum(rhs),rhsMax =   1.78172027132106E-09  1.28633175362950E-02
 cg2d: Sum(rhs),rhsMax =   1.78177694820647E-09  1.28631520762061E-02
 cg2d: Sum(rhs),rhsMax =   1.78185477484050E-09  1.28629858675371E-02
 cg2d: Sum(rhs),rhsMax =   1.78192008370992E-09  1.28628189017569E-02
 cg2d: Sum(rhs),rhsMax =   1.78197689937321E-09  1.28626511664545E-02
 cg2d: Sum(rhs),rhsMax =   1.78206202572362E-09  1.28624826599057E-02
 cg2d: Sum(rhs),rhsMax =   1.78212883339413E-09  1.28623133739040E-02
 cg2d: Sum(rhs),rhsMax =   1.78219541902003E-09  1.28621433165960E-02
 cg2d: Sum(rhs),rhsMax =   1.78226880476196E-09  1.28619724878361E-02
 cg2d: Sum(rhs),rhsMax =   1.78233633407743E-09  1.28618009006057E-02
 cg2d: Sum(rhs),rhsMax =   1.78242559600861E-09  1.28616285650379E-02
 cg2d: Sum(rhs),rhsMax =   1.78249154325627E-09  1.28614555006744E-02
 cg2d: Sum(rhs),rhsMax =   1.78255296634511E-09  1.28612817276841E-02
 cg2d: Sum(rhs),rhsMax =   1.78262823946618E-09  1.28611072722761E-02
 cg2d: Sum(rhs),rhsMax =   1.78268166894924E-09  1.28609321614120E-02
 cg2d: Sum(rhs),rhsMax =   1.78275591511401E-09  1.28607564309837E-02
 cg2d: Sum(rhs),rhsMax =   1.78282280605124E-09  1.28605801142648E-02
 cg2d: Sum(rhs),rhsMax =   1.78289649710450E-09  1.28604032539839E-02
 cg2d: Sum(rhs),rhsMax =   1.78297349107126E-09  1.28602258911369E-02
 cg2d: Sum(rhs),rhsMax =   1.78303932729662E-09  1.28600480724685E-02
 cg2d: Sum(rhs),rhsMax =   1.78310521903313E-09  1.28598698482458E-02
 cg2d: Sum(rhs),rhsMax =   1.78316064691764E-09  1.28596912704833E-02
 cg2d: Sum(rhs),rhsMax =   1.78323750210652E-09  1.28595123913259E-02
 cg2d: Sum(rhs),rhsMax =   1.78328424249585E-09  1.28593332713397E-02
 cg2d: Sum(rhs),rhsMax =   1.78335746170433E-09  1.28591539642529E-02
 cg2d: Sum(rhs),rhsMax =   1.78343456669339E-09  1.28589745350736E-02
 cg2d: Sum(rhs),rhsMax =   1.78349435220326E-09  1.28587950410636E-02
 cg2d: Sum(rhs),rhsMax =   1.78357503766158E-09  1.28586155486184E-02
 cg2d: Sum(rhs),rhsMax =   1.78364548131249E-09  1.28584361176788E-02
 cg2d: Sum(rhs),rhsMax =   1.78372155934525E-09  1.28582568147473E-02
 cg2d: Sum(rhs),rhsMax =   1.78379322424149E-09  1.28580777013024E-02
 cg2d: Sum(rhs),rhsMax =   1.78386896920735E-09  1.28578988431027E-02
 cg2d: Sum(rhs),rhsMax =   1.78395700989320E-09  1.28577202995605E-02
 cg2d: Sum(rhs),rhsMax =   1.78403228301427E-09  1.28575421349366E-02
 cg2d: Sum(rhs),rhsMax =   1.78409947926284E-09  1.28573644082617E-02
 cg2d: Sum(rhs),rhsMax =   1.78417280949361E-09  1.28571871773812E-02
 cg2d: Sum(rhs),rhsMax =   1.78424569563518E-09  1.28570104957543E-02
 cg2d: Sum(rhs),rhsMax =   1.78430373254379E-09  1.28568344173789E-02
 cg2d: Sum(rhs),rhsMax =   1.78437384312780E-09  1.28566589952380E-02
 cg2d: Sum(rhs),rhsMax =   1.78443682052887E-09  1.28564842802681E-02
 cg2d: Sum(rhs),rhsMax =   1.78451173282745E-09  1.28563103153520E-02
 cg2d: Sum(rhs),rhsMax =   1.78457937316523E-09  1.28561371471217E-02
 cg2d: Sum(rhs),rhsMax =   1.78465198175104E-09  1.28559648133261E-02
 cg2d: Sum(rhs),rhsMax =   1.78471551426362E-09  1.28557933521479E-02
 cg2d: Sum(rhs),rhsMax =   1.78478040679941E-09  1.28556227954429E-02
 cg2d: Sum(rhs),rhsMax =   1.78484188539940E-09  1.28554532034938E-02
 cg2d: Sum(rhs),rhsMax =   1.78490447422242E-09  1.28552845959541E-02
 cg2d: Sum(rhs),rhsMax =   1.78497286396073E-09  1.28551170065610E-02
 cg2d: Sum(rhs),rhsMax =   1.78504286352243E-09  1.28549504710369E-02
 cg2d: Sum(rhs),rhsMax =   1.78511738724296E-09  1.28547849963422E-02
 cg2d: Sum(rhs),rhsMax =   1.78519102278507E-09  1.28546205902676E-02
 cg2d: Sum(rhs),rhsMax =   1.78527173599896E-09  1.28544572612708E-02
 cg2d: Sum(rhs),rhsMax =   1.78535161654558E-09  1.28542950108111E-02
 cg2d: Sum(rhs),rhsMax =   1.78543713147405E-09  1.28541338366084E-02
 cg2d: Sum(rhs),rhsMax =   1.78549908191883E-09  1.28539737319407E-02
 cg2d: Sum(rhs),rhsMax =   1.78555401020297E-09  1.28538146856858E-02
 cg2d: Sum(rhs),rhsMax =   1.78561820884937E-09  1.28536566830470E-02
 cg2d: Sum(rhs),rhsMax =   1.78567458042345E-09  1.28534997029303E-02
 cg2d: Sum(rhs),rhsMax =   1.78573741904664E-09  1.28533437227105E-02
 cg2d: Sum(rhs),rhsMax =   1.78580641940762E-09  1.28531887142810E-02
 cg2d: Sum(rhs),rhsMax =   1.78588588362061E-09  1.28530346472616E-02
 cg2d: Sum(rhs),rhsMax =   1.78595119249003E-09  1.28528814878174E-02
 cg2d: Sum(rhs),rhsMax =   1.78602244105264E-09  1.28527291967889E-02
 cg2d: Sum(rhs),rhsMax =   1.78608083878373E-09  1.28525777361540E-02
 cg2d: Sum(rhs),rhsMax =   1.78615414125893E-09  1.28524270624665E-02
 cg2d: Sum(rhs),rhsMax =   1.78622328039779E-09  1.28522771300024E-02
 cg2d: Sum(rhs),rhsMax =   1.78627210245530E-09  1.28521278932595E-02
 cg2d: Sum(rhs),rhsMax =   1.78635309322495E-09  1.28519793033039E-02
 cg2d: Sum(rhs),rhsMax =   1.78642298176435E-09  1.28518313091992E-02
 cg2d: Sum(rhs),rhsMax =   1.78648734694420E-09  1.28516838621677E-02
 cg2d: Sum(rhs),rhsMax =   1.78654105398302E-09  1.28515369069012E-02
 cg2d: Sum(rhs),rhsMax =   1.78661074823339E-09  1.28513903957067E-02
 cg2d: Sum(rhs),rhsMax =   1.78668632666579E-09  1.28512442750018E-02
 cg2d: Sum(rhs),rhsMax =   1.78676645701259E-09  1.28510984931933E-02
 cg2d: Sum(rhs),rhsMax =   1.78682249551976E-09  1.28509529986098E-02
 cg2d: Sum(rhs),rhsMax =   1.78687636909203E-09  1.28508077428501E-02
 cg2d: Sum(rhs),rhsMax =   1.78694106733879E-09  1.28506626763492E-02
 cg2d: Sum(rhs),rhsMax =   1.78701947683990E-09  1.28505177533464E-02
 cg2d: Sum(rhs),rhsMax =   1.78708395304206E-09  1.28503729267218E-02
 cg2d: Sum(rhs),rhsMax =   1.78715095500159E-09  1.28502281564306E-02
 cg2d: Sum(rhs),rhsMax =   1.78721915045088E-09  1.28500833995180E-02
 Computing Diagnostic #    26 "THETA   " (list#  1) Parms "SMR     MR      ", Count=     144
 Computing Diagnostic #    27 "SALT    " (list#  1) Parms "SMR     MR      ", Count=     144
 Computing Diagnostic #    30 "UVEL    " (list#  1) Parms "UUR     MR      ", Count=     144
             Vector  Mate for "UVEL    " :  Diagnostic #     31 "VVEL    " exists
 Computing Diagnostic #    32 "WVEL    " (list#  1) Parms "WM      LR      ", Count=     144
 Computing Diagnostic #    31 "VVEL    " (list#  1) Parms "VVR     MR      ", Count=     144
             Vector  Mate for "VVEL    " :  Diagnostic #     30 "UVEL    " exists
 Computing Diagnostic #   197 "BRGfwFlx" (list#  2) Parms "SM      MR      ", Count=     144
 Computing Diagnostic #   198 "BRGhtFlx" (list#  2) Parms "SM      MR      ", Count=     144
 Computing Diagnostic #   199 "BRGmltRt" (list#  2) Parms "SM      MR      ", Count=     144
 Computing Diagnostic #   201 "BRG_TauX" (list#  2) Parms "UU      MR      ", Count=    1728
 Computing Diagnostic #   202 "BRG_TauY" (list#  2) Parms "VV      MR      ", Count=    1728
 Computing Diagnostic #   203 "BRGhFacC" (list#  2) Parms "SM      MR      ", Count=    1728
 cg2d: Sum(rhs),rhsMax =   1.78727607713647E-09  1.28499386193419E-02
 cg2d: Sum(rhs),rhsMax =   1.78734735345465E-09  1.28497937804726E-02
 cg2d: Sum(rhs),rhsMax =   1.78742440293256E-09  1.28496488514636E-02
 cg2d: Sum(rhs),rhsMax =   1.78747908141652E-09  1.28495038045997E-02
 cg2d: Sum(rhs),rhsMax =   1.78754647195412E-09  1.28493586142596E-02
 cg2d: Sum(rhs),rhsMax =   1.78762721292358E-09  1.28492132592849E-02
 cg2d: Sum(rhs),rhsMax =   1.78769085645847E-09  1.28490677228087E-02
 cg2d: Sum(rhs),rhsMax =   1.78776832227001E-09  1.28489219894642E-02
 cg2d: Sum(rhs),rhsMax =   1.78783363113943E-09  1.28487760516279E-02
 cg2d: Sum(rhs),rhsMax =   1.78789191784823E-09  1.28486299012576E-02
 cg2d: Sum(rhs),rhsMax =   1.78794812288885E-09  1.28484835377252E-02
 cg2d: Sum(rhs),rhsMax =   1.78800246830590E-09  1.28483369645216E-02
 cg2d: Sum(rhs),rhsMax =   1.78808032269551E-09  1.28481901858096E-02
 cg2d: Sum(rhs),rhsMax =   1.78813680529188E-09  1.28480432129838E-02
 cg2d: Sum(rhs),rhsMax =   1.78820053209350E-09  1.28478960592086E-02
 cg2d: Sum(rhs),rhsMax =   1.78826245478270E-09  1.28477487426593E-02
 cg2d: Sum(rhs),rhsMax =   1.78833090003216E-09  1.28476012850734E-02
 cg2d: Sum(rhs),rhsMax =   1.78842013420777E-09  1.28474537094330E-02
 cg2d: Sum(rhs),rhsMax =   1.78847681109318E-09  1.28473060463224E-02
 cg2d: Sum(rhs),rhsMax =   1.78853926113831E-09  1.28471583262332E-02
 cg2d: Sum(rhs),rhsMax =   1.78860362631816E-09  1.28470105837327E-02
 cg2d: Sum(rhs),rhsMax =   1.78867146094497E-09  1.28468628562171E-02
 cg2d: Sum(rhs),rhsMax =   1.78873155176618E-09  1.28467151816178E-02
 cg2d: Sum(rhs),rhsMax =   1.78879699941348E-09  1.28465676029487E-02
 cg2d: Sum(rhs),rhsMax =   1.78887266111261E-09  1.28464201639080E-02
 cg2d: Sum(rhs),rhsMax =   1.78894307700794E-09  1.28462729100805E-02
 cg2d: Sum(rhs),rhsMax =   1.78901451985958E-09  1.28461258878682E-02
 cg2d: Sum(rhs),rhsMax =   1.78908982073622E-09  1.28459791461809E-02
 cg2d: Sum(rhs),rhsMax =   1.78914613679915E-09  1.28458327317555E-02
 cg2d: Sum(rhs),rhsMax =   1.78921680249466E-09  1.28456866947677E-02
 cg2d: Sum(rhs),rhsMax =   1.78928394323208E-09  1.28455410844048E-02
 cg2d: Sum(rhs),rhsMax =   1.78935646855116E-09  1.28453959390345E-02
 cg2d: Sum(rhs),rhsMax =   1.78942119455350E-09  1.28452513274044E-02
 cg2d: Sum(rhs),rhsMax =   1.78949141615981E-09  1.28451072995531E-02
 cg2d: Sum(rhs),rhsMax =   1.78956668928087E-09  1.28449638978388E-02
 cg2d: Sum(rhs),rhsMax =   1.78963591168646E-09  1.28448211702592E-02
 cg2d: Sum(rhs),rhsMax =   1.78971057418487E-09  1.28446791594618E-02
 cg2d: Sum(rhs),rhsMax =   1.78977907494549E-09  1.28445379118598E-02
 cg2d: Sum(rhs),rhsMax =   1.78984838061780E-09  1.28443974679839E-02
 cg2d: Sum(rhs),rhsMax =   1.78992504151765E-09  1.28442578666490E-02
 cg2d: Sum(rhs),rhsMax =   1.78998707522915E-09  1.28441191443536E-02
 cg2d: Sum(rhs),rhsMax =   1.79005965605938E-09  1.28439813356831E-02
 cg2d: Sum(rhs),rhsMax =   1.79012527024014E-09  1.28438444702170E-02
 cg2d: Sum(rhs),rhsMax =   1.79019843393746E-09  1.28437085755260E-02
 cg2d: Sum(rhs),rhsMax =   1.79024900459623E-09  1.28435736754325E-02
 cg2d: Sum(rhs),rhsMax =   1.79032350056119E-09  1.28434397897881E-02
 cg2d: Sum(rhs),rhsMax =   1.79039785774826E-09  1.28433069361807E-02
 cg2d: Sum(rhs),rhsMax =   1.79046416581841E-09  1.28431751282693E-02
 cg2d: Sum(rhs),rhsMax =   1.79052739301966E-09  1.28430443755648E-02
 cg2d: Sum(rhs),rhsMax =   1.79059037042073E-09  1.28429146863814E-02
 cg2d: Sum(rhs),rhsMax =   1.79066636518677E-09  1.28427860924705E-02
 cg2d: Sum(rhs),rhsMax =   1.79072950912129E-09  1.28426585948833E-02
 cg2d: Sum(rhs),rhsMax =   1.79080156259559E-09  1.28425321867277E-02
 cg2d: Sum(rhs),rhsMax =   1.79087461527061E-09  1.28424068591965E-02
 cg2d: Sum(rhs),rhsMax =   1.79094153396342E-09  1.28422826001389E-02
 cg2d: Sum(rhs),rhsMax =   1.79101028452422E-09  1.28421593936235E-02
 cg2d: Sum(rhs),rhsMax =   1.79107209619112E-09  1.28420372208727E-02
 cg2d: Sum(rhs),rhsMax =   1.79114603704456E-09  1.28419160579931E-02
 cg2d: Sum(rhs),rhsMax =   1.79119533094685E-09  1.28417958813490E-02
 cg2d: Sum(rhs),rhsMax =   1.79125370092237E-09  1.28416766615235E-02
 cg2d: Sum(rhs),rhsMax =   1.79132617073030E-09  1.28415583676655E-02
 cg2d: Sum(rhs),rhsMax =   1.79141024236884E-09  1.28414409663327E-02
 cg2d: Sum(rhs),rhsMax =   1.79147752188413E-09  1.28413244219065E-02
 cg2d: Sum(rhs),rhsMax =   1.79154688306760E-09  1.28412086975219E-02
 cg2d: Sum(rhs),rhsMax =   1.79161907531977E-09  1.28410937528908E-02
 cg2d: Sum(rhs),rhsMax =   1.79166928515606E-09  1.28409795469104E-02
 cg2d: Sum(rhs),rhsMax =   1.79173137437871E-09  1.28408660395277E-02
 cg2d: Sum(rhs),rhsMax =   1.79179848736055E-09  1.28407531835504E-02
 cg2d: Sum(rhs),rhsMax =   1.79188172633182E-09  1.28406409391934E-02
 cg2d: Sum(rhs),rhsMax =   1.79194598048937E-09  1.28405292604551E-02
 cg2d: Sum(rhs),rhsMax =   1.79201073424728E-09  1.28404181021432E-02
 cg2d: Sum(rhs),rhsMax =   1.79207221284727E-09  1.28403074180748E-02
 cg2d: Sum(rhs),rhsMax =   1.79212367168446E-09  1.28401971675259E-02
 cg2d: Sum(rhs),rhsMax =   1.79217923834685E-09  1.28400873040652E-02
 cg2d: Sum(rhs),rhsMax =   1.79223755281122E-09  1.28399777840030E-02
 cg2d: Sum(rhs),rhsMax =   1.79231221530962E-09  1.28398685644708E-02
 cg2d: Sum(rhs),rhsMax =   1.79236805952776E-09  1.28397596044554E-02
 cg2d: Sum(rhs),rhsMax =   1.79242556908044E-09  1.28396508646309E-02
 cg2d: Sum(rhs),rhsMax =   1.79247020004603E-09  1.28395423045533E-02
 cg2d: Sum(rhs),rhsMax =   1.79253137333468E-09  1.28394338865101E-02
 cg2d: Sum(rhs),rhsMax =   1.79259865284997E-09  1.28393255775673E-02
 cg2d: Sum(rhs),rhsMax =   1.79267153899154E-09  1.28392173430653E-02
 cg2d: Sum(rhs),rhsMax =   1.79273895728471E-09  1.28391091514804E-02
 cg2d: Sum(rhs),rhsMax =   1.79278994427712E-09  1.28390009746548E-02
 cg2d: Sum(rhs),rhsMax =   1.79284073698049E-09  1.28388927810051E-02
 cg2d: Sum(rhs),rhsMax =   1.79289022517182E-09  1.28387845465133E-02
 cg2d: Sum(rhs),rhsMax =   1.79295650548639E-09  1.28386762465810E-02
 cg2d: Sum(rhs),rhsMax =   1.79301576364033E-09  1.28385678580678E-02
 cg2d: Sum(rhs),rhsMax =   1.79307690917341E-09  1.28384593618783E-02
 cg2d: Sum(rhs),rhsMax =   1.79314910142558E-09  1.28383507391953E-02
 cg2d: Sum(rhs),rhsMax =   1.79321132942611E-09  1.28382419752844E-02
 cg2d: Sum(rhs),rhsMax =   1.79327053206890E-09  1.28381330537083E-02
 cg2d: Sum(rhs),rhsMax =   1.79332501626384E-09  1.28380239639579E-02
 cg2d: Sum(rhs),rhsMax =   1.79338441319565E-09  1.28379146940530E-02
 cg2d: Sum(rhs),rhsMax =   1.79344059048070E-09  1.28378052351735E-02
 cg2d: Sum(rhs),rhsMax =   1.79349193829559E-09  1.28376955786606E-02
 cg2d: Sum(rhs),rhsMax =   1.79354925355923E-09  1.28375857193614E-02
 cg2d: Sum(rhs),rhsMax =   1.79361817065349E-09  1.28374756520569E-02
 cg2d: Sum(rhs),rhsMax =   1.79367937169772E-09  1.28373653737292E-02
 cg2d: Sum(rhs),rhsMax =   1.79374587405690E-09  1.28372548794822E-02
 cg2d: Sum(rhs),rhsMax =   1.79381848264271E-09  1.28371441698170E-02
 cg2d: Sum(rhs),rhsMax =   1.79386772103385E-09  1.28370332414745E-02
 cg2d: Sum(rhs),rhsMax =   1.79392350974084E-09  1.28369220931033E-02
 cg2d: Sum(rhs),rhsMax =   1.79398462751834E-09  1.28368107261745E-02
 cg2d: Sum(rhs),rhsMax =   1.79405795774912E-09  1.28366991380674E-02
 cg2d: Sum(rhs),rhsMax =   1.79411580036870E-09  1.28365873301295E-02
 cg2d: Sum(rhs),rhsMax =   1.79417514178937E-09  1.28364753007176E-02
 cg2d: Sum(rhs),rhsMax =   1.79422310342403E-09  1.28363630499878E-02
 cg2d: Sum(rhs),rhsMax =   1.79429013313914E-09  1.28362505769033E-02
 cg2d: Sum(rhs),rhsMax =   1.79435238889525E-09  1.28361378789467E-02
 cg2d: Sum(rhs),rhsMax =   1.79442460890300E-09  1.28360249542179E-02
 cg2d: Sum(rhs),rhsMax =   1.79448697568141E-09  1.28359117984957E-02
 cg2d: Sum(rhs),rhsMax =   1.79455658666505E-09  1.28357984092839E-02
 cg2d: Sum(rhs),rhsMax =   1.79462825156129E-09  1.28356847806053E-02
 cg2d: Sum(rhs),rhsMax =   1.79469039629510E-09  1.28355709071224E-02
 cg2d: Sum(rhs),rhsMax =   1.79475900807802E-09  1.28354567813598E-02
 cg2d: Sum(rhs),rhsMax =   1.79482753659421E-09  1.28353423944126E-02
 cg2d: Sum(rhs),rhsMax =   1.79489881291239E-09  1.28352277370660E-02
 cg2d: Sum(rhs),rhsMax =   1.79496686958380E-09  1.28351127994310E-02
 cg2d: Sum(rhs),rhsMax =   1.79502523955932E-09  1.28349975702296E-02
 cg2d: Sum(rhs),rhsMax =   1.79510581399533E-09  1.28348820328489E-02
 cg2d: Sum(rhs),rhsMax =   1.79516376763722E-09  1.28347661761478E-02
 cg2d: Sum(rhs),rhsMax =   1.79523326759856E-09  1.28346499843043E-02
 cg2d: Sum(rhs),rhsMax =   1.79528703014853E-09  1.28345334404635E-02
 cg2d: Sum(rhs),rhsMax =   1.79535111777263E-09  1.28344165280472E-02
 cg2d: Sum(rhs),rhsMax =   1.79540696199076E-09  1.28342992280849E-02
 cg2d: Sum(rhs),rhsMax =   1.79546980061396E-09  1.28341815208424E-02
 cg2d: Sum(rhs),rhsMax =   1.79552880896772E-09  1.28340633878974E-02
 cg2d: Sum(rhs),rhsMax =   1.79559356272563E-09  1.28339448074430E-02
 cg2d: Sum(rhs),rhsMax =   1.79566556068878E-09  1.28338257615845E-02
 cg2d: Sum(rhs),rhsMax =   1.79573342307116E-09  1.28337062223332E-02
 cg2d: Sum(rhs),rhsMax =   1.79578876768893E-09  1.28335861795316E-02
 cg2d: Sum(rhs),rhsMax =   1.79585982196251E-09  1.28334656082029E-02
 cg2d: Sum(rhs),rhsMax =   1.79591966298354E-09  1.28333444859951E-02
 cg2d: Sum(rhs),rhsMax =   1.79598166893946E-09  1.28332227935500E-02
 cg2d: Sum(rhs),rhsMax =   1.79602768768383E-09  1.28331005108239E-02
 cg2d: Sum(rhs),rhsMax =   1.79609710437845E-09  1.28329776207036E-02
 cg2d: Sum(rhs),rhsMax =   1.79617221096606E-09  1.28328541059354E-02
 cg2d: Sum(rhs),rhsMax =   1.79622816620650E-09  1.28327299504170E-02
 cg2d: Sum(rhs),rhsMax =   1.79629250363078E-09  1.28326051380111E-02
 cg2d: Sum(rhs),rhsMax =   1.79635151198454E-09  1.28324796574234E-02
 cg2d: Sum(rhs),rhsMax =   1.79642370423672E-09  1.28323534945307E-02
 cg2d: Sum(rhs),rhsMax =   1.79649187193043E-09  1.28322266418887E-02
 cg2d: Sum(rhs),rhsMax =   1.79654938148310E-09  1.28320990906425E-02
 Computing Diagnostic #    26 "THETA   " (list#  1) Parms "SMR     MR      ", Count=     144
 Computing Diagnostic #    27 "SALT    " (list#  1) Parms "SMR     MR      ", Count=     144
 Computing Diagnostic #    30 "UVEL    " (list#  1) Parms "UUR     MR      ", Count=     144
             Vector  Mate for "UVEL    " :  Diagnostic #     31 "VVEL    " exists
 Computing Diagnostic #    32 "WVEL    " (list#  1) Parms "WM      LR      ", Count=     144
 Computing Diagnostic #    31 "VVEL    " (list#  1) Parms "VVR     MR      ", Count=     144
             Vector  Mate for "VVEL    " :  Diagnostic #     30 "UVEL    " exists
 Computing Diagnostic #   197 "BRGfwFlx" (list#  2) Parms "SM      MR      ", Count=     144
 Computing Diagnostic #   198 "BRGhtFlx" (list#  2) Parms "SM      MR      ", Count=     144
 Computing Diagnostic #   199 "BRGmltRt" (list#  2) Parms "SM      MR      ", Count=     144
 Computing Diagnostic #   201 "BRG_TauX" (list#  2) Parms "UU      MR      ", Count=    1728
 Computing Diagnostic #   202 "BRG_TauY" (list#  2) Parms "VV      MR      ", Count=    1728
 Computing Diagnostic #   203 "BRGhFacC" (list#  2) Parms "SM      MR      ", Count=    1728
 cg2d: Sum(rhs),rhsMax =   1.79660059052011E-09  1.28319708367745E-02
 cg2d: Sum(rhs),rhsMax =   1.79665990418520E-09  1.28318418767436E-02
 cg2d: Sum(rhs),rhsMax =   1.79671758027133E-09  1.28317122113769E-02
 cg2d: Sum(rhs),rhsMax =   1.79678333322997E-09  1.28315818417664E-02
 cg2d: Sum(rhs),rhsMax =   1.79684805923230E-09  1.28314507721782E-02
 cg2d: Sum(rhs),rhsMax =   1.79690937129884E-09  1.28313190130830E-02
 cg2d: Sum(rhs),rhsMax =   1.79697748348140E-09  1.28311865746531E-02
 cg2d: Sum(rhs),rhsMax =   1.79704587321972E-09  1.28310534671969E-02
 cg2d: Sum(rhs),rhsMax =   1.79711845404995E-09  1.28309197098109E-02
 cg2d: Sum(rhs),rhsMax =   1.79720616166890E-09  1.28307853224411E-02
 cg2d: Sum(rhs),rhsMax =   1.79725526128216E-09  1.28306503267621E-02
 cg2d: Sum(rhs),rhsMax =   1.79732259630860E-09  1.28305147473371E-02
 cg2d: Sum(rhs),rhsMax =   1.79740236583292E-09  1.28303786150916E-02
 cg2d: Sum(rhs),rhsMax =   1.79748063655616E-09  1.28302419579825E-02
 cg2d: Sum(rhs),rhsMax =   1.79755843543461E-09  1.28301048094021E-02
 cg2d: Sum(rhs),rhsMax =   1.79761830421121E-09  1.28299672120036E-02
 cg2d: Sum(rhs),rhsMax =   1.79767989383350E-09  1.28298292010986E-02
 cg2d: Sum(rhs),rhsMax =   1.79775583308839E-09  1.28296908190979E-02
 cg2d: Sum(rhs),rhsMax =   1.79779957587556E-09  1.28295521084834E-02
 cg2d: Sum(rhs),rhsMax =   1.79789266807617E-09  1.28294131149342E-02
 cg2d: Sum(rhs),rhsMax =   1.79797082777711E-09  1.28292738844479E-02
 cg2d: Sum(rhs),rhsMax =   1.79803211208807E-09  1.28291344642890E-02
 cg2d: Sum(rhs),rhsMax =   1.79809964140354E-09  1.28289949070925E-02
 cg2d: Sum(rhs),rhsMax =   1.79815143330764E-09  1.28288552611258E-02
 cg2d: Sum(rhs),rhsMax =   1.79821577073191E-09  1.28287155776572E-02
 cg2d: Sum(rhs),rhsMax =   1.79827891466644E-09  1.28285759088297E-02
 cg2d: Sum(rhs),rhsMax =   1.79837683633721E-09  1.28284363065395E-02
 cg2d: Sum(rhs),rhsMax =   1.79845177639137E-09  1.28282968226055E-02
 cg2d: Sum(rhs),rhsMax =   1.79851236681294E-09  1.28281575085408E-02
 cg2d: Sum(rhs),rhsMax =   1.79858442028724E-09  1.28280184178602E-02
 cg2d: Sum(rhs),rhsMax =   1.79865430882664E-09  1.28278795964054E-02
 cg2d: Sum(rhs),rhsMax =   1.79871301186907E-09  1.28277410959652E-02
 cg2d: Sum(rhs),rhsMax =   1.79878020811763E-09  1.28276029649310E-02
 cg2d: Sum(rhs),rhsMax =   1.79884129813956E-09  1.28274652437755E-02
 cg2d: Sum(rhs),rhsMax =   1.79889750318019E-09  1.28273279822023E-02
 cg2d: Sum(rhs),rhsMax =   1.79895734420121E-09  1.28271912190794E-02
 cg2d: Sum(rhs),rhsMax =   1.79903003605375E-09  1.28270549942306E-02
 cg2d: Sum(rhs),rhsMax =   1.79910314423992E-09  1.28269193421102E-02
 cg2d: Sum(rhs),rhsMax =   1.79916795350898E-09  1.28267842962662E-02
 cg2d: Sum(rhs),rhsMax =   1.79923367871204E-09  1.28266498852236E-02
 cg2d: Sum(rhs),rhsMax =   1.79930517707483E-09  1.28265161366419E-02
 cg2d: Sum(rhs),rhsMax =   1.79936451849549E-09  1.28263830715622E-02
 cg2d: Sum(rhs),rhsMax =   1.79942688527390E-09  1.28262507112502E-02
 cg2d: Sum(rhs),rhsMax =   1.79949236067678E-09  1.28261190675543E-02
 cg2d: Sum(rhs),rhsMax =   1.79955197965320E-09  1.28259881519635E-02
 cg2d: Sum(rhs),rhsMax =   1.79963033364317E-09  1.28258579709914E-02
 cg2d: Sum(rhs),rhsMax =   1.79970194302825E-09  1.28257285262608E-02
 cg2d: Sum(rhs),rhsMax =   1.79976145098237E-09  1.28255998168747E-02
 cg2d: Sum(rhs),rhsMax =   1.79983128401062E-09  1.28254718340414E-02
 cg2d: Sum(rhs),rhsMax =   1.79988926540808E-09  1.28253445681250E-02
 cg2d: Sum(rhs),rhsMax =   1.79996537119642E-09  1.28252180026527E-02
 cg2d: Sum(rhs),rhsMax =   1.80004733341121E-09  1.28250921180119E-02
 cg2d: Sum(rhs),rhsMax =   1.80011031081229E-09  1.28249668914272E-02
 cg2d: Sum(rhs),rhsMax =   1.80018291939810E-09  1.28248422929479E-02
 cg2d: Sum(rhs),rhsMax =   1.80024592455474E-09  1.28247182918080E-02
 cg2d: Sum(rhs),rhsMax =   1.80031253793622E-09  1.28245948497771E-02
 cg2d: Sum(rhs),rhsMax =   1.80036799357630E-09  1.28244719284836E-02
 cg2d: Sum(rhs),rhsMax =   1.80044631981069E-09  1.28243494832529E-02
 cg2d: Sum(rhs),rhsMax =   1.80051665243930E-09  1.28242274681595E-02
 cg2d: Sum(rhs),rhsMax =   1.80058762344615E-09  1.28241058334221E-02
 cg2d: Sum(rhs),rhsMax =   1.80066062061002E-09  1.28239845245187E-02
 cg2d: Sum(rhs),rhsMax =   1.80072842748125E-09  1.28238634861581E-02
 cg2d: Sum(rhs),rhsMax =   1.80079320899473E-09  1.28237426620959E-02
 cg2d: Sum(rhs),rhsMax =   1.80086523471346E-09  1.28236219909050E-02
 cg2d: Sum(rhs),rhsMax =   1.80094641977213E-09  1.28235014109351E-02
 cg2d: Sum(rhs),rhsMax =   1.80101397684318E-09  1.28233808602484E-02
 cg2d: Sum(rhs),rhsMax =   1.80107856406764E-09  1.28232602727048E-02
 cg2d: Sum(rhs),rhsMax =   1.80113868264442E-09  1.28231395850336E-02
 cg2d: Sum(rhs),rhsMax =   1.80119846815430E-09  1.28230187310254E-02
 cg2d: Sum(rhs),rhsMax =   1.80125916959817E-09  1.28228976453305E-02
 cg2d: Sum(rhs),rhsMax =   1.80132431193414E-09  1.28227762634571E-02
 cg2d: Sum(rhs),rhsMax =   1.80138576277855E-09  1.28226545197033E-02
 cg2d: Sum(rhs),rhsMax =   1.80144110739633E-09  1.28225323503027E-02
 cg2d: Sum(rhs),rhsMax =   1.80150519502043E-09  1.28224096952947E-02
 cg2d: Sum(rhs),rhsMax =   1.80155318441066E-09  1.28222864910509E-02
 cg2d: Sum(rhs),rhsMax =   1.80161841001336E-09  1.28221626790517E-02
 cg2d: Sum(rhs),rhsMax =   1.80168296948224E-09  1.28220382037354E-02
 cg2d: Sum(rhs),rhsMax =   1.80176798481035E-09  1.28219130106176E-02
 cg2d: Sum(rhs),rhsMax =   1.80182363473946E-09  1.28217870494036E-02
 cg2d: Sum(rhs),rhsMax =   1.80188808318604E-09  1.28216602704444E-02
 cg2d: Sum(rhs),rhsMax =   1.80194373311515E-09  1.28215326279510E-02
 cg2d: Sum(rhs),rhsMax =   1.80201339960995E-09  1.28214040820677E-02
 cg2d: Sum(rhs),rhsMax =   1.80207468392091E-09  1.28212745949131E-02
 cg2d: Sum(rhs),rhsMax =   1.80213022282771E-09  1.28211441312882E-02
 cg2d: Sum(rhs),rhsMax =   1.80219678069804E-09  1.28210126630024E-02
 cg2d: Sum(rhs),rhsMax =   1.80226025769947E-09  1.28208801630690E-02
 cg2d: Sum(rhs),rhsMax =   1.80233294955201E-09  1.28207466112353E-02
 cg2d: Sum(rhs),rhsMax =   1.80241324643227E-09  1.28206119890954E-02
 cg2d: Sum(rhs),rhsMax =   1.80248954650963E-09  1.28204762843469E-02
 cg2d: Sum(rhs),rhsMax =   1.80254666748425E-09  1.28203394726706E-02
 cg2d: Sum(rhs),rhsMax =   1.80262368920658E-09  1.28202015590188E-02
 cg2d: Sum(rhs),rhsMax =   1.80268530658445E-09  1.28200625181734E-02
 cg2d: Sum(rhs),rhsMax =   1.80276626959852E-09  1.28199223480583E-02
 cg2d: Sum(rhs),rhsMax =   1.80281062300836E-09  1.28197810513136E-02
 cg2d: Sum(rhs),rhsMax =   1.80287540452184E-09  1.28196386326475E-02
 cg2d: Sum(rhs),rhsMax =   1.80295989249402E-09  1.28194951011009E-02
 cg2d: Sum(rhs),rhsMax =   1.80302114904940E-09  1.28193504695000E-02
 cg2d: Sum(rhs),rhsMax =   1.80306689023801E-09  1.28192047572262E-02
 cg2d: Sum(rhs),rhsMax =   1.80312970110563E-09  1.28190579875813E-02
 cg2d: Sum(rhs),rhsMax =   1.80320933185207E-09  1.28189101864688E-02
 cg2d: Sum(rhs),rhsMax =   1.80329026711057E-09  1.28187613844605E-02
 cg2d: Sum(rhs),rhsMax =   1.80335041344293E-09  1.28186116175067E-02
 cg2d: Sum(rhs),rhsMax =   1.80342063504924E-09  1.28184609232039E-02
 cg2d: Sum(rhs),rhsMax =   1.80347128897473E-09  1.28183093433949E-02
 cg2d: Sum(rhs),rhsMax =   1.80353715295567E-09  1.28181569211209E-02
 cg2d: Sum(rhs),rhsMax =   1.80361214852098E-09  1.28180037070346E-02
 cg2d: Sum(rhs),rhsMax =   1.80367326629849E-09  1.28178497459476E-02
 cg2d: Sum(rhs),rhsMax =   1.80374631897351E-09  1.28176950933831E-02
 cg2d: Sum(rhs),rhsMax =   1.80380183012474E-09  1.28175398012199E-02
 cg2d: Sum(rhs),rhsMax =   1.80388615156346E-09  1.28173839228734E-02
 cg2d: Sum(rhs),rhsMax =   1.80397050075776E-09  1.28172275133990E-02
 cg2d: Sum(rhs),rhsMax =   1.80403980643007E-09  1.28170706308159E-02
 cg2d: Sum(rhs),rhsMax =   1.80409687189353E-09  1.28169133303641E-02
 cg2d: Sum(rhs),rhsMax =   1.80416204198508E-09  1.28167556681880E-02
 cg2d: Sum(rhs),rhsMax =   1.80422304874028E-09  1.28165976994035E-02
 cg2d: Sum(rhs),rhsMax =   1.80430381746532E-09  1.28164394775532E-02
 cg2d: Sum(rhs),rhsMax =   1.80438142205475E-09  1.28162810575662E-02
 cg2d: Sum(rhs),rhsMax =   1.80445236530602E-09  1.28161224893640E-02
 cg2d: Sum(rhs),rhsMax =   1.80454201581526E-09  1.28159638245317E-02
 cg2d: Sum(rhs),rhsMax =   1.80461620646888E-09  1.28158051083273E-02
 cg2d: Sum(rhs),rhsMax =   1.80468526234101E-09  1.28156463849283E-02
 cg2d: Sum(rhs),rhsMax =   1.80475576150307E-09  1.28154876967327E-02
 cg2d: Sum(rhs),rhsMax =   1.80484049927543E-09  1.28153290812259E-02
 cg2d: Sum(rhs),rhsMax =   1.80488246570576E-09  1.28151705732091E-02
 cg2d: Sum(rhs),rhsMax =   1.80494375001672E-09  1.28150122037169E-02
 cg2d: Sum(rhs),rhsMax =   1.80502934821192E-09  1.28148540009846E-02
 cg2d: Sum(rhs),rhsMax =   1.80509315828026E-09  1.28146959868194E-02
 cg2d: Sum(rhs),rhsMax =   1.80516016023979E-09  1.28145381808803E-02
 cg2d: Sum(rhs),rhsMax =   1.80524595272402E-09  1.28143805994530E-02
 cg2d: Sum(rhs),rhsMax =   1.80533329952048E-09  1.28142232507840E-02
 cg2d: Sum(rhs),rhsMax =   1.80539388994205E-09  1.28140661441165E-02
 cg2d: Sum(rhs),rhsMax =   1.80546630423883E-09  1.28139092791602E-02
 cg2d: Sum(rhs),rhsMax =   1.80551301687260E-09  1.28137526551923E-02
 cg2d: Sum(rhs),rhsMax =   1.80557940820947E-09  1.28135962648976E-02
 cg2d: Sum(rhs),rhsMax =   1.80564674323591E-09  1.28134400963715E-02
 cg2d: Sum(rhs),rhsMax =   1.80572806707247E-09  1.28132841324970E-02
 cg2d: Sum(rhs),rhsMax =   1.80578690889277E-09  1.28131283564148E-02
 cg2d: Sum(rhs),rhsMax =   1.80584794340355E-09  1.28129727435481E-02
 cg2d: Sum(rhs),rhsMax =   1.80592188425699E-09  1.28128172632324E-02
 cg2d: Sum(rhs),rhsMax =   1.80599415977589E-09  1.28126618867768E-02
 cg2d: Sum(rhs),rhsMax =   1.80607565014590E-09  1.28125065783702E-02
 cg2d: Sum(rhs),rhsMax =   1.80614156963799E-09  1.28123513001557E-02
 cg2d: Sum(rhs),rhsMax =   1.80619202927446E-09  1.28121960079136E-02
 cg2d: Sum(rhs),rhsMax =   1.80627340862216E-09  1.28120406598331E-02
 Computing Diagnostic #    26 "THETA   " (list#  1) Parms "SMR     MR      ", Count=     144
 Computing Diagnostic #    27 "SALT    " (list#  1) Parms "SMR     MR      ", Count=     144
 Computing Diagnostic #    30 "UVEL    " (list#  1) Parms "UUR     MR      ", Count=     144
             Vector  Mate for "UVEL    " :  Diagnostic #     31 "VVEL    " exists
 Computing Diagnostic #    32 "WVEL    " (list#  1) Parms "WM      LR      ", Count=     144
 Computing Diagnostic #    31 "VVEL    " (list#  1) Parms "VVR     MR      ", Count=     144
             Vector  Mate for "VVEL    " :  Diagnostic #     30 "UVEL    " exists
 Computing Diagnostic #   197 "BRGfwFlx" (list#  2) Parms "SM      MR      ", Count=     144
 Computing Diagnostic #   198 "BRGhtFlx" (list#  2) Parms "SM      MR      ", Count=     144
 Computing Diagnostic #   199 "BRGmltRt" (list#  2) Parms "SM      MR      ", Count=     144
 Computing Diagnostic #   201 "BRG_TauX" (list#  2) Parms "UU      MR      ", Count=    1728
 Computing Diagnostic #   202 "BRG_TauY" (list#  2) Parms "VV      MR      ", Count=    1728
 Computing Diagnostic #   203 "BRGhFacC" (list#  2) Parms "SM      MR      ", Count=    1728
 cg2d: Sum(rhs),rhsMax =   1.80634887603226E-09  1.28118852084541E-02
 cg2d: Sum(rhs),rhsMax =   1.80643097702493E-09  1.28117296060167E-02
 cg2d: Sum(rhs),rhsMax =   1.80649076253481E-09  1.28115738014473E-02
 cg2d: Sum(rhs),rhsMax =   1.80654960435511E-09  1.28114177437495E-02
 cg2d: Sum(rhs),rhsMax =   1.80662276805243E-09  1.28112613783144E-02
 cg2d: Sum(rhs),rhsMax =   1.80669526561594E-09  1.28111046534406E-02
 cg2d: Sum(rhs),rhsMax =   1.80676587580031E-09  1.28109475159051E-02
 cg2d: Sum(rhs),rhsMax =   1.80684547879117E-09  1.28107899104931E-02
 cg2d: Sum(rhs),rhsMax =   1.80692139029048E-09  1.28106317861981E-02
 cg2d: Sum(rhs),rhsMax =   1.80698223051223E-09  1.28104730901511E-02
 cg2d: Sum(rhs),rhsMax =   1.80707476760134E-09  1.28103137727649E-02
 cg2d: Sum(rhs),rhsMax =   1.80714257447256E-09  1.28101537843081E-02
 cg2d: Sum(rhs),rhsMax =   1.80722883880158E-09  1.28099930799592E-02
 cg2d: Sum(rhs),rhsMax =   1.80729869958540E-09  1.28098316159014E-02
 cg2d: Sum(rhs),rhsMax =   1.80734829879903E-09  1.28096693501983E-02
 cg2d: Sum(rhs),rhsMax =   1.80741127620010E-09  1.28095062471558E-02
 cg2d: Sum(rhs),rhsMax =   1.80748555012045E-09  1.28093422716614E-02
 cg2d: Sum(rhs),rhsMax =   1.80755052592296E-09  1.28091773941951E-02
 cg2d: Sum(rhs),rhsMax =   1.80763365387193E-09  1.28090115888952E-02
 cg2d: Sum(rhs),rhsMax =   1.80770728941404E-09  1.28088448344580E-02
 cg2d: Sum(rhs),rhsMax =   1.80778794711678E-09  1.28086771168830E-02
 cg2d: Sum(rhs),rhsMax =   1.80784390235722E-09  1.28085084226734E-02
 cg2d: Sum(rhs),rhsMax =   1.80791004389391E-09  1.28083387439167E-02
 cg2d: Sum(rhs),rhsMax =   1.80798340188026E-09  1.28081680853184E-02
 cg2d: Sum(rhs),rhsMax =   1.80805234673009E-09  1.28079964471640E-02
 cg2d: Sum(rhs),rhsMax =   1.80811715599916E-09  1.28078238409399E-02
 cg2d: Sum(rhs),rhsMax =   1.80819323403192E-09  1.28076502839723E-02
 cg2d: Sum(rhs),rhsMax =   1.80824577533656E-09  1.28074757976447E-02
 cg2d: Sum(rhs),rhsMax =   1.80831871698928E-09  1.28073004086850E-02
 cg2d: Sum(rhs),rhsMax =   1.80840095675983E-09  1.28071241501084E-02
 cg2d: Sum(rhs),rhsMax =   1.80848572228776E-09  1.28069470622198E-02
 cg2d: Sum(rhs),rhsMax =   1.80855336262553E-09  1.28067691881378E-02
 cg2d: Sum(rhs),rhsMax =   1.80864445642470E-09  1.28065905763960E-02
 cg2d: Sum(rhs),rhsMax =   1.80871809196681E-09  1.28064112857860E-02
 cg2d: Sum(rhs),rhsMax =   1.80880049827081E-09  1.28062313730805E-02
 cg2d: Sum(rhs),rhsMax =   1.80887324563450E-09  1.28060509038951E-02
 cg2d: Sum(rhs),rhsMax =   1.80896272961029E-09  1.28058699472061E-02
 cg2d: Sum(rhs),rhsMax =   1.80903761415330E-09  1.28056885772133E-02
 cg2d: Sum(rhs),rhsMax =   1.80910739167039E-09  1.28055068723225E-02
 cg2d: Sum(rhs),rhsMax =   1.80917855696627E-09  1.28053249109670E-02
 cg2d: Sum(rhs),rhsMax =   1.80924081272238E-09  1.28051427801785E-02
 cg2d: Sum(rhs),rhsMax =   1.80931675197726E-09  1.28049605653427E-02
 cg2d: Sum(rhs),rhsMax =   1.80939174754258E-09  1.28047783571514E-02
 cg2d: Sum(rhs),rhsMax =   1.80947448691349E-09  1.28045962469256E-02
 cg2d: Sum(rhs),rhsMax =   1.80955106454661E-09  1.28044143272949E-02
 cg2d: Sum(rhs),rhsMax =   1.80961320928041E-09  1.28042326933893E-02
 cg2d: Sum(rhs),rhsMax =   1.80968029450668E-09  1.28040514400296E-02
 cg2d: Sum(rhs),rhsMax =   1.80975723296228E-09  1.28038706623743E-02
 cg2d: Sum(rhs),rhsMax =   1.80982584474521E-09  1.28036904568779E-02
 cg2d: Sum(rhs),rhsMax =   1.80988504738799E-09  1.28035109160192E-02
 cg2d: Sum(rhs),rhsMax =   1.80994905174536E-09  1.28033321331974E-02
 cg2d: Sum(rhs),rhsMax =   1.81002660082363E-09  1.28031542016977E-02
 cg2d: Sum(rhs),rhsMax =   1.81008952271355E-09  1.28029772087337E-02
 cg2d: Sum(rhs),rhsMax =   1.81016571176862E-09  1.28028012431968E-02
 cg2d: Sum(rhs),rhsMax =   1.81022855039181E-09  1.28026263872170E-02
 cg2d: Sum(rhs),rhsMax =   1.81031353796435E-09  1.28024527230132E-02
 cg2d: Sum(rhs),rhsMax =   1.81036918789346E-09  1.28022803276017E-02
 cg2d: Sum(rhs),rhsMax =   1.81044890190662E-09  1.28021092713977E-02
 cg2d: Sum(rhs),rhsMax =   1.81052683956295E-09  1.28019396236374E-02
 cg2d: Sum(rhs),rhsMax =   1.81060350046280E-09  1.28017714472790E-02
 cg2d: Sum(rhs),rhsMax =   1.81065509807787E-09  1.28016048022015E-02
 cg2d: Sum(rhs),rhsMax =   1.81072368210522E-09  1.28014397379946E-02
 cg2d: Sum(rhs),rhsMax =   1.81079046202015E-09  1.28012763025933E-02
 cg2d: Sum(rhs),rhsMax =   1.81086681760867E-09  1.28011145387866E-02
 cg2d: Sum(rhs),rhsMax =   1.81093337547900E-09  1.28009544813991E-02
 cg2d: Sum(rhs),rhsMax =   1.81099732432521E-09  1.28007961579268E-02
 cg2d: Sum(rhs),rhsMax =   1.81106019070398E-09  1.28006395928670E-02
 cg2d: Sum(rhs),rhsMax =   1.81114903630153E-09  1.28004848008264E-02
 cg2d: Sum(rhs),rhsMax =   1.81121487252689E-09  1.28003317917130E-02
 cg2d: Sum(rhs),rhsMax =   1.81128062548552E-09  1.28001805690047E-02
 cg2d: Sum(rhs),rhsMax =   1.81136577959151E-09  1.28000311282013E-02
 cg2d: Sum(rhs),rhsMax =   1.81142831290337E-09  1.27998834586099E-02
 cg2d: Sum(rhs),rhsMax =   1.81149339972819E-09  1.27997375445771E-02
 cg2d: Sum(rhs),rhsMax =   1.81156270540050E-09  1.27995933640955E-02
 cg2d: Sum(rhs),rhsMax =   1.81160797474433E-09  1.27994508852145E-02
 cg2d: Sum(rhs),rhsMax =   1.81167808532834E-09  1.27993100756176E-02
 cg2d: Sum(rhs),rhsMax =   1.81172660207451E-09  1.27991708924700E-02
 cg2d: Sum(rhs),rhsMax =   1.81180109803947E-09  1.27990332863486E-02
 cg2d: Sum(rhs),rhsMax =   1.81187603809363E-09  1.27988972073681E-02
 cg2d: Sum(rhs),rhsMax =   1.81195425330571E-09  1.27987625975405E-02
 cg2d: Sum(rhs),rhsMax =   1.81200876525622E-09  1.27986293932237E-02
 cg2d: Sum(rhs),rhsMax =   1.81208495431129E-09  1.27984975291319E-02
 cg2d: Sum(rhs),rhsMax =   1.81214934724672E-09  1.27983669351674E-02
 cg2d: Sum(rhs),rhsMax =   1.81221690431776E-09  1.27982375356192E-02
 cg2d: Sum(rhs),rhsMax =   1.81227843842890E-09  1.27981092541435E-02
 cg2d: Sum(rhs),rhsMax =   1.81234391383178E-09  1.27979820104345E-02
 cg2d: Sum(rhs),rhsMax =   1.81241396890464E-09  1.27978557258312E-02
 cg2d: Sum(rhs),rhsMax =   1.81248399622191E-09  1.27977303120445E-02
 cg2d: Sum(rhs),rhsMax =   1.81254675157838E-09  1.27976056868271E-02
 cg2d: Sum(rhs),rhsMax =   1.81261924914189E-09  1.27974817650627E-02
 cg2d: Sum(rhs),rhsMax =   1.81267442722621E-09  1.27973584590610E-02
 cg2d: Sum(rhs),rhsMax =   1.81274376065410E-09  1.27972356829430E-02
 cg2d: Sum(rhs),rhsMax =   1.81280973565734E-09  1.27971133546503E-02
 cg2d: Sum(rhs),rhsMax =   1.81287193590229E-09  1.27969913866058E-02
 cg2d: Sum(rhs),rhsMax =   1.81293846601704E-09  1.27968696991391E-02
 cg2d: Sum(rhs),rhsMax =   1.81298723256340E-09  1.27967482092931E-02
 cg2d: Sum(rhs),rhsMax =   1.81305356838912E-09  1.27966268417641E-02
 cg2d: Sum(rhs),rhsMax =   1.81311410329954E-09  1.27965055202938E-02
 cg2d: Sum(rhs),rhsMax =   1.81316711644897E-09  1.27963841741933E-02
 cg2d: Sum(rhs),rhsMax =   1.81323145387324E-09  1.27962627330832E-02
 cg2d: Sum(rhs),rhsMax =   1.81330134241264E-09  1.27961411336622E-02
 cg2d: Sum(rhs),rhsMax =   1.81336023974410E-09  1.27960193178233E-02
 cg2d: Sum(rhs),rhsMax =   1.81342091343240E-09  1.27958972280150E-02
 cg2d: Sum(rhs),rhsMax =   1.81347992178615E-09  1.27957748133077E-02
 cg2d: Sum(rhs),rhsMax =   1.81355544470740E-09  1.27956520291410E-02
 cg2d: Sum(rhs),rhsMax =   1.81362377893457E-09  1.27955288338897E-02
 cg2d: Sum(rhs),rhsMax =   1.81369647078711E-09  1.27954051929314E-02
 cg2d: Sum(rhs),rhsMax =   1.81376913488407E-09  1.27952810770331E-02
 cg2d: Sum(rhs),rhsMax =   1.81384460229417E-09  1.27951564604137E-02
 cg2d: Sum(rhs),rhsMax =   1.81391188180946E-09  1.27950313251690E-02
 cg2d: Sum(rhs),rhsMax =   1.81397652454507E-09  1.27949213017932E-02
 cg2d: Sum(rhs),rhsMax =   1.81402462495761E-09  1.27948358976012E-02
 cg2d: Sum(rhs),rhsMax =   1.81408771338099E-09  1.27947500520469E-02
 cg2d: Sum(rhs),rhsMax =   1.81412698752048E-09  1.27946624951492E-02
 cg2d: Sum(rhs),rhsMax =   1.81419662625970E-09  1.27945733988533E-02
 cg2d: Sum(rhs),rhsMax =   1.81425990897210E-09  1.27944826010773E-02
 cg2d: Sum(rhs),rhsMax =   1.81431442092261E-09  1.27943899053330E-02
 cg2d: Sum(rhs),rhsMax =   1.81437315172062E-09  1.27942951337548E-02
 cg2d: Sum(rhs),rhsMax =   1.81443310376395E-09  1.27941981201078E-02
 cg2d: Sum(rhs),rhsMax =   1.81450016123463E-09  1.27940987146198E-02
 cg2d: Sum(rhs),rhsMax =   1.81456069614505E-09  1.27939967788762E-02
 cg2d: Sum(rhs),rhsMax =   1.81460618753349E-09  1.27938921921683E-02
 cg2d: Sum(rhs),rhsMax =   1.81467263438151E-09  1.27937848436504E-02
 cg2d: Sum(rhs),rhsMax =   1.81474485438926E-09  1.27936746436247E-02
 cg2d: Sum(rhs),rhsMax =   1.81482037731051E-09  1.27935615124597E-02
 cg2d: Sum(rhs),rhsMax =   1.81487355699339E-09  1.27934453858730E-02
 cg2d: Sum(rhs),rhsMax =   1.81494824724737E-09  1.27933262190292E-02
 cg2d: Sum(rhs),rhsMax =   1.81501419449503E-09  1.27932039766216E-02
 cg2d: Sum(rhs),rhsMax =   1.81508913454920E-09  1.27930776726129E-02
 cg2d: Sum(rhs),rhsMax =   1.81513698516156E-09  1.27929484094525E-02
 cg2d: Sum(rhs),rhsMax =   1.81521198072687E-09  1.27928160948762E-02
 cg2d: Sum(rhs),rhsMax =   1.81530182552514E-09  1.27926807521390E-02
 cg2d: Sum(rhs),rhsMax =   1.81536541354888E-09  1.27925424345840E-02
 cg2d: Sum(rhs),rhsMax =   1.81541465194002E-09  1.27924011967697E-02
 cg2d: Sum(rhs),rhsMax =   1.81548850952673E-09  1.27922571119303E-02
 cg2d: Sum(rhs),rhsMax =   1.81554335454415E-09  1.27921102617477E-02
 cg2d: Sum(rhs),rhsMax =   1.81561762846449E-09  1.27919607394221E-02
 cg2d: Sum(rhs),rhsMax =   1.81569689838845E-09  1.27918086475213E-02
 cg2d: Sum(rhs),rhsMax =   1.81576484403756E-09  1.27916540993349E-02
 cg2d: Sum(rhs),rhsMax =   1.81582471281416E-09  1.27914972148651E-02
 cg2d: Sum(rhs),rhsMax =   1.81589387970860E-09  1.27913381235084E-02
 cg2d: Sum(rhs),rhsMax =   1.81598266979499E-09  1.27911769616510E-02
 cg2d: Sum(rhs),rhsMax =   1.81606507609899E-09  1.27910138708775E-02
 cg2d: Sum(rhs),rhsMax =   1.81613166172490E-09  1.27908489982410E-02
(PID.TID 0000.0001)      cg2d_init_res =   3.75831026076452E-05
(PID.TID 0000.0001)      cg2d_iters(min,last) =      -1      38
(PID.TID 0000.0001)      cg2d_last_res =   3.83108319259417E-14
(PID.TID 0000.0001) // =======================================================
(PID.TID 0000.0001) // Begin MONITOR dynamic field statistics
(PID.TID 0000.0001) // =======================================================
(PID.TID 0000.0001) %MON time_tsnumber                =                 34560
(PID.TID 0000.0001) %MON time_secondsf                =   8.6400000000000E+05
(PID.TID 0000.0001) %MON dynstat_eta_max              =   4.5433426968672E-03
(PID.TID 0000.0001) %MON dynstat_eta_min              =  -2.2661850122803E-03
(PID.TID 0000.0001) %MON dynstat_eta_mean             =  -1.5556132821637E-13
(PID.TID 0000.0001) %MON dynstat_eta_sd               =   2.2767081153558E-03
(PID.TID 0000.0001) %MON dynstat_eta_del2             =   1.8145585414504E-05
(PID.TID 0000.0001) %MON dynstat_uvel_max             =   4.3142507496955E-02
(PID.TID 0000.0001) %MON dynstat_uvel_min             =  -4.5768120334335E-02
(PID.TID 0000.0001) %MON dynstat_uvel_mean            =   3.1728683268430E-09
(PID.TID 0000.0001) %MON dynstat_uvel_sd              =   6.7671053732933E-03
(PID.TID 0000.0001) %MON dynstat_uvel_del2            =   1.0133649901467E-04
(PID.TID 0000.0001) %MON dynstat_vvel_max             =   2.4086825234315E-02
(PID.TID 0000.0001) %MON dynstat_vvel_min             =  -3.5769169701606E-02
(PID.TID 0000.0001) %MON dynstat_vvel_mean            =  -8.0919746426144E-03
(PID.TID 0000.0001) %MON dynstat_vvel_sd              =   1.1628116659777E-02
(PID.TID 0000.0001) %MON dynstat_vvel_del2            =   9.1564317777928E-05
(PID.TID 0000.0001) %MON dynstat_wvel_max             =   1.3689747718959E-03
(PID.TID 0000.0001) %MON dynstat_wvel_min             =  -1.1643516013361E-03
(PID.TID 0000.0001) %MON dynstat_wvel_mean            =  -2.6263435469782E-21
(PID.TID 0000.0001) %MON dynstat_wvel_sd              =   1.2810747510014E-04
(PID.TID 0000.0001) %MON dynstat_wvel_del2            =   6.6066659314761E-06
(PID.TID 0000.0001) %MON dynstat_theta_max            =   2.6931451612903E+00
(PID.TID 0000.0001) %MON dynstat_theta_min            =  -8.0267459615676E-01
(PID.TID 0000.0001) %MON dynstat_theta_mean           =   2.2170095992112E+00
(PID.TID 0000.0001) %MON dynstat_theta_sd             =   5.4029935709700E-01
(PID.TID 0000.0001) %MON dynstat_theta_del2           =   1.7412941043697E-03
(PID.TID 0000.0001) %MON dynstat_salt_max             =   3.4699999999999E+01
(PID.TID 0000.0001) %MON dynstat_salt_min             =   3.3071828781731E+01
(PID.TID 0000.0001) %MON dynstat_salt_mean            =   3.4363915253695E+01
(PID.TID 0000.0001) %MON dynstat_salt_sd              =   3.2207283661810E-01
(PID.TID 0000.0001) %MON dynstat_salt_del2            =   1.9129899865326E-04
(PID.TID 0000.0001) %MON advcfl_uvel_max              =   2.2884060167168E-03
(PID.TID 0000.0001) %MON advcfl_vvel_max              =   1.7884584850803E-03
(PID.TID 0000.0001) %MON advcfl_wvel_max              =   6.5803045429835E-04
(PID.TID 0000.0001) %MON advcfl_W_hf_max              =   1.4099665658821E-03
(PID.TID 0000.0001) %MON pe_b_mean                    =   4.3247338304204E-08
(PID.TID 0000.0001) %MON ke_max                       =   1.0326433670351E-03
(PID.TID 0000.0001) %MON ke_mean                      =   1.1327839913510E-04
(PID.TID 0000.0001) %MON ke_vol                       =   3.2921708585402E+10
(PID.TID 0000.0001) // =======================================================
(PID.TID 0000.0001) // End MONITOR dynamic field statistics
(PID.TID 0000.0001) // =======================================================
(PID.TID 0000.0001) // =======================================================
(PID.TID 0000.0001) // Begin OBCS MONITOR field statistics
(PID.TID 0000.0001) // =======================================================
(PID.TID 0000.0001) %MON obc_E_uVel_max               =   0.0000000000000E+00
(PID.TID 0000.0001) %MON obc_E_uVel_min               =   0.0000000000000E+00
(PID.TID 0000.0001) %MON obc_E_uVel_mean              =   0.0000000000000E+00
(PID.TID 0000.0001) %MON obc_E_uVel_sd                =   0.0000000000000E+00
(PID.TID 0000.0001) %MON obc_E_uVel_Int               =   0.0000000000000E+00
(PID.TID 0000.0001) %MON obc_N_vVel_max               =  -3.6115799844846E-05
(PID.TID 0000.0001) %MON obc_N_vVel_min               =  -3.0000000000000E-02
(PID.TID 0000.0001) %MON obc_N_vVel_mean              =  -1.3225455303334E-02
(PID.TID 0000.0001) %MON obc_N_vVel_sd                =   1.1350864292742E-02
(PID.TID 0000.0001) %MON obc_N_vVel_Int               =  -5.9514548865004E+04
(PID.TID 0000.0001) %MON obc_S_vVel_max               =  -3.6115799844846E-05
(PID.TID 0000.0001) %MON obc_S_vVel_min               =  -3.0000000000000E-02
(PID.TID 0000.0001) %MON obc_S_vVel_mean              =  -1.3225455303334E-02
(PID.TID 0000.0001) %MON obc_S_vVel_sd                =   1.1350864292742E-02
(PID.TID 0000.0001) %MON obc_S_vVel_Int               =  -5.9514548865004E+04
(PID.TID 0000.0001) // =======================================================
(PID.TID 0000.0001) // End OBCS MONITOR field statistics
(PID.TID 0000.0001) // =======================================================
 Computing Diagnostic #    26 "THETA   " (list#  1) Parms "SMR     MR      ", Count=     144
 Computing Diagnostic #    27 "SALT    " (list#  1) Parms "SMR     MR      ", Count=     144
 Computing Diagnostic #    30 "UVEL    " (list#  1) Parms "UUR     MR      ", Count=     144
             Vector  Mate for "UVEL    " :  Diagnostic #     31 "VVEL    " exists
 Computing Diagnostic #    32 "WVEL    " (list#  1) Parms "WM      LR      ", Count=     144
 Computing Diagnostic #    31 "VVEL    " (list#  1) Parms "VVR     MR      ", Count=     144
             Vector  Mate for "VVEL    " :  Diagnostic #     30 "UVEL    " exists
 Computing Diagnostic #   197 "BRGfwFlx" (list#  2) Parms "SM      MR      ", Count=     144
 Computing Diagnostic #   198 "BRGhtFlx" (list#  2) Parms "SM      MR      ", Count=     144
 Computing Diagnostic #   199 "BRGmltRt" (list#  2) Parms "SM      MR      ", Count=     144
 Computing Diagnostic #   201 "BRG_TauX" (list#  2) Parms "UU      MR      ", Count=    1728
 Computing Diagnostic #   202 "BRG_TauY" (list#  2) Parms "VV      MR      ", Count=    1728
 Computing Diagnostic #   203 "BRGhFacC" (list#  2) Parms "SM      MR      ", Count=    1728
(PID.TID 0000.0001) %CHECKPOINT     34560 0000034560
(PID.TID 0000.0001)   Seconds in section "ALL                    [THE_MODEL_MAIN]":
(PID.TID 0000.0001)           User time:   36.826134661678225
(PID.TID 0000.0001)         System time:  0.95264300284907222
(PID.TID 0000.0001)     Wall clock time:   38.003833055496216
(PID.TID 0000.0001)          No. starts:           1
(PID.TID 0000.0001)           No. stops:           1
(PID.TID 0000.0001)   Seconds in section "INITIALISE_FIXED       [THE_MODEL_MAIN]":
(PID.TID 0000.0001)           User time:   1.1771999765187502E-002
(PID.TID 0000.0001)         System time:   1.6933000646531582E-002
(PID.TID 0000.0001)     Wall clock time:   3.2035112380981445E-002
(PID.TID 0000.0001)          No. starts:           1
(PID.TID 0000.0001)           No. stops:           1
(PID.TID 0000.0001)   Seconds in section "THE_MAIN_LOOP          [THE_MODEL_MAIN]":
(PID.TID 0000.0001)           User time:   36.814346847124398
(PID.TID 0000.0001)         System time:  0.93570100329816341
(PID.TID 0000.0001)     Wall clock time:   37.971779823303223
(PID.TID 0000.0001)          No. starts:           1
(PID.TID 0000.0001)           No. stops:           1
(PID.TID 0000.0001)   Seconds in section "INITIALISE_VARIA    [THE_MAIN_LOOP]":
(PID.TID 0000.0001)           User time:   1.0040011256933212E-003
(PID.TID 0000.0001)         System time:   2.8210002928972244E-003
(PID.TID 0000.0001)     Wall clock time:   4.9800872802734375E-003
(PID.TID 0000.0001)          No. starts:           1
(PID.TID 0000.0001)           No. stops:           1
(PID.TID 0000.0001)   Seconds in section "MAIN LOOP           [THE_MAIN_LOOP]":
(PID.TID 0000.0001)           User time:   36.813334846869111
(PID.TID 0000.0001)         System time:  0.93287798948585987
(PID.TID 0000.0001)     Wall clock time:   37.966788053512573
(PID.TID 0000.0001)          No. starts:           1
(PID.TID 0000.0001)           No. stops:           1
(PID.TID 0000.0001)   Seconds in section "MAIN_DO_LOOP        [THE_MAIN_LOOP]":
(PID.TID 0000.0001)           User time:   36.719780787825584
(PID.TID 0000.0001)         System time:  0.92804269492626190
(PID.TID 0000.0001)     Wall clock time:   37.868657350540161
(PID.TID 0000.0001)          No. starts:       34560
(PID.TID 0000.0001)           No. stops:       34560
(PID.TID 0000.0001)   Seconds in section "FORWARD_STEP        [MAIN_DO_LOOP]":
(PID.TID 0000.0001)           User time:   36.532694637775421
(PID.TID 0000.0001)         System time:  0.91868099011480808
(PID.TID 0000.0001)     Wall clock time:   37.671649217605591
(PID.TID 0000.0001)          No. starts:       34560
(PID.TID 0000.0001)           No. stops:       34560
(PID.TID 0000.0001)   Seconds in section "DO_STATEVARS_DIAGS  [FORWARD_STEP]":
(PID.TID 0000.0001)           User time:  0.49516912363469601
(PID.TID 0000.0001)         System time:   1.4780662953853607E-002
(PID.TID 0000.0001)     Wall clock time:  0.51330685615539551
(PID.TID 0000.0001)          No. starts:      103680
(PID.TID 0000.0001)           No. stops:      103680
(PID.TID 0000.0001)   Seconds in section "LOAD_FIELDS_DRIVER  [FORWARD_STEP]":
(PID.TID 0000.0001)           User time:  0.28598043508827686
(PID.TID 0000.0001)         System time:   1.4325272291898727E-002
(PID.TID 0000.0001)     Wall clock time:  0.30036711692810059
(PID.TID 0000.0001)          No. starts:       34560
(PID.TID 0000.0001)           No. stops:       34560
(PID.TID 0000.0001)   Seconds in section "EXTERNAL_FLDS_LOAD [LOAD_FLDS_DRIVER]":
(PID.TID 0000.0001)           User time:   9.3730261549353600E-002
(PID.TID 0000.0001)         System time:   4.8409327864646912E-003
(PID.TID 0000.0001)     Wall clock time:   9.8461151123046875E-002
(PID.TID 0000.0001)          No. starts:       34560
(PID.TID 0000.0001)           No. stops:       34560
(PID.TID 0000.0001)   Seconds in section "DO_ATMOSPHERIC_PHYS [FORWARD_STEP]":
(PID.TID 0000.0001)           User time:   9.4233075156807899E-002
(PID.TID 0000.0001)         System time:   4.7104917466640472E-003
(PID.TID 0000.0001)     Wall clock time:   9.8878145217895508E-002
(PID.TID 0000.0001)          No. starts:       34560
(PID.TID 0000.0001)           No. stops:       34560
(PID.TID 0000.0001)   Seconds in section "DO_OCEANIC_PHYS     [FORWARD_STEP]":
(PID.TID 0000.0001)           User time:   6.7363470587879419
(PID.TID 0000.0001)         System time:   2.6397196575999260E-002
(PID.TID 0000.0001)     Wall clock time:   6.7788431644439697
(PID.TID 0000.0001)          No. starts:       34560
(PID.TID 0000.0001)           No. stops:       34560
(PID.TID 0000.0001)   Seconds in section "ICEBERG_THERMODYNAMICS [DO_OCEANIC_PHYS]":
(PID.TID 0000.0001)           User time:   5.2614864818751812
(PID.TID 0000.0001)         System time:   1.3288803398609161E-002
(PID.TID 0000.0001)     Wall clock time:   5.2901854515075684
(PID.TID 0000.0001)          No. starts:       34560
(PID.TID 0000.0001)           No. stops:       34560
(PID.TID 0000.0001)   Seconds in section "DYNAMICS            [FORWARD_STEP]":
(PID.TID 0000.0001)           User time:   12.555309150367975
(PID.TID 0000.0001)         System time:   2.5709405541419983E-002
(PID.TID 0000.0001)     Wall clock time:   12.613481760025024
(PID.TID 0000.0001)          No. starts:       34560
(PID.TID 0000.0001)           No. stops:       34560
(PID.TID 0000.0001)   Seconds in section "SOLVE_FOR_PRESSURE  [FORWARD_STEP]":
(PID.TID 0000.0001)           User time:   1.7422595005482435
(PID.TID 0000.0001)         System time:   1.7686933279037476E-002
(PID.TID 0000.0001)     Wall clock time:   1.8001000881195068
(PID.TID 0000.0001)          No. starts:       34560
(PID.TID 0000.0001)           No. stops:       34560
(PID.TID 0000.0001)   Seconds in section "MOM_CORRECTION_STEP [FORWARD_STEP]":
(PID.TID 0000.0001)           User time:  0.36991276033222675
(PID.TID 0000.0001)         System time:   5.4917093366384506E-003
(PID.TID 0000.0001)     Wall clock time:  0.37808489799499512
(PID.TID 0000.0001)          No. starts:       34560
(PID.TID 0000.0001)           No. stops:       34560
(PID.TID 0000.0001)   Seconds in section "INTEGR_CONTINUITY   [FORWARD_STEP]":
(PID.TID 0000.0001)           User time:  0.27821281924843788
(PID.TID 0000.0001)         System time:   5.4129660129547119E-003
(PID.TID 0000.0001)     Wall clock time:  0.28690481185913086
(PID.TID 0000.0001)          No. starts:       34560
(PID.TID 0000.0001)           No. stops:       34560
(PID.TID 0000.0001)   Seconds in section "BLOCKING_EXCHANGES  [FORWARD_STEP]":
(PID.TID 0000.0001)           User time:  0.58689508773386478
(PID.TID 0000.0001)         System time:   1.0291000828146935E-002
(PID.TID 0000.0001)     Wall clock time:  0.60082054138183594
(PID.TID 0000.0001)          No. starts:       69120
(PID.TID 0000.0001)           No. stops:       69120
(PID.TID 0000.0001)   Seconds in section "THERMODYNAMICS      [FORWARD_STEP]":
(PID.TID 0000.0001)           User time:   11.220252595841885
(PID.TID 0000.0001)         System time:   2.2138673812150955E-002
(PID.TID 0000.0001)     Wall clock time:   11.272137165069580
(PID.TID 0000.0001)          No. starts:       34560
(PID.TID 0000.0001)           No. stops:       34560
(PID.TID 0000.0001)   Seconds in section "TRC_CORRECTION_STEP [FORWARD_STEP]":
(PID.TID 0000.0001)           User time:   9.5547843724489212E-002
(PID.TID 0000.0001)         System time:   5.2378121763467789E-003
(PID.TID 0000.0001)     Wall clock time:  0.10037636756896973
(PID.TID 0000.0001)          No. starts:       34560
(PID.TID 0000.0001)           No. stops:       34560
(PID.TID 0000.0001)   Seconds in section "MONITOR             [FORWARD_STEP]":
(PID.TID 0000.0001)           User time:  0.10209511779248714
(PID.TID 0000.0001)         System time:   5.3046364337205887E-003
(PID.TID 0000.0001)     Wall clock time:  0.10738182067871094
(PID.TID 0000.0001)          No. starts:       34560
(PID.TID 0000.0001)           No. stops:       34560
(PID.TID 0000.0001)   Seconds in section "DO_THE_MODEL_IO     [FORWARD_STEP]":
(PID.TID 0000.0001)           User time:  0.16172027215361595
(PID.TID 0000.0001)         System time:  0.64994770288467407
(PID.TID 0000.0001)     Wall clock time:  0.92788648605346680
(PID.TID 0000.0001)          No. starts:       34560
(PID.TID 0000.0001)           No. stops:       34560
(PID.TID 0000.0001)   Seconds in section "DO_WRITE_PICKUP     [FORWARD_STEP]":
(PID.TID 0000.0001)           User time:   9.6162779256701469E-002
(PID.TID 0000.0001)         System time:   1.0997423902153969E-002
(PID.TID 0000.0001)     Wall clock time:  0.11027932167053223
(PID.TID 0000.0001)          No. starts:       34560
(PID.TID 0000.0001)           No. stops:       34560
(PID.TID 0000.0001) // ======================================================
(PID.TID 0000.0001) // Tile <-> Tile communication statistics
(PID.TID 0000.0001) // ======================================================
(PID.TID 0000.0001) // o Tile number: 000001
(PID.TID 0000.0001) //         No. X exchanges =              0
(PID.TID 0000.0001) //            Max. X spins =              0
(PID.TID 0000.0001) //            Min. X spins =     1000000000
(PID.TID 0000.0001) //          Total. X spins =              0
(PID.TID 0000.0001) //            Avg. X spins =       0.00E+00
(PID.TID 0000.0001) //         No. Y exchanges =              0
(PID.TID 0000.0001) //            Max. Y spins =              0
(PID.TID 0000.0001) //            Min. Y spins =     1000000000
(PID.TID 0000.0001) //          Total. Y spins =              0
(PID.TID 0000.0001) //            Avg. Y spins =       0.00E+00
(PID.TID 0000.0001) // o Thread number: 000001
(PID.TID 0000.0001) //            No. barriers =        8364692
(PID.TID 0000.0001) //      Max. barrier spins =              1
(PID.TID 0000.0001) //      Min. barrier spins =              1
(PID.TID 0000.0001) //     Total barrier spins =        8364692
(PID.TID 0000.0001) //      Avg. barrier spins =       1.00E+00
PROGRAM MAIN: Execution ended Normally
