(PID.TID 0000.0001) 
(PID.TID 0000.0001) // ======================================================
(PID.TID 0000.0001) //                      MITgcm UV
(PID.TID 0000.0001) //                      =========
(PID.TID 0000.0001) // ======================================================
(PID.TID 0000.0001) // execution environment starting up...
(PID.TID 0000.0001) 
(PID.TID 0000.0001) // MITgcmUV version:  checkpoint68w
(PID.TID 0000.0001) // Build user:        jm_c
(PID.TID 0000.0001) // Build host:        villon
(PID.TID 0000.0001) // Build date:        Sun Apr 28 23:22:27 EDT 2024
(PID.TID 0000.0001) 
(PID.TID 0000.0001) // =======================================================
(PID.TID 0000.0001) // Execution Environment parameter file "eedata"
(PID.TID 0000.0001) // =======================================================
(PID.TID 0000.0001) ># Example "eedata" file
(PID.TID 0000.0001) ># Lines beginning "#" are comments
(PID.TID 0000.0001) ># nTx - No. threads per process in X
(PID.TID 0000.0001) ># nTy - No. threads per process in Y
(PID.TID 0000.0001) > &EEPARMS
(PID.TID 0000.0001) > nTx=1,
(PID.TID 0000.0001) > nTy=1,
(PID.TID 0000.0001) > /
(PID.TID 0000.0001) ># Note: Some systems use & as the
(PID.TID 0000.0001) ># namelist terminator. Other systems
(PID.TID 0000.0001) ># use a / character (as shown here).
(PID.TID 0000.0001) 
(PID.TID 0000.0001) // =======================================================
(PID.TID 0000.0001) // Computational Grid Specification ( see files "SIZE.h" )
(PID.TID 0000.0001) //                                  ( and "eedata"       )
(PID.TID 0000.0001) // =======================================================
(PID.TID 0000.0001)      nPx =    1 ; /* No. processes in X */
(PID.TID 0000.0001)      nPy =    1 ; /* No. processes in Y */
(PID.TID 0000.0001)      nSx =    3 ; /* No. tiles in X per process */
(PID.TID 0000.0001)      nSy =    2 ; /* No. tiles in Y per process */
(PID.TID 0000.0001)      sNx =   30 ; /* Tile size in X */
(PID.TID 0000.0001)      sNy =   20 ; /* Tile size in Y */
(PID.TID 0000.0001)      OLx =    2 ; /* Tile overlap distance in X */
(PID.TID 0000.0001)      OLy =    2 ; /* Tile overlap distance in Y */
(PID.TID 0000.0001)      nTx =    1 ; /* No. threads in X per process */
(PID.TID 0000.0001)      nTy =    1 ; /* No. threads in Y per process */
(PID.TID 0000.0001)       Nr =   15 ; /* No. levels in the vertical   */
(PID.TID 0000.0001)       Nx =   90 ; /* Total domain size in X ( = nPx*nSx*sNx ) */
(PID.TID 0000.0001)       Ny =   40 ; /* Total domain size in Y ( = nPy*nSy*sNy ) */
(PID.TID 0000.0001)   nTiles =    6 ; /* Total no. tiles per process ( = nSx*nSy ) */
(PID.TID 0000.0001)   nProcs =    1 ; /* Total no. processes ( = nPx*nPy ) */
(PID.TID 0000.0001) nThreads =    1 ; /* Total no. threads per process ( = nTx*nTy ) */
(PID.TID 0000.0001) usingMPI =    F ; /* Flag used to control whether MPI is in use */
(PID.TID 0000.0001)                   /*  note: To execute a program with MPI calls */
(PID.TID 0000.0001)                   /*  it must be launched appropriately e.g     */
(PID.TID 0000.0001)                   /*  "mpirun -np 64 ......"                    */
(PID.TID 0000.0001) useCoupler=   F ; /* Flag used to control communications with   */
(PID.TID 0000.0001)                   /*  other model components, through a coupler */
(PID.TID 0000.0001) useNest2W_parent =    F ;/* Control 2-W Nesting comm */
(PID.TID 0000.0001) useNest2W_child  =    F ;/* Control 2-W Nesting comm */
(PID.TID 0000.0001) debugMode =    F ; /* print debug msg. (sequence of S/R calls)  */
(PID.TID 0000.0001) printMapIncludesZeros=    F ; /* print zeros in Std.Output maps */
(PID.TID 0000.0001) maxLengthPrt1D=   65 /* maxLength of 1D array printed to StdOut */
(PID.TID 0000.0001) 
(PID.TID 0000.0001) // ======================================================
(PID.TID 0000.0001) // Mapping of tiles to threads
(PID.TID 0000.0001) // ======================================================
(PID.TID 0000.0001) // -o- Thread   1, tiles (   1:   3,   1:   2)
(PID.TID 0000.0001) 
(PID.TID 0000.0001) // ======================================================
(PID.TID 0000.0001) // Tile <-> Tile connectvity table
(PID.TID 0000.0001) // ======================================================
(PID.TID 0000.0001) // Tile number: 000001 (process no. = 000000)
(PID.TID 0000.0001) //        WEST: Tile = 000003, Process = 000000, Comm = put
(PID.TID 0000.0001) //                bi = 000003, bj = 000001
(PID.TID 0000.0001) //        EAST: Tile = 000002, Process = 000000, Comm = put
(PID.TID 0000.0001) //                bi = 000002, bj = 000001
(PID.TID 0000.0001) //       SOUTH: Tile = 000004, Process = 000000, Comm = put
(PID.TID 0000.0001) //                bi = 000001, bj = 000002
(PID.TID 0000.0001) //       NORTH: Tile = 000004, Process = 000000, Comm = put
(PID.TID 0000.0001) //                bi = 000001, bj = 000002
(PID.TID 0000.0001) // Tile number: 000002 (process no. = 000000)
(PID.TID 0000.0001) //        WEST: Tile = 000001, Process = 000000, Comm = put
(PID.TID 0000.0001) //                bi = 000001, bj = 000001
(PID.TID 0000.0001) //        EAST: Tile = 000003, Process = 000000, Comm = put
(PID.TID 0000.0001) //                bi = 000003, bj = 000001
(PID.TID 0000.0001) //       SOUTH: Tile = 000005, Process = 000000, Comm = put
(PID.TID 0000.0001) //                bi = 000002, bj = 000002
(PID.TID 0000.0001) //       NORTH: Tile = 000005, Process = 000000, Comm = put
(PID.TID 0000.0001) //                bi = 000002, bj = 000002
(PID.TID 0000.0001) // Tile number: 000003 (process no. = 000000)
(PID.TID 0000.0001) //        WEST: Tile = 000002, Process = 000000, Comm = put
(PID.TID 0000.0001) //                bi = 000002, bj = 000001
(PID.TID 0000.0001) //        EAST: Tile = 000001, Process = 000000, Comm = put
(PID.TID 0000.0001) //                bi = 000001, bj = 000001
(PID.TID 0000.0001) //       SOUTH: Tile = 000006, Process = 000000, Comm = put
(PID.TID 0000.0001) //                bi = 000003, bj = 000002
(PID.TID 0000.0001) //       NORTH: Tile = 000006, Process = 000000, Comm = put
(PID.TID 0000.0001) //                bi = 000003, bj = 000002
(PID.TID 0000.0001) // Tile number: 000004 (process no. = 000000)
(PID.TID 0000.0001) //        WEST: Tile = 000006, Process = 000000, Comm = put
(PID.TID 0000.0001) //                bi = 000003, bj = 000002
(PID.TID 0000.0001) //        EAST: Tile = 000005, Process = 000000, Comm = put
(PID.TID 0000.0001) //                bi = 000002, bj = 000002
(PID.TID 0000.0001) //       SOUTH: Tile = 000001, Process = 000000, Comm = put
(PID.TID 0000.0001) //                bi = 000001, bj = 000001
(PID.TID 0000.0001) //       NORTH: Tile = 000001, Process = 000000, Comm = put
(PID.TID 0000.0001) //                bi = 000001, bj = 000001
(PID.TID 0000.0001) // Tile number: 000005 (process no. = 000000)
(PID.TID 0000.0001) //        WEST: Tile = 000004, Process = 000000, Comm = put
(PID.TID 0000.0001) //                bi = 000001, bj = 000002
(PID.TID 0000.0001) //        EAST: Tile = 000006, Process = 000000, Comm = put
(PID.TID 0000.0001) //                bi = 000003, bj = 000002
(PID.TID 0000.0001) //       SOUTH: Tile = 000002, Process = 000000, Comm = put
(PID.TID 0000.0001) //                bi = 000002, bj = 000001
(PID.TID 0000.0001) //       NORTH: Tile = 000002, Process = 000000, Comm = put
(PID.TID 0000.0001) //                bi = 000002, bj = 000001
(PID.TID 0000.0001) // Tile number: 000006 (process no. = 000000)
(PID.TID 0000.0001) //        WEST: Tile = 000005, Process = 000000, Comm = put
(PID.TID 0000.0001) //                bi = 000002, bj = 000002
(PID.TID 0000.0001) //        EAST: Tile = 000004, Process = 000000, Comm = put
(PID.TID 0000.0001) //                bi = 000001, bj = 000002
(PID.TID 0000.0001) //       SOUTH: Tile = 000003, Process = 000000, Comm = put
(PID.TID 0000.0001) //                bi = 000003, bj = 000001
(PID.TID 0000.0001) //       NORTH: Tile = 000003, Process = 000000, Comm = put
(PID.TID 0000.0001) //                bi = 000003, bj = 000001
(PID.TID 0000.0001) 
(PID.TID 0000.0001)  INI_PARMS: opening model parameter file "data"
(PID.TID 0000.0001)  OPEN_COPY_DATA_FILE: opening file data
(PID.TID 0000.0001) // =======================================================
(PID.TID 0000.0001) // Parameter file "data"
(PID.TID 0000.0001) // =======================================================
(PID.TID 0000.0001) ># ====================
(PID.TID 0000.0001) ># | Model parameters |
(PID.TID 0000.0001) ># ====================
(PID.TID 0000.0001) >#
(PID.TID 0000.0001) ># Continuous equation parameters
(PID.TID 0000.0001) > &PARM01
(PID.TID 0000.0001) > tRef = 15*20.,
(PID.TID 0000.0001) > sRef = 15*35.,
(PID.TID 0000.0001) > viscAr=1.E-3,
(PID.TID 0000.0001) > viscAh=5.E5,
(PID.TID 0000.0001) > diffKhT=0.0,
(PID.TID 0000.0001) > diffKrT=3.E-5,
(PID.TID 0000.0001) > diffKhS=0.0,
(PID.TID 0000.0001) > diffKrS=3.E-5,
(PID.TID 0000.0001) > rhoConst=1035.,
(PID.TID 0000.0001) > rotationPeriod=86400.,
(PID.TID 0000.0001) > gravity=9.81,
(PID.TID 0000.0001) > eosType = 'POLY3',
(PID.TID 0000.0001) > ivdc_kappa=100.,
(PID.TID 0000.0001) > implicitDiffusion=.TRUE.,
(PID.TID 0000.0001) > allowFreezing=.TRUE.,
(PID.TID 0000.0001) > useRealFreshWaterFlux=.TRUE.,
(PID.TID 0000.0001) > useCDscheme=.TRUE.,
(PID.TID 0000.0001) > useNHMTerms=.TRUE.,
(PID.TID 0000.0001) ># turn on looped cells
(PID.TID 0000.0001) > hFacMin=.05,
(PID.TID 0000.0001) > hFacMindr=50.,
(PID.TID 0000.0001) ># set precision of data files
(PID.TID 0000.0001) > readBinaryPrec=32,
(PID.TID 0000.0001) >#- not safe to use globalFiles in multi-processors runs
(PID.TID 0000.0001) >#globalfiles=.TRUE.
(PID.TID 0000.0001) > usesinglecpuio=.TRUE.
(PID.TID 0000.0001) > /
(PID.TID 0000.0001) >
(PID.TID 0000.0001) ># Elliptic solver parameters
(PID.TID 0000.0001) > &PARM02
(PID.TID 0000.0001) > cg2dMaxIters=500,
(PID.TID 0000.0001) > cg2dTargetResidual=1.E-13,
(PID.TID 0000.0001) > /
(PID.TID 0000.0001) >
(PID.TID 0000.0001) ># Time stepping parameters
(PID.TID 0000.0001) > &PARM03
(PID.TID 0000.0001) > nIter0 =      0,
(PID.TID 0000.0001) > nTimeSteps = 20,
(PID.TID 0000.0001) ># 100 years of integration will yield a reasonable flow field
(PID.TID 0000.0001) ># startTime  =          0.,
(PID.TID 0000.0001) ># endTime    = 3110400000.,
(PID.TID 0000.0001) > deltaTmom = 1200.0,
(PID.TID 0000.0001) > tauCD =     321428.,
(PID.TID 0000.0001) > deltaTtracer= 43200.0,
(PID.TID 0000.0001) > deltaTClock = 43200.0,
(PID.TID 0000.0001) ># if you are using a version later than checkpoint45d on the main branch
(PID.TID 0000.0001) ># you can uncomment the following line and increase the time step
(PID.TID 0000.0001) ># deltaTtracer and deltaTClock to 172800.0 as well to speed up the
(PID.TID 0000.0001) ># asynchronous time stepping
(PID.TID 0000.0001) ># deltaTfreesurf = 172800.0,
(PID.TID 0000.0001) > abEps = 0.1,
(PID.TID 0000.0001) > pChkptFreq= 311040000.,
(PID.TID 0000.0001) > dumpFreq=   311040000.,
(PID.TID 0000.0001) > dumpFreq=   864000.,
(PID.TID 0000.0001) > taveFreq=   311040000.,
(PID.TID 0000.0001) > taveFreq=   864000.,
(PID.TID 0000.0001) > monitorFreq=1.,
(PID.TID 0000.0001) > /
(PID.TID 0000.0001) >
(PID.TID 0000.0001) ># Gridding parameters
(PID.TID 0000.0001) > &PARM04
(PID.TID 0000.0001) > usingSphericalPolarGrid=.TRUE.,
(PID.TID 0000.0001) > delR= 50., 70., 100., 140., 190.,
(PID.TID 0000.0001) >       240., 290., 340., 390., 440.,
(PID.TID 0000.0001) >       490., 540., 590., 640., 690.,
(PID.TID 0000.0001) > ygOrigin=-80.,
(PID.TID 0000.0001) > dySpacing=4.,
(PID.TID 0000.0001) > dxSpacing=4.,
(PID.TID 0000.0001) > /
(PID.TID 0000.0001) >
(PID.TID 0000.0001) ># Input datasets
(PID.TID 0000.0001) > &PARM05
(PID.TID 0000.0001) > bathyFile=      'bathymetry.bin',
(PID.TID 0000.0001) > hydrogThetaFile='lev_t.bin',
(PID.TID 0000.0001) > hydrogSaltFile= 'lev_s.bin',
(PID.TID 0000.0001) > /
(PID.TID 0000.0001) 
(PID.TID 0000.0001)  INI_PARMS ; starts to read PARM01
(PID.TID 0000.0001)  INI_PARMS ; read PARM01 : OK
(PID.TID 0000.0001) S/R INI_PARMS: No request for barotropic solver
(PID.TID 0000.0001) S/R INI_PARMS: => Use implicitFreeSurface as default
(PID.TID 0000.0001)  INI_PARMS ; starts to read PARM02
(PID.TID 0000.0001)  INI_PARMS ; read PARM02 : OK
(PID.TID 0000.0001)  INI_PARMS ; starts to read PARM03
(PID.TID 0000.0001)  INI_PARMS ; read PARM03 : OK
(PID.TID 0000.0001)  INI_PARMS ; starts to read PARM04
(PID.TID 0000.0001)  INI_PARMS ; read PARM04 : OK
(PID.TID 0000.0001)  INI_PARMS ; starts to read PARM05
(PID.TID 0000.0001)  INI_PARMS ; read PARM05 : OK
(PID.TID 0000.0001)  INI_PARMS: finished reading file "data"
(PID.TID 0000.0001)  PACKAGES_BOOT: opening data.pkg
(PID.TID 0000.0001)  OPEN_COPY_DATA_FILE: opening file data.pkg
(PID.TID 0000.0001) // =======================================================
(PID.TID 0000.0001) // Parameter file "data.pkg"
(PID.TID 0000.0001) // =======================================================
(PID.TID 0000.0001) ># Packages
(PID.TID 0000.0001) > &PACKAGES
(PID.TID 0000.0001) >  useEXF         = .TRUE.,
(PID.TID 0000.0001) >  useCAL         = .TRUE.,
(PID.TID 0000.0001) >  useGMRedi      = .TRUE.,
(PID.TID 0000.0001) >  useDiagnostics = .TRUE.,
(PID.TID 0000.0001) >  usePROFILES    = .TRUE.,
(PID.TID 0000.0001) > /
(PID.TID 0000.0001) 
(PID.TID 0000.0001)  PACKAGES_BOOT: finished reading data.pkg
(PID.TID 0000.0001)  PACKAGES_BOOT: On/Off package Summary
 --------  pkgs with a standard "usePKG" On/Off switch in "data.pkg":  --------
 pkg/kpp                  compiled but not used ( useKPP                   = F )
 pkg/gmredi               compiled   and   used ( useGMRedi                = T )
 pkg/bbl                  compiled but not used ( useBBL                   = F )
 pkg/cal                  compiled   and   used ( useCAL                   = T )
 pkg/exf                  compiled   and   used ( useEXF                   = T )
 pkg/profiles             compiled   and   used ( usePROFILES              = T )
 pkg/frazil               compiled but not used ( useFRAZIL                = F )
 pkg/diagnostics          compiled   and   used ( useDiagnostics           = T )
 -------- pkgs without standard "usePKG" On/Off switch in "data.pkg":  --------
 pkg/generic_advdiff      compiled   and   used ( useGAD                   = T )
 pkg/mom_common           compiled   and   used ( momStepping              = T )
 pkg/mom_vecinv           compiled but not used ( +vectorInvariantMomentum = F )
 pkg/mom_fluxform         compiled   and   used ( & not vectorInvariantMom = T )
 pkg/cd_code              compiled   and   used ( useCDscheme              = T )
 pkg/monitor              compiled   and   used ( monitorFreq > 0.         = T )
 pkg/timeave              compiled   and   used ( taveFreq > 0.            = T )
 pkg/debug                compiled but not used ( debugMode                = F )
 pkg/rw                   compiled   and   used
 pkg/mdsio                compiled   and   used
(PID.TID 0000.0001)  PACKAGES_BOOT: End of package Summary
(PID.TID 0000.0001) 
(PID.TID 0000.0001) CAL_READPARMS: opening data.cal
(PID.TID 0000.0001)  OPEN_COPY_DATA_FILE: opening file data.cal
(PID.TID 0000.0001) // =======================================================
(PID.TID 0000.0001) // Parameter file "data.cal"
(PID.TID 0000.0001) // =======================================================
(PID.TID 0000.0001) >#
(PID.TID 0000.0001) ># *******************
(PID.TID 0000.0001) ># Calendar Parameters
(PID.TID 0000.0001) ># *******************
(PID.TID 0000.0001) > &CAL_NML
(PID.TID 0000.0001) > TheCalendar='gregorian',
(PID.TID 0000.0001) ># TheCalendar='model',
(PID.TID 0000.0001) > startDate_1=19920101,
(PID.TID 0000.0001) > startDate_2=000000,
(PID.TID 0000.0001) > /
(PID.TID 0000.0001) 
(PID.TID 0000.0001) CAL_READPARMS: finished reading data.cal
(PID.TID 0000.0001) EXF_READPARMS: opening data.exf
(PID.TID 0000.0001)  OPEN_COPY_DATA_FILE: opening file data.exf
(PID.TID 0000.0001) // =======================================================
(PID.TID 0000.0001) // Parameter file "data.exf"
(PID.TID 0000.0001) // =======================================================
(PID.TID 0000.0001) ># *********************
(PID.TID 0000.0001) ># External Forcing Data
(PID.TID 0000.0001) ># *********************
(PID.TID 0000.0001) > &EXF_NML_01
(PID.TID 0000.0001) > exf_iprec         = 32,
(PID.TID 0000.0001) > exf_debugLev      = 3,
(PID.TID 0000.0001) > /
(PID.TID 0000.0001) >
(PID.TID 0000.0001) ># *********************
(PID.TID 0000.0001) > &EXF_NML_02
(PID.TID 0000.0001) >#hfluxstartdate1   = 19920101,
(PID.TID 0000.0001) >#hfluxstartdate2   = 000000,
(PID.TID 0000.0001) > hfluxperiod       = -12.,
(PID.TID 0000.0001) >#
(PID.TID 0000.0001) >#sfluxstartdate1   = 19920101,
(PID.TID 0000.0001) >#sfluxstartdate2   = 000000,
(PID.TID 0000.0001) > sfluxperiod       = -12.,
(PID.TID 0000.0001) >#
(PID.TID 0000.0001) >#ustressstartdate1 = 19920101,
(PID.TID 0000.0001) >#ustressstartdate2 = 000000,
(PID.TID 0000.0001) > ustressperiod     = -12.,
(PID.TID 0000.0001) >#
(PID.TID 0000.0001) >#vstressstartdate1 = 19920101,
(PID.TID 0000.0001) >#vstressstartdate2 = 000000,
(PID.TID 0000.0001) > vstressperiod     = -12.,
(PID.TID 0000.0001) >#
(PID.TID 0000.0001) > climsststartdate1 = 19911216,
(PID.TID 0000.0001) > climsststartdate2 = 000000,
(PID.TID 0000.0001) > climsstperiod     = -1.,
(PID.TID 0000.0001) ># 2 months restoring timescale for temperature
(PID.TID 0000.0001) > climsstTauRelax   = 5184000.,
(PID.TID 0000.0001) >#
(PID.TID 0000.0001) >#climsssstartdate1 = 19920101,
(PID.TID 0000.0001) >#climsssstartdate2 = 000000,
(PID.TID 0000.0001) > climsssperiod     = -12.,
(PID.TID 0000.0001) ># 6 months restoring timescale for salinity
(PID.TID 0000.0001) > climsssTauRelax   = 15552000.,
(PID.TID 0000.0001) >#
(PID.TID 0000.0001) > hfluxfile    = 'ncep_qnet.bin',
(PID.TID 0000.0001) >#sfluxfile    = 'ncep_emp.bin',
(PID.TID 0000.0001) > ustressfile  = 'trenberth_taux.bin',
(PID.TID 0000.0001) > vstressfile  = 'trenberth_tauy.bin',
(PID.TID 0000.0001) > climsstfile  = 'lev_sst_startdec.tmp',
(PID.TID 0000.0001) > climsssfile  = 'lev_sss.bin',
(PID.TID 0000.0001) >#
(PID.TID 0000.0001) > /
(PID.TID 0000.0001) >
(PID.TID 0000.0001) ># *********************
(PID.TID 0000.0001) > &EXF_NML_03
(PID.TID 0000.0001) > /
(PID.TID 0000.0001) >
(PID.TID 0000.0001) ># *********************
(PID.TID 0000.0001) > &EXF_NML_04
(PID.TID 0000.0001) > hflux_lon0    = 2.,
(PID.TID 0000.0001) > hflux_lon_inc = 4.,
(PID.TID 0000.0001) > hflux_lat0    = -78.,
(PID.TID 0000.0001) > hflux_lat_inc = 39*4.,
(PID.TID 0000.0001) > hflux_nlon    = 90,
(PID.TID 0000.0001) > hflux_nlat    = 40,
(PID.TID 0000.0001) >#
(PID.TID 0000.0001) > sflux_lon0    = 2.,
(PID.TID 0000.0001) > sflux_lon_inc = 4.,
(PID.TID 0000.0001) > sflux_lat0    = -78.,
(PID.TID 0000.0001) > sflux_lat_inc = 39*4.,
(PID.TID 0000.0001) > sflux_nlon    = 90,
(PID.TID 0000.0001) > sflux_nlat    = 40,
(PID.TID 0000.0001) >#
(PID.TID 0000.0001) > ustress_lon0    = 0.,
(PID.TID 0000.0001) > ustress_lon_inc = 4.,
(PID.TID 0000.0001) > ustress_lat0    = -78.,
(PID.TID 0000.0001) > ustress_lat_inc = 39*4.,
(PID.TID 0000.0001) > ustress_nlon    = 90,
(PID.TID 0000.0001) > ustress_nlat    = 40,
(PID.TID 0000.0001) >#
(PID.TID 0000.0001) > vstress_lon0    = 2.,
(PID.TID 0000.0001) > vstress_lon_inc = 4.,
(PID.TID 0000.0001) > vstress_lat0    = -80.,
(PID.TID 0000.0001) > vstress_lat_inc = 39*4.,
(PID.TID 0000.0001) > vstress_nlon    = 90,
(PID.TID 0000.0001) > vstress_nlat    = 40,
(PID.TID 0000.0001) >#
(PID.TID 0000.0001) > climsst_lon0    = 2.,
(PID.TID 0000.0001) > climsst_lon_inc = 4.,
(PID.TID 0000.0001) > climsst_lat0    = -78.,
(PID.TID 0000.0001) > climsst_lat_inc = 39*4.,
(PID.TID 0000.0001) > climsst_nlon    = 90,
(PID.TID 0000.0001) > climsst_nlat    = 40,
(PID.TID 0000.0001) >#
(PID.TID 0000.0001) > climsss_lon0    = 2.,
(PID.TID 0000.0001) > climsss_lon_inc = 4.,
(PID.TID 0000.0001) > climsss_lat0    = -78.,
(PID.TID 0000.0001) > climsss_lat_inc = 39*4.,
(PID.TID 0000.0001) > climsss_nlon    = 90,
(PID.TID 0000.0001) > climsss_nlat    = 40,
(PID.TID 0000.0001) >#
(PID.TID 0000.0001) > /
(PID.TID 0000.0001) 
(PID.TID 0000.0001) EXF_READPARMS: reading EXF_NML_01
(PID.TID 0000.0001) EXF_READPARMS: reading EXF_NML_02
(PID.TID 0000.0001) EXF_READPARMS: reading EXF_NML_03
(PID.TID 0000.0001) EXF_READPARMS: reading EXF_NML_04
(PID.TID 0000.0001) EXF_READPARMS: finished reading data.exf
(PID.TID 0000.0001)  GM_READPARMS: opening data.gmredi
(PID.TID 0000.0001)  OPEN_COPY_DATA_FILE: opening file data.gmredi
(PID.TID 0000.0001) // =======================================================
(PID.TID 0000.0001) // Parameter file "data.gmredi"
(PID.TID 0000.0001) // =======================================================
(PID.TID 0000.0001) ># GM+Redi package parameters:
(PID.TID 0000.0001) >
(PID.TID 0000.0001) >#-from MOM :
(PID.TID 0000.0001) ># GM_background_K: 	G & Mc.W  diffusion coefficient
(PID.TID 0000.0001) ># GM_maxSlope    :	max slope of isopycnals
(PID.TID 0000.0001) ># GM_Scrit       :	transition for scaling diffusion coefficient
(PID.TID 0000.0001) ># GM_Sd          :	half width scaling for diffusion coefficient
(PID.TID 0000.0001) ># GM_taper_scheme:	slope clipping or one of the tapering schemes
(PID.TID 0000.0001) ># GM_Kmin_horiz  :	horizontal diffusion minimum value
(PID.TID 0000.0001) >
(PID.TID 0000.0001) >#-Option parameters (needs to "define" options in GMREDI_OPTIONS.h")
(PID.TID 0000.0001) ># GM_isopycK     :	isopycnal diffusion coefficient (default=GM_background_K)
(PID.TID 0000.0001) ># GM_AdvForm     :	turn on GM Advective form       (default=Skew flux form)
(PID.TID 0000.0001) >
(PID.TID 0000.0001) > &GM_PARM01
(PID.TID 0000.0001) >  GM_background_K    = 1.e+3,
(PID.TID 0000.0001) >  GM_taper_scheme    = 'gkw91',
(PID.TID 0000.0001) >  GM_maxSlope        = 1.e-2,
(PID.TID 0000.0001) >  GM_Kmin_horiz      = 50.,
(PID.TID 0000.0001) >  GM_Scrit           = 4.e-3,
(PID.TID 0000.0001) >  GM_Sd              = 1.e-3,
(PID.TID 0000.0001) ># GM_Visbeck_alpha   = 0.,
(PID.TID 0000.0001) ># GM_Visbeck_length  = 2.e+5,
(PID.TID 0000.0001) ># GM_Visbeck_depth   = 1.e+3,
(PID.TID 0000.0001) ># GM_Visbeck_maxval_K= 2.5e+3,
(PID.TID 0000.0001) > /
(PID.TID 0000.0001) >
(PID.TID 0000.0001) >
(PID.TID 0000.0001) 
(PID.TID 0000.0001)  GM_READPARMS: finished reading data.gmredi
(PID.TID 0000.0001) PROFILES_READPARMS: opening data.profiles
(PID.TID 0000.0001)  OPEN_COPY_DATA_FILE: opening file data.profiles
(PID.TID 0000.0001) // =======================================================
(PID.TID 0000.0001) // Parameter file "data.profiles"
(PID.TID 0000.0001) // =======================================================
(PID.TID 0000.0001) > &PROFILES_NML
(PID.TID 0000.0001) > profilesfiles(1)= 'prof_exemple',
(PID.TID 0000.0001) > /
(PID.TID 0000.0001) 
(PID.TID 0000.0001) PROFILES_READPARMS: finished reading data.profiles
(PID.TID 0000.0001)  DIAGNOSTICS_READPARMS: opening data.diagnostics
(PID.TID 0000.0001)  OPEN_COPY_DATA_FILE: opening file data.diagnostics
(PID.TID 0000.0001) // =======================================================
(PID.TID 0000.0001) // Parameter file "data.diagnostics"
(PID.TID 0000.0001) // =======================================================
(PID.TID 0000.0001) ># Diagnostic Package Choices
(PID.TID 0000.0001) >#--------------------
(PID.TID 0000.0001) >#  dumpAtLast (logical): always write output at the end of simulation (default=F)
(PID.TID 0000.0001) >#  diag_mnc   (logical): write to NetCDF files (default=useMNC)
(PID.TID 0000.0001) >#--for each output-stream:
(PID.TID 0000.0001) >#  fileName(n) : prefix of the output file name (max 80c long) for outp.stream n
(PID.TID 0000.0001) >#  frequency(n):< 0 : write snap-shot output every |frequency| seconds
(PID.TID 0000.0001) >#               > 0 : write time-average output every frequency seconds
(PID.TID 0000.0001) >#  timePhase(n)     : write at time = timePhase + multiple of |frequency|
(PID.TID 0000.0001) >#    averagingFreq  : frequency (in s) for periodic averaging interval
(PID.TID 0000.0001) >#    averagingPhase : phase     (in s) for periodic averaging interval
(PID.TID 0000.0001) >#    repeatCycle    : number of averaging intervals in 1 cycle
(PID.TID 0000.0001) >#  levels(:,n) : list of levels to write to file (Notes: declared as REAL)
(PID.TID 0000.0001) >#                when this entry is missing, select all common levels of this list
(PID.TID 0000.0001) >#  fields(:,n) : list of selected diagnostics fields (8.c) in outp.stream n
(PID.TID 0000.0001) >#                (see "available_diagnostics.log" file for the full list of diags)
(PID.TID 0000.0001) >#  missing_value(n) : missing value for real-type fields in output file "n"
(PID.TID 0000.0001) >#  fileFlags(n)     : specific code (8c string) for output file "n"
(PID.TID 0000.0001) >#--------------------
(PID.TID 0000.0001) ># This example dumps EXF diagnostics as snapshot after 30 days
(PID.TID 0000.0001) > &DIAGNOSTICS_LIST
(PID.TID 0000.0001) >  fields(1:4,1) = 'EXFtaux ','EXFtauy ','EXFqnet ','EXFempmr',
(PID.TID 0000.0001) >   fileName(1) = 'diagsEXF',
(PID.TID 0000.0001) >  frequency(1) = -864000.,
(PID.TID 0000.0001) >  fields(1:2,2)  = 'THETA   ','SALT    ',
(PID.TID 0000.0001) >   levels(1,2) = 1.,
(PID.TID 0000.0001) >   fileName(2) = 'diagSurf',
(PID.TID 0000.0001) >  frequency(2) = -864000.,
(PID.TID 0000.0001) >  fields(1:2,3)  = 'UVEL    ', 'VVEL    ',
(PID.TID 0000.0001) >   levels(1,3) = 2.,
(PID.TID 0000.0001) >   fileName(3) = 'diag_vel_k2',
(PID.TID 0000.0001) >  frequency(3) = -864000.,
(PID.TID 0000.0001) > /
(PID.TID 0000.0001) >
(PID.TID 0000.0001) >#--------------------
(PID.TID 0000.0001) ># Parameter for Diagnostics of per level statistics:
(PID.TID 0000.0001) >#--------------------
(PID.TID 0000.0001) >#  diagSt_mnc (logical): write stat-diags to NetCDF files (default=diag_mnc)
(PID.TID 0000.0001) >#  diagSt_regMaskFile : file containing the region-mask to read-in
(PID.TID 0000.0001) >#  nSetRegMskFile   : number of region-mask sets within the region-mask file
(PID.TID 0000.0001) >#  set_regMask(i)   : region-mask set-index that identifies the region "i"
(PID.TID 0000.0001) >#  val_regMask(i)   : region "i" identifier value in the region mask
(PID.TID 0000.0001) >#--for each output-stream:
(PID.TID 0000.0001) >#  stat_fName(n) : prefix of the output file name (max 80c long) for outp.stream n
(PID.TID 0000.0001) >#  stat_freq(n):< 0 : write snap-shot output every |stat_freq| seconds
(PID.TID 0000.0001) >#               > 0 : write time-average output every stat_freq seconds
(PID.TID 0000.0001) >#  stat_phase(n)    : write at time = stat_phase + multiple of |stat_freq|
(PID.TID 0000.0001) >#  stat_region(:,n) : list of "regions" (default: 1 region only=global)
(PID.TID 0000.0001) >#  stat_fields(:,n) : list of selected diagnostics fields (8.c) in outp.stream n
(PID.TID 0000.0001) >#                (see "available_diagnostics.log" file for the full list of diags)
(PID.TID 0000.0001) >#--------------------
(PID.TID 0000.0001) > &DIAG_STATIS_PARMS
(PID.TID 0000.0001) >#stat_fields(1:5,1)  = 'ETAN    ','UVEL    ','VVEL    ','WVEL    ', 'THETA   ',
(PID.TID 0000.0001) ># stat_fName(1) = 'dynStDiag',
(PID.TID 0000.0001) >#  stat_freq(1) = -864000.,
(PID.TID 0000.0001) ># stat_phase(1) = 0.,
(PID.TID 0000.0001) > /
(PID.TID 0000.0001) 
(PID.TID 0000.0001) S/R DIAGNOSTICS_READPARMS, read namelist "diagnostics_list": start
(PID.TID 0000.0001) S/R DIAGNOSTICS_READPARMS, read namelist "diagnostics_list": OK
(PID.TID 0000.0001) S/R DIAGNOSTICS_READPARMS, read namelist "DIAG_STATIS_PARMS": start
(PID.TID 0000.0001) S/R DIAGNOSTICS_READPARMS, read namelist "DIAG_STATIS_PARMS": OK
(PID.TID 0000.0001)  DIAGNOSTICS_READPARMS: global parameter summary:
(PID.TID 0000.0001)  dumpAtLast = /* always write time-ave diags at the end */
(PID.TID 0000.0001)                   F
(PID.TID 0000.0001)     ;
(PID.TID 0000.0001)  diag_mnc =   /* write NetCDF output files */
(PID.TID 0000.0001)                   F
(PID.TID 0000.0001)     ;
(PID.TID 0000.0001)  useMissingValue = /* put MissingValue where mask = 0 */
(PID.TID 0000.0001)                   F
(PID.TID 0000.0001)     ;
(PID.TID 0000.0001)  diagCG_maxIters = /* max number of iters in diag_cg2d */
(PID.TID 0000.0001)                     500
(PID.TID 0000.0001)     ;
(PID.TID 0000.0001)  diagCG_resTarget = /* residual target for diag_cg2d */
(PID.TID 0000.0001)                 1.000000000000000E-13
(PID.TID 0000.0001)     ;
(PID.TID 0000.0001)  diagCG_pcOffDFac = /* preconditioner off-diagonal factor */
(PID.TID 0000.0001)                 9.611687812379854E-01
(PID.TID 0000.0001)     ;
(PID.TID 0000.0001) -----------------------------------------------------
(PID.TID 0000.0001)  DIAGNOSTICS_READPARMS: active diagnostics summary:
(PID.TID 0000.0001) -----------------------------------------------------
(PID.TID 0000.0001) Creating Output Stream: diagsEXF
(PID.TID 0000.0001) Output Frequency:    -864000.000000 ; Phase:      432000.000000
(PID.TID 0000.0001)  Averaging Freq.:          0.000000 , Phase:           0.000000 , Cycle:   1
(PID.TID 0000.0001)  missing value: -9.990000000000E+02
(PID.TID 0000.0001)  Levels:    will be set later
(PID.TID 0000.0001)  Fields:    EXFtaux  EXFtauy  EXFqnet  EXFempmr
(PID.TID 0000.0001) Creating Output Stream: diagSurf
(PID.TID 0000.0001) Output Frequency:    -864000.000000 ; Phase:      432000.000000
(PID.TID 0000.0001)  Averaging Freq.:          0.000000 , Phase:           0.000000 , Cycle:   1
(PID.TID 0000.0001)  missing value: -9.990000000000E+02
(PID.TID 0000.0001)  Levels:       1.
(PID.TID 0000.0001)  Fields:    THETA    SALT
(PID.TID 0000.0001) Creating Output Stream: diag_vel_k2
(PID.TID 0000.0001) Output Frequency:    -864000.000000 ; Phase:      432000.000000
(PID.TID 0000.0001)  Averaging Freq.:          0.000000 , Phase:           0.000000 , Cycle:   1
(PID.TID 0000.0001)  missing value: -9.990000000000E+02
(PID.TID 0000.0001)  Levels:       2.
(PID.TID 0000.0001)  Fields:    UVEL     VVEL
(PID.TID 0000.0001) -----------------------------------------------------
(PID.TID 0000.0001)  DIAGNOSTICS_READPARMS: statistics diags. summary:
(PID.TID 0000.0001) -----------------------------------------------------
(PID.TID 0000.0001) 
(PID.TID 0000.0001) SET_PARMS: done
(PID.TID 0000.0001) Enter INI_VERTICAL_GRID: setInterFDr=    T ; setCenterDr=    F
(PID.TID 0000.0001) %MON XC_max                       =   3.5800000000000E+02
(PID.TID 0000.0001) %MON XC_min                       =   2.0000000000000E+00
(PID.TID 0000.0001) %MON XC_mean                      =   1.8000000000000E+02
(PID.TID 0000.0001) %MON XC_sd                        =   1.0391663325314E+02
(PID.TID 0000.0001) %MON XG_max                       =   3.5600000000000E+02
(PID.TID 0000.0001) %MON XG_min                       =   0.0000000000000E+00
(PID.TID 0000.0001) %MON XG_mean                      =   1.7800000000000E+02
(PID.TID 0000.0001) %MON XG_sd                        =   1.0391663325314E+02
(PID.TID 0000.0001) %MON DXC_max                      =   4.4443898815675E+05
(PID.TID 0000.0001) %MON DXC_min                      =   9.2460385861875E+04
(PID.TID 0000.0001) %MON DXC_mean                     =   3.1372497618153E+05
(PID.TID 0000.0001) %MON DXC_sd                       =   1.1216447457560E+05
(PID.TID 0000.0001) %MON DXF_max                      =   4.4443898815675E+05
(PID.TID 0000.0001) %MON DXF_min                      =   9.2460385861875E+04
(PID.TID 0000.0001) %MON DXF_mean                     =   3.1372497618153E+05
(PID.TID 0000.0001) %MON DXF_sd                       =   1.1216447457560E+05
(PID.TID 0000.0001) %MON DXG_max                      =   4.4470989340816E+05
(PID.TID 0000.0001) %MON DXG_min                      =   7.7223062580781E+04
(PID.TID 0000.0001) %MON DXG_mean                     =   3.1353386340261E+05
(PID.TID 0000.0001) %MON DXG_sd                       =   1.1256651772502E+05
(PID.TID 0000.0001) %MON DXV_max                      =   4.4470989340816E+05
(PID.TID 0000.0001) %MON DXV_min                      =   7.7223062580781E+04
(PID.TID 0000.0001) %MON DXV_mean                     =   3.1353386340261E+05
(PID.TID 0000.0001) %MON DXV_sd                       =   1.1256651772502E+05
(PID.TID 0000.0001) %MON YC_max                       =   7.8000000000000E+01
(PID.TID 0000.0001) %MON YC_min                       =  -7.8000000000000E+01
(PID.TID 0000.0001) %MON YC_mean                      =   0.0000000000000E+00
(PID.TID 0000.0001) %MON YC_sd                        =   4.6173585522461E+01
(PID.TID 0000.0001) %MON YG_max                       =   7.6000000000000E+01
(PID.TID 0000.0001) %MON YG_min                       =  -8.0000000000000E+01
(PID.TID 0000.0001) %MON YG_mean                      =  -2.0000000000000E+00
(PID.TID 0000.0001) %MON YG_sd                        =   4.6173585522461E+01
(PID.TID 0000.0001) %MON DYC_max                      =   4.4470989340816E+05
(PID.TID 0000.0001) %MON DYC_min                      =   4.4470989340816E+05
(PID.TID 0000.0001) %MON DYC_mean                     =   4.4470989340815E+05
(PID.TID 0000.0001) %MON DYC_sd                       =   3.8417056202888E-09
(PID.TID 0000.0001) %MON DYF_max                      =   4.4470989340816E+05
(PID.TID 0000.0001) %MON DYF_min                      =   4.4470989340816E+05
(PID.TID 0000.0001) %MON DYF_mean                     =   4.4470989340815E+05
(PID.TID 0000.0001) %MON DYF_sd                       =   3.8417056202888E-09
(PID.TID 0000.0001) %MON DYG_max                      =   4.4470989340816E+05
(PID.TID 0000.0001) %MON DYG_min                      =   4.4470989340816E+05
(PID.TID 0000.0001) %MON DYG_mean                     =   4.4470989340815E+05
(PID.TID 0000.0001) %MON DYG_sd                       =   3.8417056202888E-09
(PID.TID 0000.0001) %MON DYU_max                      =   4.4470989340816E+05
(PID.TID 0000.0001) %MON DYU_min                      =   4.4470989340816E+05
(PID.TID 0000.0001) %MON DYU_mean                     =   4.4470989340815E+05
(PID.TID 0000.0001) %MON DYU_sd                       =   3.8417056202888E-09
(PID.TID 0000.0001) %MON RA_max                       =   1.9760627980089E+11
(PID.TID 0000.0001) %MON RA_min                       =   4.1109698667290E+10
(PID.TID 0000.0001) %MON RA_mean                      =   1.3948826965196E+11
(PID.TID 0000.0001) %MON RA_sd                        =   4.9870522472902E+10
(PID.TID 0000.0001) %MON RAW_max                      =   1.9760627980089E+11
(PID.TID 0000.0001) %MON RAW_min                      =   4.1109698667290E+10
(PID.TID 0000.0001) %MON RAW_mean                     =   1.3948826965196E+11
(PID.TID 0000.0001) %MON RAW_sd                       =   4.9870522472902E+10
(PID.TID 0000.0001) %MON RAS_max                      =   1.9772672958215E+11
(PID.TID 0000.0001) %MON RAS_min                      =   3.4334886267983E+10
(PID.TID 0000.0001) %MON RAS_mean                     =   1.3940329716694E+11
(PID.TID 0000.0001) %MON RAS_sd                       =   5.0049278732353E+10
(PID.TID 0000.0001) %MON RAZ_max                      =   1.9772672958215E+11
(PID.TID 0000.0001) %MON RAZ_min                      =   3.4334886267983E+10
(PID.TID 0000.0001) %MON RAZ_mean                     =   1.3940329716694E+11
(PID.TID 0000.0001) %MON RAZ_sd                       =   5.0049278732353E+10
(PID.TID 0000.0001) %MON AngleCS_max                  =   1.0000000000000E+00
(PID.TID 0000.0001) %MON AngleCS_min                  =   1.0000000000000E+00
(PID.TID 0000.0001) %MON AngleCS_mean                 =   1.0000000000000E+00
(PID.TID 0000.0001) %MON AngleCS_sd                   =   0.0000000000000E+00
(PID.TID 0000.0001) %MON AngleSN_max                  =   0.0000000000000E+00
(PID.TID 0000.0001) %MON AngleSN_min                  =   0.0000000000000E+00
(PID.TID 0000.0001) %MON AngleSN_mean                 =   0.0000000000000E+00
(PID.TID 0000.0001) %MON AngleSN_sd                   =   0.0000000000000E+00
(PID.TID 0000.0001)  MDS_READ_FIELD: opening global file: bathymetry.bin
(PID.TID 0000.0001) // =======================================================
(PID.TID 0000.0001) // Field Model R_low (ini_masks_etc)
(PID.TID 0000.0001) // CMIN =         -5.200000000000000E+03
(PID.TID 0000.0001) // CMAX =         -1.200000000000000E+02
(PID.TID 0000.0001) // CINT =          1.881481481481482E+02
(PID.TID 0000.0001) // SYMBOLS (CMIN->CMAX): -abcdefghijklmnopqrstuvwxyz+
(PID.TID 0000.0001) //                  0.0: .
(PID.TID 0000.0001) // RANGE I (Lo:Hi:Step):(    -1:    92:     1)
(PID.TID 0000.0001) // RANGE J (Lo:Hi:Step):(    42:    -1:    -1)
(PID.TID 0000.0001) // RANGE K (Lo:Hi:Step):(   1:   1:   1)
(PID.TID 0000.0001) // =======================================================
(PID.TID 0000.0001) K =   1
(PID.TID 0000.0001) //                I=8       I=18      I=28      I=34      I=44      I=54      I=60      I=70      I=80      I=90
(PID.TID 0000.0001) // |--J--|101234567|901234567|901234567|901290123|567890123|567890123|567890129|123456789|123456789|123456789|12
(PID.TID 0000.0001) //     42 ................................................zyxxmgfeeefefgimnpwwnpwwwy..+zyy.....yyyyoiiihhz+.....
(PID.TID 0000.0001) //     41 ......................................................................................................
(PID.TID 0000.0001) //     40 qlloqz+.++++zzz++++++..........................................................................+++qllo
(PID.TID 0000.0001) //     39 slloorzzzzzzzzz+...++.............................................................yxxz........+zvusllo
(PID.TID 0000.0001) //     38 mqpporzzzzzz+++...................................................................zxxy+......zyyvsmqpp
(PID.TID 0000.0001) //     37 mmmuz..........................................................................++...zy+...yttyy.+smmmu
(PID.TID 0000.0001) //     36 utt+.............................................mm++........................+++++++znmm.yoowssvuyutt+
(PID.TID 0000.0001) //     35 ++++.....................................+zzz..rrmmkk+...+gghn...............+++....+nmiijlsoopuww++++
(PID.TID 0000.0001) //     34 .........................................+vvy.ggqyxv+y.ccdffhim......................+nihhikkihhm+....
(PID.TID 0000.0001) //     33 +.........................................uuz---h------aaabdefin+...+.................zqvddflifffw+...
(PID.TID 0000.0001) //     32 +.........................................+t----h---------acdfgnn...n................+++gdffkofffm+...
(PID.TID 0000.0001) //     31 ..........................................-----ad--------abddegil...l..............qbaafccdhqqgddm....
(PID.TID 0000.0001) //     30 .........................................f----b--b------------abd...d............zfbb--fbcdosjfddi....
(PID.TID 0000.0001) //     29 .......................................tu----e---fjg----------abdf..df...........eaac--abfmijaadgi....
(PID.TID 0000.0001) //     28 .................................+...+xfl-------------------bdedefi.efi.........qbaa---aemfbbaaejz....
(PID.TID 0000.0001) //     27 ................xx..............+w..+wfgfpf--------eallc---bbbccefgiefgi...+++x.qb-----akfa---ah......
(PID.TID 0000.0001) //     26 ................xnn...........+vd-+vd---dna------a--aicfna---aabdfghdfghku.++xssuy-----bgca---ci......
(PID.TID 0000.0001) //     25 ................iiik...oo+...+ivd-ivd---doaa-bc--ilglf--aa---aabcghhcghhkll...ssum+xaaacjbaabdjk......
(PID.TID 0000.0001) //     24 ..............xnheeft.kkk+...uii.aii.aagdm----aa-----a-------bbbcdefcdefjljjju.zummwwbbchba--abi......
(PID.TID 0000.0001) //     23 ..............xgheefp.iikw...uuw..uw..fihi----fed-----eaaa--bbbbcdffcdfflkjiiiq....zykccefa--abd......
(PID.TID 0000.0001) //     22 uss...........bbelffslffkk...zz.wqz.wqkeeqoheccdfa-----egabaabcdddegddegghliiiqq......xeeehheehccquss.
(PID.TID 0000.0001) //     21 bbeir........nbbcdjhqdddiiz.....wq..wqfeelgghmedea-----bibbcddddddefddefghklnqoo........ieeflhgcccbbei
(PID.TID 0000.0001) //     20 bbder.......ldcccdgkccccidd......z...z.vkkktqqhegg----aaacddddddddefddefghkiiijl.........nhfa--gfcbbde
(PID.TID 0000.0001) //     19 cdaaf.......kddosggpaaaibbccx...+z..+z+.....r+nlec---agaaabcddccddefddefikfgffff...........d---cjhcdaa
(PID.TID 0000.0001) //     22 uss...........bbelffslffkk...zz.wqz.wqkeeqoheccdfa-----egabaabcdddegddegghliiiqq......xeeehheehccquss.
(PID.TID 0000.0001) //     21 bbeir........nbbcdjhqdddiiz.....wq..wqfeelgghmedea-----bibbcddddddefddefghklnqoo........ieeflhgcccbbei
(PID.TID 0000.0001) //     20 bbder.......ldcccdgkccccidd......z...z.vkkktqqhegg----aaacddddddddefddefghkiiijl.........nhfa--gfcbbde
(PID.TID 0000.0001) //     19 cdaaf.......kddosggpaaaibbccx...+z..+z+.....r+nlec---agaaabcddccddefddefikfgffff...........d---cjhcdaa
(PID.TID 0000.0001) //     18 d---d.......kglggvliaaaibbcaaeaiv+aiv++...qqzolhecccfdgkaabcdfccdeeideeikgfgffdd+..........d---djhd---
(PID.TID 0000.0001) //     17 c---c.......l.feewlfaaaoaa----aiv.aiv.....qqnllslmlofcdbaacceffffhhlfhhligfigeddj.........hd---ckhc---
(PID.TID 0000.0001) //     16 ba--c......tn.ddgnlfdaaqa-----lv..lv.......vnllvllnwv--accivomfffhilfhilhgfffeddjf........re--aeigba--
(PID.TID 0000.0001) //     15 b--dpz....+ll.ccdfhmdddlc----av...v.........otsxoomv---abccddfihgijkgijkhgfffeejfff......+fd---ckfb--d
(PID.TID 0000.0001) //     14 c--mcl....weeqbaafilkfend--eagy...y.........hhstofft----aacdheefijkmijkmjhhjijiffff.....zlfdaaadlfc--m
(PID.TID 0000.0001) //     13 cclbbg....nccobaaiddgkffqrqeaal...l.........eeutqfft------aaceeffhijfhijlkjhhigfffq....+jgfodccflhcclb
(PID.TID 0000.0001) //     12 hgaaacw+iiicclemhdddfliigfdcaabfaabfaaaz....ccsurqpc--------abcifffifffikiiihhggff.....kbbbdfffglhhgaa
(PID.TID 0000.0001) //     11 gcaaacbbifccennhbbdefnihgfdccaaaa-aaa----..dcccnt.ncab-------aabcdficdfilhggjiggff....l---abcefjlkgcaa
(PID.TID 0000.0001) //     10 fcaaccbdaacfrllfbbdegkmmljhfdddba-dba----d.dcccfx.nyrebaba----abcdgicdgilhfeegijgi..+w--aa-abcfilkfcaa
(PID.TID 0000.0001) //      9 ffcdcccaaaoqsolfdeehikihhlllgfedccedcccccdmdcccf.vyfaaaaaaaa--abdehmdehmjhfeeefglv.++w-----abcdfklffcd
(PID.TID 0000.0001) //      8 iffjklcaafddffeeccvznkfffhhhlkjifgjifgjkkfeeddfsyvcaaaaaaccdcccdfgjlfgjligedbbceg+.++xffn--cfddefliffj
(PID.TID 0000.0001) //      7 mqnnbbkkf--bmbaabbgtykfddeffeeddccddccdfhlffeelfbaaaaaacddeghgjgjllijlligeddaaabedfiiiiiisvkfkecchmqnn
(PID.TID 0000.0001) //      6 ca-------------aabcelttdddedddddccddccccdfkkiiffbaaaabcdgimmkmefecaaecaaabbbaaabbdfiiiiispmmregifcca--
(PID.TID 0000.0001) //      5 -------a-------aaccehhhiddeddddddcdddcccdfiikomodddefffmlmigedccaaaaaaaaaaaababbbdfiijsqgeccccbaa-----
(PID.TID 0000.0001) //      4 -ahebaabbbbbeihffgijiiiijpywnnpokkpokkomkiiijmmmolkommmgffeeedccaaaaaaaaaabbcccefhmz..yjgeccccbaa--ahe
(PID.TID 0000.0001) //      3 ffhhrpjiiwyy................................yxotmjjjjgfeeeeeeddeffffffffheddeghjkyy..yqjgeddccdbbgffhh
(PID.TID 0000.0001) //      2 ................................................zyxxmgfeeefefgimnpwwnpwwwy..+zyy.....yyyyoiiihhz+.....
(PID.TID 0000.0001) //      1 ......................................................................................................
(PID.TID 0000.0001) //      0 qlloqz+.++++zzz++++++..........................................................................+++qllo
(PID.TID 0000.0001) //     -1 slloorzzzzzzzzz+...++.............................................................yxxz........+zvusllo
(PID.TID 0000.0001) // =======================================================
(PID.TID 0000.0001) // END OF FIELD                                          =
(PID.TID 0000.0001) // =======================================================
(PID.TID 0000.0001) 
(PID.TID 0000.0001) // =======================================================
(PID.TID 0000.0001) // Field Model Ro_surf (ini_masks_etc)
(PID.TID 0000.0001) // CMIN =          1.000000000000000E+32
(PID.TID 0000.0001) // CMAX =         -1.000000000000000E+32
(PID.TID 0000.0001) // CINT =          0.000000000000000E+00
(PID.TID 0000.0001) // SYMBOLS (CMIN->CMAX): -abcdefghijklmnopqrstuvwxyz+
(PID.TID 0000.0001) //                  0.0: .
(PID.TID 0000.0001) // RANGE I (Lo:Hi:Step):(    -1:    92:     1)
(PID.TID 0000.0001) // RANGE J (Lo:Hi:Step):(    42:    -1:    -1)
(PID.TID 0000.0001) // RANGE K (Lo:Hi:Step):(   1:   1:   1)
(PID.TID 0000.0001) // =======================================================
(PID.TID 0000.0001) // =======================================================
(PID.TID 0000.0001) // END OF FIELD                                          =
(PID.TID 0000.0001) // =======================================================
(PID.TID 0000.0001) 
(PID.TID 0000.0001) // =======================================================
(PID.TID 0000.0001) // Field hFacC at iteration          0
(PID.TID 0000.0001) // CMIN =          1.000000000000000E+00
(PID.TID 0000.0001) // CMAX =          1.000000000000000E+00
(PID.TID 0000.0001) // CINT =          0.000000000000000E+00
(PID.TID 0000.0001) // SYMBOLS (CMIN->CMAX): -abcdefghijklmnopqrstuvwxyz+
(PID.TID 0000.0001) //                  0.0: .
(PID.TID 0000.0001) // RANGE I (Lo:Hi:Step):(    -1:    92:     1)
(PID.TID 0000.0001) // RANGE J (Lo:Hi:Step):(    42:    -1:    -1)
(PID.TID 0000.0001) // RANGE K (Lo:Hi:Step):(   1:   1:   1)
(PID.TID 0000.0001) // =======================================================
(PID.TID 0000.0001) // =======================================================
(PID.TID 0000.0001) // END OF FIELD                                          =
(PID.TID 0000.0001) // =======================================================
(PID.TID 0000.0001) 
(PID.TID 0000.0001) // =======================================================
(PID.TID 0000.0001) // Field hFacW at iteration          0
(PID.TID 0000.0001) // CMIN =          1.000000000000000E+00
(PID.TID 0000.0001) // CMAX =          1.000000000000000E+00
(PID.TID 0000.0001) // CINT =          0.000000000000000E+00
(PID.TID 0000.0001) // SYMBOLS (CMIN->CMAX): -abcdefghijklmnopqrstuvwxyz+
(PID.TID 0000.0001) //                  0.0: .
(PID.TID 0000.0001) // RANGE I (Lo:Hi:Step):(    -1:    92:     1)
(PID.TID 0000.0001) // RANGE J (Lo:Hi:Step):(    42:    -1:    -1)
(PID.TID 0000.0001) // RANGE K (Lo:Hi:Step):(   1:   1:   1)
(PID.TID 0000.0001) // =======================================================
(PID.TID 0000.0001) // =======================================================
(PID.TID 0000.0001) // END OF FIELD                                          =
(PID.TID 0000.0001) // =======================================================
(PID.TID 0000.0001) 
(PID.TID 0000.0001) // =======================================================
(PID.TID 0000.0001) // Field hFacS at iteration          0
(PID.TID 0000.0001) // CMIN =          1.000000000000000E+00
(PID.TID 0000.0001) // CMAX =          1.000000000000000E+00
(PID.TID 0000.0001) // CINT =          0.000000000000000E+00
(PID.TID 0000.0001) // SYMBOLS (CMIN->CMAX): -abcdefghijklmnopqrstuvwxyz+
(PID.TID 0000.0001) //                  0.0: .
(PID.TID 0000.0001) // RANGE I (Lo:Hi:Step):(    -1:    92:     1)
(PID.TID 0000.0001) // RANGE J (Lo:Hi:Step):(    42:    -1:    -1)
(PID.TID 0000.0001) // RANGE K (Lo:Hi:Step):(   1:   1:   1)
(PID.TID 0000.0001) // =======================================================
(PID.TID 0000.0001) // =======================================================
(PID.TID 0000.0001) // END OF FIELD                                          =
(PID.TID 0000.0001) // =======================================================
(PID.TID 0000.0001) 
(PID.TID 0000.0001) 
(PID.TID 0000.0001) // =======================================================
(PID.TID 0000.0001) // Calendar configuration >>> START <<<
(PID.TID 0000.0001) // =======================================================
(PID.TID 0000.0001) 
(PID.TID 0000.0001) modelstart = /* Start time of the model integration [s] */
(PID.TID 0000.0001)                 0.000000000000000E+00
(PID.TID 0000.0001)     ;
(PID.TID 0000.0001) modelend  = /* End time of the model integration [s] */
(PID.TID 0000.0001)                 8.640000000000000E+05
(PID.TID 0000.0001)     ;
(PID.TID 0000.0001) modelStep = /* Time interval for a model forward step [s] */
(PID.TID 0000.0001)                 4.320000000000000E+04
(PID.TID 0000.0001)     ;
(PID.TID 0000.0001) usingGregorianCalendar= /* Calendar Type: Gregorian Calendar */
(PID.TID 0000.0001)                   T
(PID.TID 0000.0001)     ;
(PID.TID 0000.0001) usingJulianCalendar = /* Calendar Type: Julian Calendar */
(PID.TID 0000.0001)                   F
(PID.TID 0000.0001)     ;
(PID.TID 0000.0001) usingNoLeapYearCal  = /* Calendar Type: without Leap Year */
(PID.TID 0000.0001)                   F
(PID.TID 0000.0001)     ;
(PID.TID 0000.0001) usingModelCalendar  = /* Calendar Type: Model Calendar */
(PID.TID 0000.0001)                   F
(PID.TID 0000.0001)     ;
(PID.TID 0000.0001) modelStartDate YYYYMMDD = /* Model start date YYYY-MM-DD */
(PID.TID 0000.0001)                19920101
(PID.TID 0000.0001)     ;
(PID.TID 0000.0001)   modelStartDate HHMMSS = /* Model start date HH-MM-SS  */
(PID.TID 0000.0001)                       0
(PID.TID 0000.0001)     ;
(PID.TID 0000.0001) modelEndDate   YYYYMMDD = /* Model end date YYYY-MM-DD */
(PID.TID 0000.0001)                19920111
(PID.TID 0000.0001)     ;
(PID.TID 0000.0001)   modelEndDate   HHMMSS = /* Model end date HH-MM-SS  */
(PID.TID 0000.0001)                       0
(PID.TID 0000.0001)     ;
(PID.TID 0000.0001) intyears = /* Number of calendar years affected by the integration */
(PID.TID 0000.0001)                       1
(PID.TID 0000.0001)     ;
(PID.TID 0000.0001) intmonths= /* Number of calendar months affected by the integration */
(PID.TID 0000.0001)                       1
(PID.TID 0000.0001)     ;
(PID.TID 0000.0001) intdays = /* Number of calendar days affected by the integration */
(PID.TID 0000.0001)                      10
(PID.TID 0000.0001)     ;
(PID.TID 0000.0001) modelIter0 = /* Base timestep number  */
(PID.TID 0000.0001)                       0
(PID.TID 0000.0001)     ;
(PID.TID 0000.0001) modelIterEnd = /* Final timestep number  */
(PID.TID 0000.0001)                      20
(PID.TID 0000.0001)     ;
(PID.TID 0000.0001) modelIntSteps= /* Number of model timesteps  */
(PID.TID 0000.0001)                      20
(PID.TID 0000.0001)     ;
(PID.TID 0000.0001) 
(PID.TID 0000.0001) // =======================================================
(PID.TID 0000.0001) // Calendar configuration  >>> END <<<
(PID.TID 0000.0001) // =======================================================
(PID.TID 0000.0001) 
(PID.TID 0000.0001) GAD_INIT_FIXED: GAD_OlMinSize=  1  0  1
(PID.TID 0000.0001) 
(PID.TID 0000.0001) // ===================================
(PID.TID 0000.0001) // GAD parameters :
(PID.TID 0000.0001) // ===================================
(PID.TID 0000.0001) tempAdvScheme =   /* Temp. Horiz.Advection scheme selector */
(PID.TID 0000.0001)                       2
(PID.TID 0000.0001)     ;
(PID.TID 0000.0001) tempVertAdvScheme =   /* Temp. Vert. Advection scheme selector */
(PID.TID 0000.0001)                       2
(PID.TID 0000.0001)     ;
(PID.TID 0000.0001) tempMultiDimAdvec =   /* use Muti-Dim Advec method for Temp */
(PID.TID 0000.0001)                   F
(PID.TID 0000.0001)     ;
(PID.TID 0000.0001) tempSOM_Advection = /* use 2nd Order Moment Advection for Temp */
(PID.TID 0000.0001)                   F
(PID.TID 0000.0001)     ;
(PID.TID 0000.0001) AdamsBashforthGt = /* apply Adams-Bashforth extrapolation on Gt */
(PID.TID 0000.0001)                   T
(PID.TID 0000.0001)     ;
(PID.TID 0000.0001) AdamsBashforth_T = /* apply Adams-Bashforth extrapolation on Temp */
(PID.TID 0000.0001)                   F
(PID.TID 0000.0001)     ;
(PID.TID 0000.0001) saltAdvScheme =   /* Salt. Horiz.advection scheme selector */
(PID.TID 0000.0001)                       2
(PID.TID 0000.0001)     ;
(PID.TID 0000.0001) saltVertAdvScheme =   /* Salt. Vert. Advection scheme selector */
(PID.TID 0000.0001)                       2
(PID.TID 0000.0001)     ;
(PID.TID 0000.0001) saltMultiDimAdvec =   /* use Muti-Dim Advec method for Salt */
(PID.TID 0000.0001)                   F
(PID.TID 0000.0001)     ;
(PID.TID 0000.0001) saltSOM_Advection = /* use 2nd Order Moment Advection for Salt */
(PID.TID 0000.0001)                   F
(PID.TID 0000.0001)     ;
(PID.TID 0000.0001) AdamsBashforthGs = /* apply Adams-Bashforth extrapolation on Gs */
(PID.TID 0000.0001)                   T
(PID.TID 0000.0001)     ;
(PID.TID 0000.0001) AdamsBashforth_S = /* apply Adams-Bashforth extrapolation on Salt */
(PID.TID 0000.0001)                   F
(PID.TID 0000.0001)     ;
(PID.TID 0000.0001) // ===================================
(PID.TID 0000.0001) 
(PID.TID 0000.0001) // =======================================================
(PID.TID 0000.0001) // External forcing (EXF) configuration >>> START <<<
(PID.TID 0000.0001) // =======================================================
(PID.TID 0000.0001) 
(PID.TID 0000.0001)  EXF general parameters:
(PID.TID 0000.0001) 
(PID.TID 0000.0001) exf_iprec = /* exf file precision */
(PID.TID 0000.0001)                      32
(PID.TID 0000.0001)     ;
(PID.TID 0000.0001) useExfYearlyFields = /* add extension _YEAR to input file names */
(PID.TID 0000.0001)                   F
(PID.TID 0000.0001)     ;
(PID.TID 0000.0001) twoDigitYear = /* use 2-digit year extension */
(PID.TID 0000.0001)                   F
(PID.TID 0000.0001)     ;
(PID.TID 0000.0001) useExfCheckRange = /* check for fields range */
(PID.TID 0000.0001)                   T
(PID.TID 0000.0001)     ;
(PID.TID 0000.0001) exf_output_interp = /* output directly interpolation result */
(PID.TID 0000.0001)                   F
(PID.TID 0000.0001)     ;
(PID.TID 0000.0001) diags_opOceWeighted = /* weight flux diags by open-ocean fraction */
(PID.TID 0000.0001)                   F
(PID.TID 0000.0001)     ;
(PID.TID 0000.0001) exf_debugLev = /* select EXF-debug printing level */
(PID.TID 0000.0001)                       3
(PID.TID 0000.0001)     ;
(PID.TID 0000.0001) exf_monFreq  = /* EXF monitor frequency [ s ] */
(PID.TID 0000.0001)                 1.000000000000000E+00
(PID.TID 0000.0001)     ;
(PID.TID 0000.0001) exf_adjMonSelect = /* select group of exf AD-variables to monitor */
(PID.TID 0000.0001)                       1
(PID.TID 0000.0001)     ;
(PID.TID 0000.0001) repeatPeriod = /* period for cycling forcing dataset [ s ] */
(PID.TID 0000.0001)                 0.000000000000000E+00
(PID.TID 0000.0001)     ;
(PID.TID 0000.0001) climTempFreeze= /* Minimum climatological temperature [deg.C] */
(PID.TID 0000.0001)                -1.900000000000000E+00
(PID.TID 0000.0001)     ;
(PID.TID 0000.0001) windStressMax = /* Maximum absolute windstress [ Pa ] */
(PID.TID 0000.0001)                 2.000000000000000E+00
(PID.TID 0000.0001)     ;
(PID.TID 0000.0001) stressIsOnCgrid = /* set u,v_stress on Arakawa C-grid */
(PID.TID 0000.0001)                   F
(PID.TID 0000.0001)     ;
(PID.TID 0000.0001) rotateStressOnAgrid = /* rotate u,v_stress on Arakawa A-grid */
(PID.TID 0000.0001)                   F
(PID.TID 0000.0001)     ;
(PID.TID 0000.0001) cen2kel = /* conversion of deg. Centigrade to Kelvin [K] */
(PID.TID 0000.0001)                 2.731500000000000E+02
(PID.TID 0000.0001)     ;
(PID.TID 0000.0001) gravity_mks= /* gravitational acceleration [m/s^2] */
(PID.TID 0000.0001)                 9.810000000000000E+00
(PID.TID 0000.0001)     ;
(PID.TID 0000.0001) atmrho =  /* mean atmospheric density [kg/m^3] */
(PID.TID 0000.0001)                 1.200000000000000E+00
(PID.TID 0000.0001)     ;
(PID.TID 0000.0001) atmcp =  /* mean atmospheric specific heat [J/kg/K] */
(PID.TID 0000.0001)                 1.005000000000000E+03
(PID.TID 0000.0001)     ;
(PID.TID 0000.0001) flamb =  /* latent heat of evaporation [J/kg] */
(PID.TID 0000.0001)                 2.500000000000000E+06
(PID.TID 0000.0001)     ;
(PID.TID 0000.0001) flami =  /* latent heat of pure-ice melting [J/kg] */
(PID.TID 0000.0001)                 3.340000000000000E+05
(PID.TID 0000.0001)     ;
(PID.TID 0000.0001) cvapor_fac = /* const. for Saturation calculation [?] */
(PID.TID 0000.0001)                 6.403800000000000E+05
(PID.TID 0000.0001)     ;
(PID.TID 0000.0001) cvapor_exp = /* const. for Saturation calculation [?] */
(PID.TID 0000.0001)                 5.107400000000000E+03
(PID.TID 0000.0001)     ;
(PID.TID 0000.0001) cvapor_fac_ice= /* const. for Saturation calculation [?] */
(PID.TID 0000.0001)                 1.163780000000000E+07
(PID.TID 0000.0001)     ;
(PID.TID 0000.0001) cvapor_exp_ice= /* const. for Saturation calculation [?] */
(PID.TID 0000.0001)                 5.897800000000000E+03
(PID.TID 0000.0001)     ;
(PID.TID 0000.0001) humid_fac = /* humidity coef. in virtual temp. [(kg/kg)^-1] */
(PID.TID 0000.0001)                 6.060000000000000E-01
(PID.TID 0000.0001)     ;
(PID.TID 0000.0001) gamma_blk = /* adiabatic lapse rate [?] */
(PID.TID 0000.0001)                 1.000000000000000E-02
(PID.TID 0000.0001)     ;
(PID.TID 0000.0001) saltsat = /* reduction of Qsat over salty water [-] */
(PID.TID 0000.0001)                 9.800000000000000E-01
(PID.TID 0000.0001)     ;
(PID.TID 0000.0001) noNegativeEvap = /* prevent negative Evaporation */
(PID.TID 0000.0001)                   F
(PID.TID 0000.0001)     ;
(PID.TID 0000.0001) sstExtrapol = /* extrapolation coeff from lev. 1 & 2 to surf [-] */
(PID.TID 0000.0001)                 0.000000000000000E+00
(PID.TID 0000.0001)     ;
(PID.TID 0000.0001) cDrag_1 = /* coef used in drag calculation [m/s] */
(PID.TID 0000.0001)                 2.700000000000000E-03
(PID.TID 0000.0001)     ;
(PID.TID 0000.0001) cDrag_2 = /* coef used in drag calculation [-] */
(PID.TID 0000.0001)                 1.420000000000000E-04
(PID.TID 0000.0001)     ;
(PID.TID 0000.0001) cDrag_3 = /* coef used in drag calculation [s/m] */
(PID.TID 0000.0001)                 7.640000000000000E-05
(PID.TID 0000.0001)     ;
(PID.TID 0000.0001) cDrag_8 = /* coef used in drag calculation [(s/m)^6] */
(PID.TID 0000.0001)                 1.234567000000000E+05
(PID.TID 0000.0001)     ;
(PID.TID 0000.0001) cDragMax = /* maximum drag (Large and Yeager, 2009) [-] */
(PID.TID 0000.0001)                 1.234567000000000E+05
(PID.TID 0000.0001)     ;
(PID.TID 0000.0001) umax = /* at maximum wind (Large and Yeager, 2009) [m/s] */
(PID.TID 0000.0001)                 1.234567000000000E+05
(PID.TID 0000.0001)     ;
(PID.TID 0000.0001) cStanton_1 = /* coef used in Stanton number calculation [-] */
(PID.TID 0000.0001)                 3.270000000000000E-02
(PID.TID 0000.0001)     ;
(PID.TID 0000.0001) cStanton_2 = /* coef used in Stanton number calculation [-] */
(PID.TID 0000.0001)                 1.800000000000000E-02
(PID.TID 0000.0001)     ;
(PID.TID 0000.0001) cDalton = /* Dalton number [-] */
(PID.TID 0000.0001)                 3.460000000000000E-02
(PID.TID 0000.0001)     ;
(PID.TID 0000.0001) exf_scal_BulkCdn= /* Drag coefficient scaling factor [-] */
(PID.TID 0000.0001)                 1.000000000000000E+00
(PID.TID 0000.0001)     ;
(PID.TID 0000.0001) zolmin = /* minimum stability parameter [?] */
(PID.TID 0000.0001)                -1.000000000000000E+02
(PID.TID 0000.0001)     ;
(PID.TID 0000.0001) psim_fac = /* coef used in turbulent fluxes calculation [-] */
(PID.TID 0000.0001)                 5.000000000000000E+00
(PID.TID 0000.0001)     ;
(PID.TID 0000.0001) zref =  /* reference height [ m ] */
(PID.TID 0000.0001)                 1.000000000000000E+01
(PID.TID 0000.0001)     ;
(PID.TID 0000.0001) hu =  /* height of mean wind [ m ] */
(PID.TID 0000.0001)                 1.000000000000000E+01
(PID.TID 0000.0001)     ;
(PID.TID 0000.0001) ht =  /* height of mean temperature [ m ] */
(PID.TID 0000.0001)                 2.000000000000000E+00
(PID.TID 0000.0001)     ;
(PID.TID 0000.0001) hq =  /* height of mean spec.humidity [ m ] */
(PID.TID 0000.0001)                 2.000000000000000E+00
(PID.TID 0000.0001)     ;
(PID.TID 0000.0001) uMin = /* minimum wind speed [m/s] */
(PID.TID 0000.0001)                 5.000000000000000E-01
(PID.TID 0000.0001)     ;
(PID.TID 0000.0001) useStabilityFct_overIce= /* transfert Coeffs over sea-ice depend on stability */
(PID.TID 0000.0001)                   F
(PID.TID 0000.0001)     ;
(PID.TID 0000.0001) exf_iceCd = /* drag coefficient over sea-ice (fixed) [-] */
(PID.TID 0000.0001)                 1.630000000000000E-03
(PID.TID 0000.0001)     ;
(PID.TID 0000.0001) exf_iceCe = /* transfert coeff. over sea-ice, for Evap (fixed) [-] */
(PID.TID 0000.0001)                 1.630000000000000E-03
(PID.TID 0000.0001)     ;
(PID.TID 0000.0001) exf_iceCh = /* transfert coeff. over sea-ice, Sens.Heat.(fixed)[-] */
(PID.TID 0000.0001)                 1.630000000000000E-03
(PID.TID 0000.0001)     ;
(PID.TID 0000.0001) exf_albedo =  /* Sea-water albedo [-] */
(PID.TID 0000.0001)                 1.000000000000000E-01
(PID.TID 0000.0001)     ;
(PID.TID 0000.0001) useExfZenAlbedo = /* Sea-water albedo varies with zenith angle */
(PID.TID 0000.0001)                   F
(PID.TID 0000.0001)     ;
(PID.TID 0000.0001) select_ZenAlbedo = /* Sea-water albedo computation method */
(PID.TID 0000.0001)                       0
(PID.TID 0000.0001)     ;
(PID.TID 0000.0001) useExfZenIncoming = /* compute incoming solar radiation */
(PID.TID 0000.0001)                   F
(PID.TID 0000.0001)     ;
(PID.TID 0000.0001) ocean_emissivity = /* longwave ocean-surface emissivity [-] */
(PID.TID 0000.0001)                 9.700176366843034E-01
(PID.TID 0000.0001)     ;
(PID.TID 0000.0001) ice_emissivity = /* longwave seaice emissivity [-] */
(PID.TID 0000.0001)                 9.500000000000000E-01
(PID.TID 0000.0001)     ;
(PID.TID 0000.0001) snow_emissivity = /* longwave snow  emissivity [-] */
(PID.TID 0000.0001)                 9.500000000000000E-01
(PID.TID 0000.0001)     ;
(PID.TID 0000.0001) 
(PID.TID 0000.0001)  EXF main CPP flags:
(PID.TID 0000.0001) 
(PID.TID 0000.0001) // USE_EXF_INTERPOLATION:              defined
(PID.TID 0000.0001) // ALLOW_ATM_TEMP:                 NOT defined
(PID.TID 0000.0001) // ALLOW_ATM_WIND (useAtmWind):    NOT defined
(PID.TID 0000.0001) // ALLOW_DOWNWARD_RADIATION:       NOT defined
(PID.TID 0000.0001) // ALLOW_BULKFORMULAE:             NOT defined
(PID.TID 0000.0001) 
(PID.TID 0000.0001)    Zonal wind stress forcing period is                 -12.
(PID.TID 0000.0001)    Zonal wind stress forcing is read from file:
(PID.TID 0000.0001)    >> trenberth_taux.bin <<
(PID.TID 0000.0001)    interpolate "ustress" (method= 12 ):
(PID.TID 0000.0001)    lon0=   0.00000, nlon=    90, lon_inc= 4.0000000
(PID.TID 0000.0001)    lat0= -78.00000, nlat=    40, lat_inc= 4.0000000
(PID.TID 0000.0001) 
(PID.TID 0000.0001)    Meridional wind stress forcing period is            -12.
(PID.TID 0000.0001)    Meridional wind stress forcing is read from file:
(PID.TID 0000.0001)    >> trenberth_tauy.bin <<
(PID.TID 0000.0001)    interpolate "vstress" (method= 22 ):
(PID.TID 0000.0001)    lon0=   2.00000, nlon=    90, lon_inc= 4.0000000
(PID.TID 0000.0001)    lat0= -80.00000, nlat=    40, lat_inc= 4.0000000
(PID.TID 0000.0001)     Interp. U & V comp. together: uvInterp_stress =    F
(PID.TID 0000.0001) 
(PID.TID 0000.0001)    Heat flux forcing period is                         -12.
(PID.TID 0000.0001)    Heat flux forcing is read from file:
(PID.TID 0000.0001)    >> ncep_qnet.bin <<
(PID.TID 0000.0001)    interpolate "hflux" (method=  1 ):
(PID.TID 0000.0001)    lon0=   2.00000, nlon=    90, lon_inc= 4.0000000
(PID.TID 0000.0001)    lat0= -78.00000, nlat=    40, lat_inc= 4.0000000
(PID.TID 0000.0001) 
(PID.TID 0000.0001) // EXF_READ_EVAP:                  NOT defined
(PID.TID 0000.0001) // ALLOW_RUNOFF:                   NOT defined
(PID.TID 0000.0001) // ALLOW_SALTFLX:                  NOT defined
(PID.TID 0000.0001) 
(PID.TID 0000.0001) // =======================================================
(PID.TID 0000.0001) // External forcing (EXF) climatology configuration :
(PID.TID 0000.0001) // =======================================================
(PID.TID 0000.0001) 
(PID.TID 0000.0001) // ALLOW_CLIMSST_RELAXATION:           defined
(PID.TID 0000.0001)    Climatological SST starts at                   -1382400.
(PID.TID 0000.0001)    Climatological SST period is                         -1.
(PID.TID 0000.0001)    Climatological SST is read from file:
(PID.TID 0000.0001)    >> lev_sst_startdec.tmp <<
(PID.TID 0000.0001)    interpolate "climsst" (method=  2 ):
(PID.TID 0000.0001)    lon0=   2.00000, nlon=    90, lon_inc= 4.0000000
(PID.TID 0000.0001)    lat0= -78.00000, nlat=    40, lat_inc= 4.0000000
(PID.TID 0000.0001) 
(PID.TID 0000.0001) // ALLOW_CLIMSSS_RELAXATION:           defined
(PID.TID 0000.0001)    Climatological SSS period is                        -12.
(PID.TID 0000.0001)    Climatological SSS is read from file:
(PID.TID 0000.0001)    >> lev_sss.bin <<
(PID.TID 0000.0001)    interpolate "climsss" (method=  2 ):
(PID.TID 0000.0001)    lon0=   2.00000, nlon=    90, lon_inc= 4.0000000
(PID.TID 0000.0001)    lat0= -78.00000, nlat=    40, lat_inc= 4.0000000
(PID.TID 0000.0001) 
(PID.TID 0000.0001) // =======================================================
(PID.TID 0000.0001) // External forcing (EXF) configuration  >>> END <<<
(PID.TID 0000.0001) // =======================================================
(PID.TID 0000.0001) 
(PID.TID 0000.0001) 
(PID.TID 0000.0001) // =======================================================
(PID.TID 0000.0001) // insitu profiles model sampling >>> START <<<
(PID.TID 0000.0001) // =======================================================
(PID.TID 0000.0001) 
(PID.TID 0000.0001) 
(PID.TID 0000.0001)   profilesDir ./
(PID.TID 0000.0001)   profilesDoGenGrid      F
(PID.TID 0000.0001)   profilesDoNcOutput     F
(PID.TID 0000.0001) 
(PID.TID 0000.0001) 
(PID.TID 0000.0001) profiles file #  1 is prof_exemple
(PID.TID 0000.0001)   current tile is bi,bj                      =   1,   1
(PID.TID 0000.0001)   # of depth levels in file                  =       55
(PID.TID 0000.0001)   # of profiles in file                      =      218
(PID.TID 0000.0001)   # of profiles with erroneous HHMMSS values =        0
(PID.TID 0000.0001)   # of profiles within tile and time period  =       90
(PID.TID 0000.0001)   variable #  1 is            prof_T and theta
(PID.TID 0000.0001)   variable #  2 is            prof_S and salt
(PID.TID 0000.0001) 
(PID.TID 0000.0001) profiles file #  1 is prof_exemple
(PID.TID 0000.0001)   current tile is bi,bj                      =   2,   1
(PID.TID 0000.0001)   # of depth levels in file                  =       55
(PID.TID 0000.0001)   # of profiles in file                      =      218
(PID.TID 0000.0001)   # of profiles with erroneous HHMMSS values =        0
(PID.TID 0000.0001)   # of profiles within tile and time period  =       18
(PID.TID 0000.0001)   variable #  1 is            prof_T and theta
(PID.TID 0000.0001)   variable #  2 is            prof_S and salt
(PID.TID 0000.0001) 
(PID.TID 0000.0001) profiles file #  1 is prof_exemple
(PID.TID 0000.0001)   current tile is bi,bj                      =   3,   1
(PID.TID 0000.0001)   # of depth levels in file                  =       55
(PID.TID 0000.0001)   # of profiles in file                      =      218
(PID.TID 0000.0001)   # of profiles with erroneous HHMMSS values =        0
(PID.TID 0000.0001)   # of profiles within tile and time period  =      110
(PID.TID 0000.0001)   variable #  1 is            prof_T and theta
(PID.TID 0000.0001)   variable #  2 is            prof_S and salt
(PID.TID 0000.0001) 
(PID.TID 0000.0001) profiles file #  1 is prof_exemple
(PID.TID 0000.0001)   current tile is bi,bj                      =   1,   2
(PID.TID 0000.0001)   # of depth levels in file                  =       55
(PID.TID 0000.0001)   # of profiles in file                      =      218
(PID.TID 0000.0001)   # of profiles with erroneous HHMMSS values =        0
(PID.TID 0000.0001)   # of profiles within tile and time period  =        0
(PID.TID 0000.0001)   variable #  1 is            prof_T and theta
(PID.TID 0000.0001)   variable #  2 is            prof_S and salt
(PID.TID 0000.0001) 
(PID.TID 0000.0001) profiles file #  1 is prof_exemple
(PID.TID 0000.0001)   current tile is bi,bj                      =   2,   2
(PID.TID 0000.0001)   # of depth levels in file                  =       55
(PID.TID 0000.0001)   # of profiles in file                      =      218
(PID.TID 0000.0001)   # of profiles with erroneous HHMMSS values =        0
(PID.TID 0000.0001)   # of profiles within tile and time period  =        0
(PID.TID 0000.0001)   variable #  1 is            prof_T and theta
(PID.TID 0000.0001)   variable #  2 is            prof_S and salt
(PID.TID 0000.0001) 
(PID.TID 0000.0001) profiles file #  1 is prof_exemple
(PID.TID 0000.0001)   current tile is bi,bj                      =   3,   2
(PID.TID 0000.0001)   # of depth levels in file                  =       55
(PID.TID 0000.0001)   # of profiles in file                      =      218
(PID.TID 0000.0001)   # of profiles with erroneous HHMMSS values =        0
(PID.TID 0000.0001)   # of profiles within tile and time period  =        0
(PID.TID 0000.0001)   variable #  1 is            prof_T and theta
(PID.TID 0000.0001)   variable #  2 is            prof_S and salt
(PID.TID 0000.0001) 
(PID.TID 0000.0001) // =======================================================
(PID.TID 0000.0001) // insitu profiles model sampling >>> END <<<
(PID.TID 0000.0001) // =======================================================
(PID.TID 0000.0001) 
(PID.TID 0000.0001) ------------------------------------------------------------
(PID.TID 0000.0001) DIAGNOSTICS_SET_LEVELS: done
(PID.TID 0000.0001)  Total Nb of available Diagnostics: ndiagt=   235
(PID.TID 0000.0001)  write list of available Diagnostics to file: available_diagnostics.log
(PID.TID 0000.0001) SETDIAG: Allocate  1 x  1 Levels for Diagnostic #   197 EXFtaux
(PID.TID 0000.0001) SETDIAG: Allocate  1 x  1 Levels for Diagnostic #   198 EXFtauy
(PID.TID 0000.0001) SETDIAG: Allocate  1 x  1 Levels for Diagnostic #   196 EXFqnet
(PID.TID 0000.0001) SETDIAG: Allocate  1 x  1 Levels for Diagnostic #   209 EXFempmr
(PID.TID 0000.0001) SETDIAG: Allocate 15 x  1 Levels for Diagnostic #    26 THETA
(PID.TID 0000.0001) SETDIAG: Allocate 15 x  1 Levels for Diagnostic #    27 SALT
(PID.TID 0000.0001) SETDIAG: Allocate 15 x  1 Levels for Diagnostic #    30 UVEL
(PID.TID 0000.0001) SETDIAG: Allocate 15 x  1 Levels for Diagnostic #    31 VVEL
(PID.TID 0000.0001)   space allocated for all diagnostics:      64 levels
(PID.TID 0000.0001)   set mate pointer for diag #    30  UVEL     , Parms: UUR     MR , mate:    31
(PID.TID 0000.0001)   set mate pointer for diag #    31  VVEL     , Parms: VVR     MR , mate:    30
(PID.TID 0000.0001) DIAGNOSTICS_SET_POINTERS: Set levels for Outp.Stream: diagsEXF
(PID.TID 0000.0001)  Levels:       1.
(PID.TID 0000.0001) DIAGNOSTICS_SET_POINTERS: done
(PID.TID 0000.0001) ------------------------------------------------------------
(PID.TID 0000.0001) DIAGSTATS_SET_REGIONS: define no region
(PID.TID 0000.0001) ------------------------------------------------------------
(PID.TID 0000.0001)   space allocated for all stats-diags:       0 levels
(PID.TID 0000.0001) DIAGSTATS_SET_POINTERS: done
(PID.TID 0000.0001) ------------------------------------------------------------
(PID.TID 0000.0001) %MON fCori_max                    =   1.4226580169407E-04
(PID.TID 0000.0001) %MON fCori_min                    =  -1.4226580169407E-04
(PID.TID 0000.0001) %MON fCori_mean                   =  -1.1950317278951E-19
(PID.TID 0000.0001) %MON fCori_sd                     =   9.6335367303778E-05
(PID.TID 0000.0001) %MON fCoriG_max                   =   1.4112379284621E-04
(PID.TID 0000.0001) %MON fCoriG_min                   =  -1.4323448157692E-04
(PID.TID 0000.0001) %MON fCoriG_mean                  =  -3.5808620394228E-06
(PID.TID 0000.0001) %MON fCoriG_sd                    =   9.6285194120965E-05
(PID.TID 0000.0001) %MON fCoriCos_max                 =   1.4535550371427E-04
(PID.TID 0000.0001) %MON fCoriCos_min                 =   3.0239529651320E-05
(PID.TID 0000.0001) %MON fCoriCos_mean                =   1.0260497651149E-04
(PID.TID 0000.0001) %MON fCoriCos_sd                  =   3.6683828681187E-05
(PID.TID 0000.0001) INI_CG2D: CG2D normalisation factor =  6.5682677425711703E-05
(PID.TID 0000.0001) 
(PID.TID 0000.0001) // =======================================================
(PID.TID 0000.0001) // Model configuration
(PID.TID 0000.0001) // =======================================================
(PID.TID 0000.0001) //
(PID.TID 0000.0001) // "Physical" paramters ( PARM01 in namelist )
(PID.TID 0000.0001) //
(PID.TID 0000.0001) buoyancyRelation = /* Type of relation to get Buoyancy */
(PID.TID 0000.0001)               'OCEANIC'
(PID.TID 0000.0001)     ;
(PID.TID 0000.0001) fluidIsAir   =  /* fluid major constituent is Air */
(PID.TID 0000.0001)                   F
(PID.TID 0000.0001)     ;
(PID.TID 0000.0001) fluidIsWater =  /* fluid major constituent is Water */
(PID.TID 0000.0001)                   T
(PID.TID 0000.0001)     ;
(PID.TID 0000.0001) usingPCoords =  /* use p (or p*) vertical coordinate */
(PID.TID 0000.0001)                   F
(PID.TID 0000.0001)     ;
(PID.TID 0000.0001) usingZCoords =  /* use z (or z*) vertical coordinate */
(PID.TID 0000.0001)                   T
(PID.TID 0000.0001)     ;
(PID.TID 0000.0001) tRef =   /* Reference temperature profile ( oC or K ) */
(PID.TID 0000.0001)    15 @  2.000000000000000E+01              /* K =  1: 15 */
(PID.TID 0000.0001)     ;
(PID.TID 0000.0001) sRef =   /* Reference salinity profile ( g/kg ) */
(PID.TID 0000.0001)    15 @  3.500000000000000E+01              /* K =  1: 15 */
(PID.TID 0000.0001)     ;
(PID.TID 0000.0001) rhoRef =   /* Density vertical profile from (Ref,sRef)( kg/m^3 ) */
(PID.TID 0000.0001)    15 @  1.035000000000000E+03              /* K =  1: 15 */
(PID.TID 0000.0001)     ;
(PID.TID 0000.0001) dBdrRef = /* Vertical grad. of reference buoyancy [(m/s/r)^2] */
(PID.TID 0000.0001)    15 @  0.000000000000000E+00              /* K =  1: 15 */
(PID.TID 0000.0001)     ;
(PID.TID 0000.0001) useStrainTensionVisc= /* Use StrainTension Form of Viscous Operator */
(PID.TID 0000.0001)                   F
(PID.TID 0000.0001)     ;
(PID.TID 0000.0001) useVariableVisc = /* Use variable horizontal viscosity */
(PID.TID 0000.0001)                   F
(PID.TID 0000.0001)     ;
(PID.TID 0000.0001) useHarmonicVisc = /* Use harmonic horizontal viscosity */
(PID.TID 0000.0001)                   T
(PID.TID 0000.0001)     ;
(PID.TID 0000.0001) useBiharmonicVisc= /* Use biharmonic horiz.  viscosity */
(PID.TID 0000.0001)                   F
(PID.TID 0000.0001)     ;
(PID.TID 0000.0001) useSmag3D = /* Use isotropic 3-D Smagorinsky viscosity */
(PID.TID 0000.0001)                   F
(PID.TID 0000.0001)     ;
(PID.TID 0000.0001) viscAh  =   /* Lateral harmonic viscosity ( m^2/s ) */
(PID.TID 0000.0001)                 5.000000000000000E+05
(PID.TID 0000.0001)     ;
(PID.TID 0000.0001) viscA4  =   /* Lateral biharmonic viscosity ( m^4/s ) */
(PID.TID 0000.0001)                 0.000000000000000E+00
(PID.TID 0000.0001)     ;
(PID.TID 0000.0001) no_slip_sides =  /* Viscous BCs: No-slip sides */
(PID.TID 0000.0001)                   T
(PID.TID 0000.0001)     ;
(PID.TID 0000.0001) sideDragFactor = /* side-drag scaling factor (non-dim) */
(PID.TID 0000.0001)                 2.000000000000000E+00
(PID.TID 0000.0001)     ;
(PID.TID 0000.0001) viscArNr = /* vertical profile of vertical viscosity ( m^2/s )*/
(PID.TID 0000.0001)    15 @  1.000000000000000E-03              /* K =  1: 15 */
(PID.TID 0000.0001)     ;
(PID.TID 0000.0001) no_slip_bottom =  /* Viscous BCs: No-slip bottom */
(PID.TID 0000.0001)                   T
(PID.TID 0000.0001)     ;
(PID.TID 0000.0001) bottomVisc_pCell = /* Partial-cell in bottom Visc. BC */
(PID.TID 0000.0001)                   F
(PID.TID 0000.0001)     ;
(PID.TID 0000.0001) bottomDragLinear = /* linear bottom-drag coefficient ( m/s ) */
(PID.TID 0000.0001)                 0.000000000000000E+00
(PID.TID 0000.0001)     ;
(PID.TID 0000.0001) bottomDragQuadratic = /* quadratic bottom-drag coefficient (-) */
(PID.TID 0000.0001)                 0.000000000000000E+00
(PID.TID 0000.0001)     ;
(PID.TID 0000.0001) selectBotDragQuadr = /* select quadratic bottom drag options */
(PID.TID 0000.0001)                      -1
(PID.TID 0000.0001)     ;
(PID.TID 0000.0001) diffKhT =   /* Laplacian diffusion of heat laterally ( m^2/s ) */
(PID.TID 0000.0001)                 0.000000000000000E+00
(PID.TID 0000.0001)     ;
(PID.TID 0000.0001) diffK4T =   /* Biharmonic diffusion of heat laterally ( m^4/s ) */
(PID.TID 0000.0001)                 0.000000000000000E+00
(PID.TID 0000.0001)     ;
(PID.TID 0000.0001) diffKhS =   /* Laplacian diffusion of salt laterally ( m^2/s ) */
(PID.TID 0000.0001)                 0.000000000000000E+00
(PID.TID 0000.0001)     ;
(PID.TID 0000.0001) diffK4S =   /* Biharmonic diffusion of salt laterally ( m^4/s ) */
(PID.TID 0000.0001)                 0.000000000000000E+00
(PID.TID 0000.0001)     ;
(PID.TID 0000.0001) diffKrNrT = /* vertical profile of vertical diffusion of Temp ( m^2/s )*/
(PID.TID 0000.0001)    15 @  3.000000000000000E-05              /* K =  1: 15 */
(PID.TID 0000.0001)     ;
(PID.TID 0000.0001) diffKrNrS = /* vertical profile of vertical diffusion of Salt ( m^2/s )*/
(PID.TID 0000.0001)    15 @  3.000000000000000E-05              /* K =  1: 15 */
(PID.TID 0000.0001)     ;
(PID.TID 0000.0001) diffKrBL79surf = /* Surface diffusion for Bryan and Lewis 79 ( m^2/s ) */
(PID.TID 0000.0001)                 0.000000000000000E+00
(PID.TID 0000.0001)     ;
(PID.TID 0000.0001) diffKrBL79deep = /* Deep diffusion for Bryan and Lewis 1979 ( m^2/s ) */
(PID.TID 0000.0001)                 0.000000000000000E+00
(PID.TID 0000.0001)     ;
(PID.TID 0000.0001) diffKrBL79scl = /* Depth scale for Bryan and Lewis 1979 ( m ) */
(PID.TID 0000.0001)                 2.000000000000000E+02
(PID.TID 0000.0001)     ;
(PID.TID 0000.0001) diffKrBL79Ho = /* Turning depth for Bryan and Lewis 1979 ( m ) */
(PID.TID 0000.0001)                -2.000000000000000E+03
(PID.TID 0000.0001)     ;
(PID.TID 0000.0001) ivdc_kappa = /* Implicit Vertical Diffusivity for Convection ( m^2/s) */
(PID.TID 0000.0001)                 1.000000000000000E+02
(PID.TID 0000.0001)     ;
(PID.TID 0000.0001) hMixCriteria=  /* Criteria for mixed-layer diagnostic */
(PID.TID 0000.0001)                -8.000000000000000E-01
(PID.TID 0000.0001)     ;
(PID.TID 0000.0001) dRhoSmall =  /* Parameter for mixed-layer diagnostic */
(PID.TID 0000.0001)                 1.000000000000000E-06
(PID.TID 0000.0001)     ;
(PID.TID 0000.0001) hMixSmooth=  /* Smoothing parameter for mixed-layer diagnostic */
(PID.TID 0000.0001)                 0.000000000000000E+00
(PID.TID 0000.0001)     ;
(PID.TID 0000.0001) eosType =  /* Type of Equation of State */
(PID.TID 0000.0001)               'POLY3 '
(PID.TID 0000.0001)     ;
(PID.TID 0000.0001) Polynomial EQS parameters ( from POLY3.COEFFS ):
(PID.TID 0000.0001)   1  13.497  32.600  24.548  -0.202   0.773  -0.005  -0.002   0.000   0.000   0.000   0.000   0.000
(PID.TID 0000.0001)   2  13.488  32.600  24.819  -0.204   0.773  -0.005  -0.002   0.000   0.000   0.000   0.000   0.000
(PID.TID 0000.0001)   3  13.476  32.600  25.201  -0.205   0.772  -0.005  -0.002   0.000   0.000   0.000   0.000   0.000
(PID.TID 0000.0001)   4   8.469  35.150  28.642  -0.163   0.784  -0.005  -0.002  -0.000   0.000   0.000   0.000   0.000
(PID.TID 0000.0001)   5   8.451  35.150  29.393  -0.167   0.782  -0.005  -0.002  -0.000   0.000   0.000   0.000   0.000
(PID.TID 0000.0001)   6   5.940  34.900  30.563  -0.144   0.786  -0.005  -0.002  -0.001   0.000   0.000   0.000   0.000
(PID.TID 0000.0001)   7   4.425  34.900  31.985  -0.134   0.788  -0.005  -0.003  -0.000   0.000   0.000   0.000   0.000
(PID.TID 0000.0001)   8   2.911  34.750  33.505  -0.125   0.789  -0.006  -0.003  -0.000   0.000   0.000   0.000   0.000
(PID.TID 0000.0001)   9   1.893  34.800  35.341  -0.123   0.789  -0.006  -0.003   0.000   0.000   0.000   0.000   0.000
(PID.TID 0000.0001)  10   1.367  34.800  37.299  -0.129   0.787  -0.006  -0.003   0.000   0.000   0.000   0.000   0.000
(PID.TID 0000.0001)  11   1.327  34.800  39.405  -0.141   0.783  -0.005  -0.003   0.000   0.000   0.000   0.000   0.000
(PID.TID 0000.0001)  12   0.791  34.800  41.788  -0.149   0.780  -0.005  -0.003   0.000   0.000   0.000   0.000   0.000
(PID.TID 0000.0001)  13   0.736  34.750  44.259  -0.164   0.776  -0.005  -0.002   0.000   0.000   0.000   0.000   0.000
(PID.TID 0000.0001)  14   0.186  34.750  47.044  -0.175   0.773  -0.005  -0.002   0.000   0.000   0.000   0.000   0.000
(PID.TID 0000.0001)  15   0.595  34.750  49.835  -0.196   0.767  -0.004  -0.002   0.000   0.000   0.000   0.000   0.000
(PID.TID 0000.0001)     ;
(PID.TID 0000.0001) selectP_inEOS_Zc = /* select pressure to use in EOS (0,1,2,3) */
(PID.TID 0000.0001)                       0
(PID.TID 0000.0001)     0= -g*rhoConst*z ; 1= pRef (from tRef,sRef); 2= Hyd P ; 3= Hyd+NH P
(PID.TID 0000.0001)     ;
(PID.TID 0000.0001) surf_pRef = /* Surface reference pressure ( Pa ) */
(PID.TID 0000.0001)                 1.013250000000000E+05
(PID.TID 0000.0001)     ;
(PID.TID 0000.0001) HeatCapacity_Cp =  /* Specific heat capacity ( J/kg/K ) */
(PID.TID 0000.0001)                 3.994000000000000E+03
(PID.TID 0000.0001)     ;
(PID.TID 0000.0001) celsius2K = /* 0 degree Celsius converted to Kelvin ( K ) */
(PID.TID 0000.0001)                 2.731500000000000E+02
(PID.TID 0000.0001)     ;
(PID.TID 0000.0001) rhoConst  = /* Reference density (Boussinesq)  ( kg/m^3 ) */
(PID.TID 0000.0001)                 1.035000000000000E+03
(PID.TID 0000.0001)     ;
(PID.TID 0000.0001) rhoFacC = /* normalized Reference density @ cell-Center (-) */
(PID.TID 0000.0001)    15 @  1.000000000000000E+00              /* K =  1: 15 */
(PID.TID 0000.0001)     ;
(PID.TID 0000.0001) rhoFacF = /* normalized Reference density @ W-Interface (-) */
(PID.TID 0000.0001)    16 @  1.000000000000000E+00              /* K =  1: 16 */
(PID.TID 0000.0001)     ;
(PID.TID 0000.0001) rhoConstFresh = /* Fresh-water reference density ( kg/m^3 ) */
(PID.TID 0000.0001)                 1.035000000000000E+03
(PID.TID 0000.0001)     ;
(PID.TID 0000.0001) gravity =   /* Gravitational acceleration ( m/s^2 ) */
(PID.TID 0000.0001)                 9.810000000000000E+00
(PID.TID 0000.0001)     ;
(PID.TID 0000.0001) gBaro =   /* Barotropic gravity ( m/s^2 ) */
(PID.TID 0000.0001)                 9.810000000000000E+00
(PID.TID 0000.0001)     ;
(PID.TID 0000.0001) gravFacC = /* gravity factor (vs surf.) @ cell-Center (-) */
(PID.TID 0000.0001)    15 @  1.000000000000000E+00              /* K =  1: 15 */
(PID.TID 0000.0001)     ;
(PID.TID 0000.0001) gravFacF = /* gravity factor (vs surf.) @ W-Interface (-) */
(PID.TID 0000.0001)    16 @  1.000000000000000E+00              /* K =  1: 16 */
(PID.TID 0000.0001)     ;
(PID.TID 0000.0001) rotationPeriod =   /* Rotation Period ( s ) */
(PID.TID 0000.0001)                 8.640000000000000E+04
(PID.TID 0000.0001)     ;
(PID.TID 0000.0001) omega =   /* Angular velocity ( rad/s ) */
(PID.TID 0000.0001)                 7.272205216643040E-05
(PID.TID 0000.0001)     ;
(PID.TID 0000.0001) f0 =   /* Reference coriolis parameter ( 1/s ) */
(PID.TID 0000.0001)                 1.000000000000000E-04
(PID.TID 0000.0001)     ;
(PID.TID 0000.0001) beta =   /* Beta ( 1/(m.s) ) */
(PID.TID 0000.0001)                 9.999999999999999E-12
(PID.TID 0000.0001)     ;
(PID.TID 0000.0001) fPrime =   /* Second coriolis parameter ( 1/s ) */
(PID.TID 0000.0001)                 0.000000000000000E+00
(PID.TID 0000.0001)     ;
(PID.TID 0000.0001) rigidLid =   /* Rigid lid on/off flag */
(PID.TID 0000.0001)                   F
(PID.TID 0000.0001)     ;
(PID.TID 0000.0001) implicitFreeSurface =   /* Implicit free surface on/off flag */
(PID.TID 0000.0001)                   T
(PID.TID 0000.0001)     ;
(PID.TID 0000.0001) freeSurfFac =   /* Implicit free surface factor */
(PID.TID 0000.0001)                 1.000000000000000E+00
(PID.TID 0000.0001)     ;
(PID.TID 0000.0001) implicSurfPress =  /* Surface Pressure implicit factor (0-1) */
(PID.TID 0000.0001)                 1.000000000000000E+00
(PID.TID 0000.0001)     ;
(PID.TID 0000.0001) implicDiv2DFlow =  /* Barot. Flow Div. implicit factor (0-1) */
(PID.TID 0000.0001)                 1.000000000000000E+00
(PID.TID 0000.0001)     ;
(PID.TID 0000.0001) uniformLin_PhiSurf = /* use uniform Bo_surf on/off flag */
(PID.TID 0000.0001)                   T
(PID.TID 0000.0001)     ;
(PID.TID 0000.0001) uniformFreeSurfLev = /* free-surface level-index is uniform */
(PID.TID 0000.0001)                   T
(PID.TID 0000.0001)     ;
(PID.TID 0000.0001) sIceLoadFac =  /* scale factor for sIceLoad (0-1) */
(PID.TID 0000.0001)                 1.000000000000000E+00
(PID.TID 0000.0001)     ;
(PID.TID 0000.0001) hFacMin =   /* minimum partial cell factor (hFac) */
(PID.TID 0000.0001)                 5.000000000000000E-02
(PID.TID 0000.0001)     ;
(PID.TID 0000.0001) hFacMinDr = /* minimum partial cell thickness ( m) */
(PID.TID 0000.0001)                 5.000000000000000E+01
(PID.TID 0000.0001)     ;
(PID.TID 0000.0001) exactConserv =  /* Exact Volume Conservation on/off flag */
(PID.TID 0000.0001)                   F
(PID.TID 0000.0001)     ;
(PID.TID 0000.0001) linFSConserveTr = /* Tracer correction for Lin Free Surface on/off flag */
(PID.TID 0000.0001)                   F
(PID.TID 0000.0001)     ;
(PID.TID 0000.0001) nonlinFreeSurf = /* Non-linear Free Surf. options (-1,0,1,2,3)*/
(PID.TID 0000.0001)                       0
(PID.TID 0000.0001)      -1,0= Off ; 1,2,3= On, 2=+rescale gU,gV, 3=+update cg2d solv.
(PID.TID 0000.0001)     ;
(PID.TID 0000.0001) hFacInf =   /* lower threshold for hFac (nonlinFreeSurf only)*/
(PID.TID 0000.0001)                 2.000000000000000E-01
(PID.TID 0000.0001)     ;
(PID.TID 0000.0001) hFacSup =   /* upper threshold for hFac (nonlinFreeSurf only)*/
(PID.TID 0000.0001)                 2.000000000000000E+00
(PID.TID 0000.0001)     ;
(PID.TID 0000.0001) select_rStar = /* r* Vertical coord. options (=0 r coord.; >0 uses r*)*/
(PID.TID 0000.0001)                       0
(PID.TID 0000.0001)     ;
(PID.TID 0000.0001) useRealFreshWaterFlux = /* Real Fresh Water Flux on/off flag*/
(PID.TID 0000.0001)                   T
(PID.TID 0000.0001)     ;
(PID.TID 0000.0001) temp_EvPrRn = /* Temp. of Evap/Prec/R (UNSET=use local T)(oC)*/
(PID.TID 0000.0001)                 1.234567000000000E+05
(PID.TID 0000.0001)     ;
(PID.TID 0000.0001) salt_EvPrRn = /* Salin. of Evap/Prec/R (UNSET=use local S)(g/kg)*/
(PID.TID 0000.0001)                 0.000000000000000E+00
(PID.TID 0000.0001)     ;
(PID.TID 0000.0001) selectAddFluid = /* option for mass source/sink of fluid (=0: off) */
(PID.TID 0000.0001)                       0
(PID.TID 0000.0001)     ;
(PID.TID 0000.0001) temp_addMass = /* Temp. of addMass array (UNSET=use local T)(oC)*/
(PID.TID 0000.0001)                 1.234567000000000E+05
(PID.TID 0000.0001)     ;
(PID.TID 0000.0001) salt_addMass = /* Salin. of addMass array (UNSET=use local S)(g/kg)*/
(PID.TID 0000.0001)                 0.000000000000000E+00
(PID.TID 0000.0001)     ;
(PID.TID 0000.0001) convertFW2Salt = /* convert F.W. Flux to Salt Flux (-1=use local S)(g/kg)*/
(PID.TID 0000.0001)                -1.000000000000000E+00
(PID.TID 0000.0001)     ;
(PID.TID 0000.0001) use3Dsolver = /* use 3-D pressure solver on/off flag */
(PID.TID 0000.0001)                   F
(PID.TID 0000.0001)     ;
(PID.TID 0000.0001) nonHydrostatic =  /* Non-Hydrostatic on/off flag */
(PID.TID 0000.0001)                   F
(PID.TID 0000.0001)     ;
(PID.TID 0000.0001) nh_Am2 = /* Non-Hydrostatic terms scaling factor */
(PID.TID 0000.0001)                 1.000000000000000E+00
(PID.TID 0000.0001)     ;
(PID.TID 0000.0001) implicitNHPress = /* Non-Hyd Pressure implicit factor (0-1)*/
(PID.TID 0000.0001)                 1.000000000000000E+00
(PID.TID 0000.0001)     ;
(PID.TID 0000.0001) selectNHfreeSurf = /* Non-Hyd (free-)Surface option */
(PID.TID 0000.0001)                       0
(PID.TID 0000.0001)     ;
(PID.TID 0000.0001) quasiHydrostatic = /* Quasi-Hydrostatic on/off flag */
(PID.TID 0000.0001)                   F
(PID.TID 0000.0001)     ;
(PID.TID 0000.0001) calc_wVelocity = /* vertical velocity calculation on/off flag */
(PID.TID 0000.0001)                   T
(PID.TID 0000.0001)     ;
(PID.TID 0000.0001) momStepping =  /* Momentum equation on/off flag */
(PID.TID 0000.0001)                   T
(PID.TID 0000.0001)     ;
(PID.TID 0000.0001) vectorInvariantMomentum= /* Vector-Invariant Momentum on/off */
(PID.TID 0000.0001)                   F
(PID.TID 0000.0001)     ;
(PID.TID 0000.0001) momAdvection =  /* Momentum advection on/off flag */
(PID.TID 0000.0001)                   T
(PID.TID 0000.0001)     ;
(PID.TID 0000.0001) momViscosity =  /* Momentum viscosity on/off flag */
(PID.TID 0000.0001)                   T
(PID.TID 0000.0001)     ;
(PID.TID 0000.0001) momImplVertAdv= /* Momentum implicit vert. advection on/off*/
(PID.TID 0000.0001)                   F
(PID.TID 0000.0001)     ;
(PID.TID 0000.0001) implicitViscosity = /* Implicit viscosity on/off flag */
(PID.TID 0000.0001)                   F
(PID.TID 0000.0001)     ;
(PID.TID 0000.0001) selectImplicitDrag= /* Implicit bot Drag options (0,1,2)*/
(PID.TID 0000.0001)                       0
(PID.TID 0000.0001)     0= Expl. ; 1= Impl. on provis. Vel ; 2= Fully Impl (with surf.P)
(PID.TID 0000.0001)     ;
(PID.TID 0000.0001) selectMetricTerms= /* Metric-Terms on/off flag (=0/1) */
(PID.TID 0000.0001)                       1
(PID.TID 0000.0001)     ;
(PID.TID 0000.0001) useNHMTerms = /* Non-Hydrostatic Metric-Terms on/off */
(PID.TID 0000.0001)                   T
(PID.TID 0000.0001)     ;
(PID.TID 0000.0001) selectCoriMap = /* Coriolis Map options (0,1,2,3)*/
(PID.TID 0000.0001)                       2
(PID.TID 0000.0001)     0= f-Plane ; 1= Beta-Plane ; 2= Spherical ; 3= read from file
(PID.TID 0000.0001)     ;
(PID.TID 0000.0001) select3dCoriScheme= /* 3-D Coriolis on/off flag (=0/1) */
(PID.TID 0000.0001)                       0
(PID.TID 0000.0001)     ;
(PID.TID 0000.0001) useCoriolis =  /* Coriolis on/off flag */
(PID.TID 0000.0001)                   T
(PID.TID 0000.0001)     ;
(PID.TID 0000.0001) useCDscheme =  /* CD scheme on/off flag */
(PID.TID 0000.0001)                   T
(PID.TID 0000.0001)     ;
(PID.TID 0000.0001) selectCoriScheme= /* Scheme selector for Coriolis-Term */
(PID.TID 0000.0001)                       0
(PID.TID 0000.0001)    = 0 : original discretization (simple averaging, no hFac)
(PID.TID 0000.0001)    = 1 : Wet-point averaging (Jamar & Ozer 1986)
(PID.TID 0000.0001)    = 2 : energy conserving scheme (no hFac weight)
(PID.TID 0000.0001)    = 3 : energy conserving scheme using Wet-point averaging
(PID.TID 0000.0001)     ;
(PID.TID 0000.0001) momForcing =  /* Momentum forcing on/off flag */
(PID.TID 0000.0001)                   T
(PID.TID 0000.0001)     ;
(PID.TID 0000.0001) momTidalForcing = /* Momentum Tidal forcing on/off flag */
(PID.TID 0000.0001)                   T
(PID.TID 0000.0001)     ;
(PID.TID 0000.0001) momPressureForcing =  /* Momentum pressure term on/off flag */
(PID.TID 0000.0001)                   T
(PID.TID 0000.0001)     ;
(PID.TID 0000.0001) implicitIntGravWave= /* Implicit Internal Gravity Wave flag */
(PID.TID 0000.0001)                   F
(PID.TID 0000.0001)     ;
(PID.TID 0000.0001) staggerTimeStep =    /* Stagger time stepping on/off flag */
(PID.TID 0000.0001)                   F
(PID.TID 0000.0001)     ;
(PID.TID 0000.0001) doResetHFactors = /* reset thickness factors @ each time-step */
(PID.TID 0000.0001)                   F
(PID.TID 0000.0001)     ;
(PID.TID 0000.0001) multiDimAdvection =  /* enable/disable Multi-Dim Advection */
(PID.TID 0000.0001)                   T
(PID.TID 0000.0001)     ;
(PID.TID 0000.0001) useMultiDimAdvec =   /* Multi-Dim Advection is/is-not used */
(PID.TID 0000.0001)                   F
(PID.TID 0000.0001)     ;
(PID.TID 0000.0001) implicitDiffusion = /* Implicit Diffusion on/off flag */
(PID.TID 0000.0001)                   T
(PID.TID 0000.0001)     ;
(PID.TID 0000.0001) tempStepping =  /* Temperature equation on/off flag */
(PID.TID 0000.0001)                   T
(PID.TID 0000.0001)     ;
(PID.TID 0000.0001) tempAdvection = /* Temperature advection on/off flag */
(PID.TID 0000.0001)                   T
(PID.TID 0000.0001)     ;
(PID.TID 0000.0001) tempImplVertAdv = /* Temp. implicit vert. advection on/off */
(PID.TID 0000.0001)                   F
(PID.TID 0000.0001)     ;
(PID.TID 0000.0001) tempForcing  =  /* Temperature forcing on/off flag */
(PID.TID 0000.0001)                   T
(PID.TID 0000.0001)     ;
(PID.TID 0000.0001) doThetaClimRelax = /* apply SST relaxation on/off flag */
(PID.TID 0000.0001)                   T
(PID.TID 0000.0001)     ;
(PID.TID 0000.0001) tempIsActiveTr = /* Temp. is a dynamically Active Tracer */
(PID.TID 0000.0001)                   T
(PID.TID 0000.0001)     ;
(PID.TID 0000.0001) saltStepping =  /* Salinity equation on/off flag */
(PID.TID 0000.0001)                   T
(PID.TID 0000.0001)     ;
(PID.TID 0000.0001) saltAdvection = /* Salinity advection on/off flag */
(PID.TID 0000.0001)                   T
(PID.TID 0000.0001)     ;
(PID.TID 0000.0001) saltImplVertAdv = /* Sali. implicit vert. advection on/off */
(PID.TID 0000.0001)                   F
(PID.TID 0000.0001)     ;
(PID.TID 0000.0001) saltForcing  =  /* Salinity forcing on/off flag */
(PID.TID 0000.0001)                   T
(PID.TID 0000.0001)     ;
(PID.TID 0000.0001) doSaltClimRelax = /* apply SSS relaxation on/off flag */
(PID.TID 0000.0001)                   T
(PID.TID 0000.0001)     ;
(PID.TID 0000.0001) saltIsActiveTr = /* Salt  is a dynamically Active Tracer */
(PID.TID 0000.0001)                   T
(PID.TID 0000.0001)     ;
(PID.TID 0000.0001)  readBinaryPrec = /* Precision used for reading binary files */
(PID.TID 0000.0001)                      32
(PID.TID 0000.0001)     ;
(PID.TID 0000.0001) writeBinaryPrec = /* Precision used for writing binary files */
(PID.TID 0000.0001)                      32
(PID.TID 0000.0001)     ;
(PID.TID 0000.0001)  rwSuffixType =   /* select format of mds file suffix */
(PID.TID 0000.0001)                       0
(PID.TID 0000.0001)    = 0 : myIter (I10.10) ;   = 1 : 100*myTime (100th sec) ;
(PID.TID 0000.0001)    = 2 : myTime (seconds);   = 3 : myTime/360 (10th of hr);
(PID.TID 0000.0001)    = 4 : myTime/3600 (hours)
(PID.TID 0000.0001)     ;
(PID.TID 0000.0001)  globalFiles = /* write "global" (=not per tile) files */
(PID.TID 0000.0001)                   F
(PID.TID 0000.0001)     ;
(PID.TID 0000.0001)  useSingleCpuIO = /* only master MPI process does I/O */
(PID.TID 0000.0001)                   T
(PID.TID 0000.0001)     ;
(PID.TID 0000.0001)  useSingleCpuInput = /* only master process reads input */
(PID.TID 0000.0001)                   T
(PID.TID 0000.0001)     ;
(PID.TID 0000.0001) /* debLev[*]  : level of debug & auxiliary message printing */
(PID.TID 0000.0001) debLevZero =  0 ; /* level of disabled aux. msg printing */
(PID.TID 0000.0001)    debLevA =  1 ; /* level of minimum  aux. msg printing */
(PID.TID 0000.0001)    debLevB =  2 ; /* level of low aux. print (report read-file opening)*/
(PID.TID 0000.0001)    debLevC =  3 ; /* level of moderate debug prt (most pkgs debug msg) */
(PID.TID 0000.0001)    debLevD =  4 ; /* level of enhanced debug prt (add DEBUG_STATS prt) */
(PID.TID 0000.0001)    debLevE =  5 ; /* level of extensive debug printing */
(PID.TID 0000.0001) debugLevel =  /* select debug printing level */
(PID.TID 0000.0001)                       2
(PID.TID 0000.0001)     ;
(PID.TID 0000.0001)  plotLevel =  /* select PLOT_FIELD printing level */
(PID.TID 0000.0001)                       2
(PID.TID 0000.0001)     ;
(PID.TID 0000.0001) //
(PID.TID 0000.0001) // Elliptic solver(s) paramters ( PARM02 in namelist )
(PID.TID 0000.0001) //
(PID.TID 0000.0001) cg2dMaxIters =   /* Upper limit on 2d con. grad iterations  */
(PID.TID 0000.0001)                     500
(PID.TID 0000.0001)     ;
(PID.TID 0000.0001) cg2dMinItersNSA =   /* Minimum number of iterations of 2d con. grad solver  */
(PID.TID 0000.0001)                       0
(PID.TID 0000.0001)     ;
(PID.TID 0000.0001) cg2dUseMinResSol= /* use cg2d last-iter(=0) / min-resid.(=1) solution */
(PID.TID 0000.0001)                       0
(PID.TID 0000.0001)     ;
(PID.TID 0000.0001) cg2dTargetResidual =   /* 2d con. grad target residual  */
(PID.TID 0000.0001)                 1.000000000000000E-13
(PID.TID 0000.0001)     ;
(PID.TID 0000.0001) cg2dTargetResWunit =   /* CG2d target residual [W units] */
(PID.TID 0000.0001)                -1.000000000000000E+00
(PID.TID 0000.0001)     ;
(PID.TID 0000.0001) cg2dPreCondFreq =   /* Freq. for updating cg2d preconditioner */
(PID.TID 0000.0001)                       1
(PID.TID 0000.0001)     ;
(PID.TID 0000.0001) useSRCGSolver =  /* use single reduction CG solver(s) */
(PID.TID 0000.0001)                   F
(PID.TID 0000.0001)     ;
(PID.TID 0000.0001) useNSACGSolver =  /* use not-self-adjoint CG solver */
(PID.TID 0000.0001)                   F
(PID.TID 0000.0001)     ;
(PID.TID 0000.0001) printResidualFreq = /* Freq. for printing CG residual */
(PID.TID 0000.0001)                       0
(PID.TID 0000.0001)     ;
(PID.TID 0000.0001) //
(PID.TID 0000.0001) // Time stepping paramters ( PARM03 in namelist )
(PID.TID 0000.0001) //
(PID.TID 0000.0001) deltaTMom =   /* Momentum equation timestep ( s ) */
(PID.TID 0000.0001)                 1.200000000000000E+03
(PID.TID 0000.0001)     ;
(PID.TID 0000.0001) deltaTFreeSurf = /* FreeSurface equation timestep ( s ) */
(PID.TID 0000.0001)                 1.200000000000000E+03
(PID.TID 0000.0001)     ;
(PID.TID 0000.0001) dTtracerLev =  /* Tracer equation timestep ( s ) */
(PID.TID 0000.0001)    15 @  4.320000000000000E+04              /* K =  1: 15 */
(PID.TID 0000.0001)     ;
(PID.TID 0000.0001) deltaTClock  =   /* Model clock timestep ( s ) */
(PID.TID 0000.0001)                 4.320000000000000E+04
(PID.TID 0000.0001)     ;
(PID.TID 0000.0001) cAdjFreq =   /* Convective adjustment interval ( s ) */
(PID.TID 0000.0001)                 0.000000000000000E+00
(PID.TID 0000.0001)     ;
(PID.TID 0000.0001) momForcingOutAB = /* =1: take Momentum Forcing out of Adams-Bash. stepping */
(PID.TID 0000.0001)                       0
(PID.TID 0000.0001)     ;
(PID.TID 0000.0001) tracForcingOutAB = /* =1: take T,S,pTr Forcing out of Adams-Bash. stepping */
(PID.TID 0000.0001)                       0
(PID.TID 0000.0001)     ;
(PID.TID 0000.0001) momDissip_In_AB = /* put Dissipation Tendency in Adams-Bash. stepping */
(PID.TID 0000.0001)                   T
(PID.TID 0000.0001)     ;
(PID.TID 0000.0001) doAB_onGtGs = /* apply AB on Tendencies (rather than on T,S)*/
(PID.TID 0000.0001)                   T
(PID.TID 0000.0001)     ;
(PID.TID 0000.0001) abEps =   /* Adams-Bashforth-2 stabilizing weight */
(PID.TID 0000.0001)                 1.000000000000000E-01
(PID.TID 0000.0001)     ;
(PID.TID 0000.0001) applyExchUV_early = /* Apply EXCH to U,V earlier in time-step */
(PID.TID 0000.0001)                   F
(PID.TID 0000.0001)     ;
(PID.TID 0000.0001) tauCD =   /* CD coupling time-scale ( s ) */
(PID.TID 0000.0001)                 3.214280000000000E+05
(PID.TID 0000.0001)     ;
(PID.TID 0000.0001) rCD =   /* Normalised CD coupling parameter */
(PID.TID 0000.0001)                 9.962666600296178E-01
(PID.TID 0000.0001)     ;
(PID.TID 0000.0001) epsAB_CD = /* AB-2 stabilizing weight for CD-scheme*/
(PID.TID 0000.0001)                 1.000000000000000E-01
(PID.TID 0000.0001)     ;
(PID.TID 0000.0001) pickupStrictlyMatch= /* stop if pickup do not strictly match */
(PID.TID 0000.0001)                   T
(PID.TID 0000.0001)     ;
(PID.TID 0000.0001) nIter0   =   /* Run starting timestep number */
(PID.TID 0000.0001)                       0
(PID.TID 0000.0001)     ;
(PID.TID 0000.0001) nTimeSteps = /* Number of timesteps */
(PID.TID 0000.0001)                      20
(PID.TID 0000.0001)     ;
(PID.TID 0000.0001) nEndIter =   /* Run ending timestep number */
(PID.TID 0000.0001)                      20
(PID.TID 0000.0001)     ;
(PID.TID 0000.0001) baseTime =   /* Model base time ( s ) */
(PID.TID 0000.0001)                 0.000000000000000E+00
(PID.TID 0000.0001)     ;
(PID.TID 0000.0001) startTime =  /* Run start time ( s ) */
(PID.TID 0000.0001)                 0.000000000000000E+00
(PID.TID 0000.0001)     ;
(PID.TID 0000.0001) endTime  =   /* Integration ending time ( s ) */
(PID.TID 0000.0001)                 8.640000000000000E+05
(PID.TID 0000.0001)     ;
(PID.TID 0000.0001) pChkPtFreq = /* Permanent restart/pickup file interval ( s ) */
(PID.TID 0000.0001)                 3.110400000000000E+08
(PID.TID 0000.0001)     ;
(PID.TID 0000.0001) chkPtFreq  = /* Rolling restart/pickup file interval ( s ) */
(PID.TID 0000.0001)                 0.000000000000000E+00
(PID.TID 0000.0001)     ;
(PID.TID 0000.0001) pickup_write_mdsio =   /* Model IO flag. */
(PID.TID 0000.0001)                   T
(PID.TID 0000.0001)     ;
(PID.TID 0000.0001) pickup_read_mdsio =   /* Model IO flag. */
(PID.TID 0000.0001)                   T
(PID.TID 0000.0001)     ;
(PID.TID 0000.0001) writePickupAtEnd =   /* Model IO flag. */
(PID.TID 0000.0001)                   T
(PID.TID 0000.0001)     ;
(PID.TID 0000.0001) dumpFreq =   /* Model state write out interval ( s ). */
(PID.TID 0000.0001)                 8.640000000000000E+05
(PID.TID 0000.0001)     ;
(PID.TID 0000.0001) dumpInitAndLast= /* write out Initial & Last iter. model state */
(PID.TID 0000.0001)                   T
(PID.TID 0000.0001)     ;
(PID.TID 0000.0001) snapshot_mdsio =   /* Model IO flag. */
(PID.TID 0000.0001)                   T
(PID.TID 0000.0001)     ;
(PID.TID 0000.0001) monitorFreq =   /* Monitor output interval ( s ). */
(PID.TID 0000.0001)                 1.000000000000000E+00
(PID.TID 0000.0001)     ;
(PID.TID 0000.0001) monitorSelect = /* select group of variables to monitor */
(PID.TID 0000.0001)                       3
(PID.TID 0000.0001)     ;
(PID.TID 0000.0001) monitor_stdio =   /* Model IO flag. */
(PID.TID 0000.0001)                   T
(PID.TID 0000.0001)     ;
(PID.TID 0000.0001) externForcingPeriod =   /* forcing period (s) */
(PID.TID 0000.0001)                 0.000000000000000E+00
(PID.TID 0000.0001)     ;
(PID.TID 0000.0001) externForcingCycle =   /* period of the cyle (s). */
(PID.TID 0000.0001)                 0.000000000000000E+00
(PID.TID 0000.0001)     ;
(PID.TID 0000.0001) tauThetaClimRelax =   /* relaxation time scale (s) */
(PID.TID 0000.0001)                 5.184000000000000E+06
(PID.TID 0000.0001)     ;
(PID.TID 0000.0001) tauSaltClimRelax =   /* relaxation time scale (s) */
(PID.TID 0000.0001)                 1.555200000000000E+07
(PID.TID 0000.0001)     ;
(PID.TID 0000.0001) latBandClimRelax =   /* max. Lat. where relaxation */
(PID.TID 0000.0001)                 1.800000000000000E+02
(PID.TID 0000.0001)     ;
(PID.TID 0000.0001) //
(PID.TID 0000.0001) // Gridding paramters ( PARM04 in namelist )
(PID.TID 0000.0001) //
(PID.TID 0000.0001) usingCartesianGrid = /* Cartesian coordinates flag ( True/False ) */
(PID.TID 0000.0001)                   F
(PID.TID 0000.0001)     ;
(PID.TID 0000.0001) usingCylindricalGrid = /* Cylindrical coordinates flag ( True/False ) */
(PID.TID 0000.0001)                   F
(PID.TID 0000.0001)     ;
(PID.TID 0000.0001) usingSphericalPolarGrid = /* Spherical coordinates flag ( True/False ) */
(PID.TID 0000.0001)                   T
(PID.TID 0000.0001)     ;
(PID.TID 0000.0001) usingCurvilinearGrid = /* Curvilinear coordinates flag ( True/False ) */
(PID.TID 0000.0001)                   F
(PID.TID 0000.0001)     ;
(PID.TID 0000.0001) useMin4hFacEdges = /* set hFacW,S as minimum of adjacent hFacC factor */
(PID.TID 0000.0001)                   F
(PID.TID 0000.0001)     ;
(PID.TID 0000.0001) interViscAr_pCell = /* account for partial-cell in interior vert. viscosity */
(PID.TID 0000.0001)                   F
(PID.TID 0000.0001)     ;
(PID.TID 0000.0001) interDiffKr_pCell = /* account for partial-cell in interior vert. diffusion */
(PID.TID 0000.0001)                   F
(PID.TID 0000.0001)     ;
(PID.TID 0000.0001) pCellMix_select = /* option to enhance mixing near surface & bottom */
(PID.TID 0000.0001)                       0
(PID.TID 0000.0001)     ;
(PID.TID 0000.0001) selectSigmaCoord = /* Hybrid-Sigma Vert. Coordinate option */
(PID.TID 0000.0001)                       0
(PID.TID 0000.0001)     ;
(PID.TID 0000.0001) rSigmaBnd = /* r/sigma transition ( units of r ==  m ) */
(PID.TID 0000.0001)                 1.234567000000000E+05
(PID.TID 0000.0001)     ;
(PID.TID 0000.0001) rkSign =   /* index orientation relative to vertical coordinate */
(PID.TID 0000.0001)                -1.000000000000000E+00
(PID.TID 0000.0001)     ;
(PID.TID 0000.0001) gravitySign = /* gravity orientation relative to vertical coordinate */
(PID.TID 0000.0001)                -1.000000000000000E+00
(PID.TID 0000.0001)     ;
(PID.TID 0000.0001) seaLev_Z =  /* reference height of sea-level [m] */
(PID.TID 0000.0001)                 0.000000000000000E+00
(PID.TID 0000.0001)     ;
(PID.TID 0000.0001) top_Pres =  /* reference pressure at the top [Pa] */
(PID.TID 0000.0001)                 0.000000000000000E+00
(PID.TID 0000.0001)     ;
(PID.TID 0000.0001) mass2rUnit = /* convert mass per unit area [kg/m2] to r-units [m] */
(PID.TID 0000.0001)                 9.661835748792270E-04
(PID.TID 0000.0001)     ;
(PID.TID 0000.0001) rUnit2mass = /* convert r-units [m] to mass per unit area [kg/m2] */
(PID.TID 0000.0001)                 1.035000000000000E+03
(PID.TID 0000.0001)     ;
(PID.TID 0000.0001) drC =   /* C spacing ( units of r ) */
(PID.TID 0000.0001)                 2.500000000000000E+01,      /* K =  1 */
(PID.TID 0000.0001)                 6.000000000000000E+01,      /* K =  2 */
(PID.TID 0000.0001)                 8.500000000000000E+01,      /* K =  3 */
(PID.TID 0000.0001)                 1.200000000000000E+02,      /* K =  4 */
(PID.TID 0000.0001)                 1.650000000000000E+02,      /* K =  5 */
(PID.TID 0000.0001)                 2.150000000000000E+02,      /* K =  6 */
(PID.TID 0000.0001)                 2.650000000000000E+02,      /* K =  7 */
(PID.TID 0000.0001)                 3.150000000000000E+02,      /* K =  8 */
(PID.TID 0000.0001)                 3.650000000000000E+02,      /* K =  9 */
(PID.TID 0000.0001)                 4.150000000000000E+02,      /* K = 10 */
(PID.TID 0000.0001)                 4.650000000000000E+02,      /* K = 11 */
(PID.TID 0000.0001)                 5.150000000000000E+02,      /* K = 12 */
(PID.TID 0000.0001)                 5.650000000000000E+02,      /* K = 13 */
(PID.TID 0000.0001)                 6.150000000000000E+02,      /* K = 14 */
(PID.TID 0000.0001)                 6.650000000000000E+02,      /* K = 15 */
(PID.TID 0000.0001)                 3.450000000000000E+02       /* K = 16 */
(PID.TID 0000.0001)     ;
(PID.TID 0000.0001) drF =   /* W spacing ( units of r ) */
(PID.TID 0000.0001)                 5.000000000000000E+01,      /* K =  1 */
(PID.TID 0000.0001)                 7.000000000000000E+01,      /* K =  2 */
(PID.TID 0000.0001)                 1.000000000000000E+02,      /* K =  3 */
(PID.TID 0000.0001)                 1.400000000000000E+02,      /* K =  4 */
(PID.TID 0000.0001)                 1.900000000000000E+02,      /* K =  5 */
(PID.TID 0000.0001)                 2.400000000000000E+02,      /* K =  6 */
(PID.TID 0000.0001)                 2.900000000000000E+02,      /* K =  7 */
(PID.TID 0000.0001)                 3.400000000000000E+02,      /* K =  8 */
(PID.TID 0000.0001)                 3.900000000000000E+02,      /* K =  9 */
(PID.TID 0000.0001)                 4.400000000000000E+02,      /* K = 10 */
(PID.TID 0000.0001)                 4.900000000000000E+02,      /* K = 11 */
(PID.TID 0000.0001)                 5.400000000000000E+02,      /* K = 12 */
(PID.TID 0000.0001)                 5.900000000000000E+02,      /* K = 13 */
(PID.TID 0000.0001)                 6.400000000000000E+02,      /* K = 14 */
(PID.TID 0000.0001)                 6.900000000000000E+02       /* K = 15 */
(PID.TID 0000.0001)     ;
(PID.TID 0000.0001) delX = /* U spacing ( m - cartesian, degrees - spherical ) */
(PID.TID 0000.0001)    90 @  4.000000000000000E+00              /* I =  1: 90 */
(PID.TID 0000.0001)     ;
(PID.TID 0000.0001) delY = /* V spacing ( m - cartesian, degrees - spherical ) */
(PID.TID 0000.0001)    40 @  4.000000000000000E+00              /* J =  1: 40 */
(PID.TID 0000.0001)     ;
(PID.TID 0000.0001) xgOrigin = /* X-axis origin of West  edge (cartesian: m, lat-lon: deg) */
(PID.TID 0000.0001)                 0.000000000000000E+00
(PID.TID 0000.0001)     ;
(PID.TID 0000.0001) ygOrigin = /* Y-axis origin of South edge (cartesian: m, lat-lon: deg) */
(PID.TID 0000.0001)                -8.000000000000000E+01
(PID.TID 0000.0001)     ;
(PID.TID 0000.0001) rSphere =  /* Radius ( ignored - cartesian, m - spherical ) */
(PID.TID 0000.0001)                 6.370000000000000E+06
(PID.TID 0000.0001)     ;
(PID.TID 0000.0001) deepAtmosphere = /* Deep/Shallow Atmosphere flag (True/False) */
(PID.TID 0000.0001)                   F
(PID.TID 0000.0001)     ;
(PID.TID 0000.0001) xC =  /* xC(:,1,:,1) : P-point X coord ( deg. or m if cartesian) */
(PID.TID 0000.0001)                 2.000000000000000E+00,      /* I =  1 */
(PID.TID 0000.0001)                 6.000000000000000E+00,      /* I =  2 */
(PID.TID 0000.0001)                 1.000000000000000E+01,      /* I =  3 */
(PID.TID 0000.0001)      . . .
(PID.TID 0000.0001)                 8.200000000000000E+01,      /* I = 21 */
(PID.TID 0000.0001)                 8.600000000000000E+01,      /* I = 22 */
(PID.TID 0000.0001)                 9.000000000000000E+01,      /* I = 23 */
(PID.TID 0000.0001)                 9.400000000000000E+01,      /* I = 24 */
(PID.TID 0000.0001)                 9.800000000000000E+01,      /* I = 25 */
(PID.TID 0000.0001)                 1.020000000000000E+02,      /* I = 26 */
(PID.TID 0000.0001)      . . .
(PID.TID 0000.0001)                 1.700000000000000E+02,      /* I = 43 */
(PID.TID 0000.0001)                 1.740000000000000E+02,      /* I = 44 */
(PID.TID 0000.0001)                 1.780000000000000E+02,      /* I = 45 */
(PID.TID 0000.0001)                 1.820000000000000E+02,      /* I = 46 */
(PID.TID 0000.0001)                 1.860000000000000E+02,      /* I = 47 */
(PID.TID 0000.0001)                 1.900000000000000E+02,      /* I = 48 */
(PID.TID 0000.0001)      . . .
(PID.TID 0000.0001)                 2.580000000000000E+02,      /* I = 65 */
(PID.TID 0000.0001)                 2.620000000000000E+02,      /* I = 66 */
(PID.TID 0000.0001)                 2.660000000000000E+02,      /* I = 67 */
(PID.TID 0000.0001)                 2.700000000000000E+02,      /* I = 68 */
(PID.TID 0000.0001)                 2.740000000000000E+02,      /* I = 69 */
(PID.TID 0000.0001)                 2.780000000000000E+02,      /* I = 70 */
(PID.TID 0000.0001)      . . .
(PID.TID 0000.0001)                 3.500000000000000E+02,      /* I = 88 */
(PID.TID 0000.0001)                 3.540000000000000E+02,      /* I = 89 */
(PID.TID 0000.0001)                 3.580000000000000E+02       /* I = 90 */
(PID.TID 0000.0001)     ;
(PID.TID 0000.0001) yC =  /* yC(1,:,1,:) : P-point Y coord ( deg. or m if cartesian) */
(PID.TID 0000.0001)                -7.800000000000000E+01,      /* J =  1 */
(PID.TID 0000.0001)                -7.400000000000000E+01,      /* J =  2 */
(PID.TID 0000.0001)                -7.000000000000000E+01,      /* J =  3 */
(PID.TID 0000.0001)                -6.600000000000000E+01,      /* J =  4 */
(PID.TID 0000.0001)                -6.200000000000000E+01,      /* J =  5 */
(PID.TID 0000.0001)                -5.800000000000000E+01,      /* J =  6 */
(PID.TID 0000.0001)                -5.400000000000000E+01,      /* J =  7 */
(PID.TID 0000.0001)                -5.000000000000000E+01,      /* J =  8 */
(PID.TID 0000.0001)                -4.600000000000000E+01,      /* J =  9 */
(PID.TID 0000.0001)                -4.200000000000000E+01,      /* J = 10 */
(PID.TID 0000.0001)                -3.800000000000000E+01,      /* J = 11 */
(PID.TID 0000.0001)                -3.400000000000000E+01,      /* J = 12 */
(PID.TID 0000.0001)                -3.000000000000000E+01,      /* J = 13 */
(PID.TID 0000.0001)                -2.600000000000000E+01,      /* J = 14 */
(PID.TID 0000.0001)                -2.200000000000000E+01,      /* J = 15 */
(PID.TID 0000.0001)                -1.800000000000000E+01,      /* J = 16 */
(PID.TID 0000.0001)                -1.400000000000000E+01,      /* J = 17 */
(PID.TID 0000.0001)                -1.000000000000000E+01,      /* J = 18 */
(PID.TID 0000.0001)                -6.000000000000000E+00,      /* J = 19 */
(PID.TID 0000.0001)                -2.000000000000000E+00,      /* J = 20 */
(PID.TID 0000.0001)                 2.000000000000000E+00,      /* J = 21 */
(PID.TID 0000.0001)                 6.000000000000000E+00,      /* J = 22 */
(PID.TID 0000.0001)                 1.000000000000000E+01,      /* J = 23 */
(PID.TID 0000.0001)                 1.400000000000000E+01,      /* J = 24 */
(PID.TID 0000.0001)                 1.800000000000000E+01,      /* J = 25 */
(PID.TID 0000.0001)                 2.200000000000000E+01,      /* J = 26 */
(PID.TID 0000.0001)                 2.600000000000000E+01,      /* J = 27 */
(PID.TID 0000.0001)                 3.000000000000000E+01,      /* J = 28 */
(PID.TID 0000.0001)                 3.400000000000000E+01,      /* J = 29 */
(PID.TID 0000.0001)                 3.800000000000000E+01,      /* J = 30 */
(PID.TID 0000.0001)                 4.200000000000000E+01,      /* J = 31 */
(PID.TID 0000.0001)                 4.600000000000000E+01,      /* J = 32 */
(PID.TID 0000.0001)                 5.000000000000000E+01,      /* J = 33 */
(PID.TID 0000.0001)                 5.400000000000000E+01,      /* J = 34 */
(PID.TID 0000.0001)                 5.800000000000000E+01,      /* J = 35 */
(PID.TID 0000.0001)                 6.200000000000000E+01,      /* J = 36 */
(PID.TID 0000.0001)                 6.600000000000000E+01,      /* J = 37 */
(PID.TID 0000.0001)                 7.000000000000000E+01,      /* J = 38 */
(PID.TID 0000.0001)                 7.400000000000000E+01,      /* J = 39 */
(PID.TID 0000.0001)                 7.800000000000000E+01       /* J = 40 */
(PID.TID 0000.0001)     ;
(PID.TID 0000.0001) rcoord = /* P-point R coordinate (  units of r ) */
(PID.TID 0000.0001)                -2.500000000000000E+01,      /* K =  1 */
(PID.TID 0000.0001)                -8.500000000000000E+01,      /* K =  2 */
(PID.TID 0000.0001)                -1.700000000000000E+02,      /* K =  3 */
(PID.TID 0000.0001)                -2.900000000000000E+02,      /* K =  4 */
(PID.TID 0000.0001)                -4.550000000000000E+02,      /* K =  5 */
(PID.TID 0000.0001)                -6.700000000000000E+02,      /* K =  6 */
(PID.TID 0000.0001)                -9.350000000000000E+02,      /* K =  7 */
(PID.TID 0000.0001)                -1.250000000000000E+03,      /* K =  8 */
(PID.TID 0000.0001)                -1.615000000000000E+03,      /* K =  9 */
(PID.TID 0000.0001)                -2.030000000000000E+03,      /* K = 10 */
(PID.TID 0000.0001)                -2.495000000000000E+03,      /* K = 11 */
(PID.TID 0000.0001)                -3.010000000000000E+03,      /* K = 12 */
(PID.TID 0000.0001)                -3.575000000000000E+03,      /* K = 13 */
(PID.TID 0000.0001)                -4.190000000000000E+03,      /* K = 14 */
(PID.TID 0000.0001)                -4.855000000000000E+03       /* K = 15 */
(PID.TID 0000.0001)     ;
(PID.TID 0000.0001) rF =   /* W-Interf. R coordinate (  units of r ) */
(PID.TID 0000.0001)                 0.000000000000000E+00,      /* K =  1 */
(PID.TID 0000.0001)                -5.000000000000000E+01,      /* K =  2 */
(PID.TID 0000.0001)                -1.200000000000000E+02,      /* K =  3 */
(PID.TID 0000.0001)                -2.200000000000000E+02,      /* K =  4 */
(PID.TID 0000.0001)                -3.600000000000000E+02,      /* K =  5 */
(PID.TID 0000.0001)                -5.500000000000000E+02,      /* K =  6 */
(PID.TID 0000.0001)                -7.900000000000000E+02,      /* K =  7 */
(PID.TID 0000.0001)                -1.080000000000000E+03,      /* K =  8 */
(PID.TID 0000.0001)                -1.420000000000000E+03,      /* K =  9 */
(PID.TID 0000.0001)                -1.810000000000000E+03,      /* K = 10 */
(PID.TID 0000.0001)                -2.250000000000000E+03,      /* K = 11 */
(PID.TID 0000.0001)                -2.740000000000000E+03,      /* K = 12 */
(PID.TID 0000.0001)                -3.280000000000000E+03,      /* K = 13 */
(PID.TID 0000.0001)                -3.870000000000000E+03,      /* K = 14 */
(PID.TID 0000.0001)                -4.510000000000000E+03,      /* K = 15 */
(PID.TID 0000.0001)                -5.200000000000000E+03       /* K = 16 */
(PID.TID 0000.0001)     ;
(PID.TID 0000.0001) deepFacC = /* deep-model grid factor @ cell-Center (-) */
(PID.TID 0000.0001)    15 @  1.000000000000000E+00              /* K =  1: 15 */
(PID.TID 0000.0001)     ;
(PID.TID 0000.0001) deepFacF = /* deep-model grid factor @ W-Interface (-) */
(PID.TID 0000.0001)    16 @  1.000000000000000E+00              /* K =  1: 16 */
(PID.TID 0000.0001)     ;
(PID.TID 0000.0001) rotateGrid = /* use rotated grid ( True/False ) */
(PID.TID 0000.0001)                   F
(PID.TID 0000.0001)     ;
(PID.TID 0000.0001) phiEuler = /* Euler angle, rotation about original z-coordinate [rad] */
(PID.TID 0000.0001)                 0.000000000000000E+00
(PID.TID 0000.0001)     ;
(PID.TID 0000.0001) thetaEuler = /* Euler angle, rotation about new x-coordinate [rad] */
(PID.TID 0000.0001)                 0.000000000000000E+00
(PID.TID 0000.0001)     ;
(PID.TID 0000.0001) psiEuler = /* Euler angle, rotation about new z-coordinate [rad] */
(PID.TID 0000.0001)                 0.000000000000000E+00
(PID.TID 0000.0001)     ;
(PID.TID 0000.0001) dxF =  /* dxF(:,1,:,1) ( units: m ) */
(PID.TID 0000.0001)    90 @  9.246038586187513E+04              /* I =  1: 90 */
(PID.TID 0000.0001)     ;
(PID.TID 0000.0001) dxF =  /* dxF(1,:,1,:) ( units: m ) */
(PID.TID 0000.0001)                 9.246038586187513E+04,      /* J =  1 */
(PID.TID 0000.0001)                 1.225786591246834E+05,      /* J =  2 */
(PID.TID 0000.0001)                 1.520997414818001E+05,      /* J =  3 */
(PID.TID 0000.0001)                 1.808798091874300E+05,      /* J =  4 */
(PID.TID 0000.0001)                 2.087786486446736E+05,      /* J =  5 */
(PID.TID 0000.0001)                 2.356603395120765E+05,      /* J =  6 */
(PID.TID 0000.0001)                 2.613939168938713E+05,      /* J =  7 */
(PID.TID 0000.0001)                 2.858540093877838E+05,      /* J =  8 */
(PID.TID 0000.0001)                 3.089214498819034E+05,      /* J =  9 */
(PID.TID 0000.0001)                 3.304838561248741E+05,      /* J = 10 */
(PID.TID 0000.0001)                 3.504361782409254E+05,      /* J = 11 */
(PID.TID 0000.0001)                 3.686812105223082E+05,      /* J = 12 */
(PID.TID 0000.0001)                 3.851300650057323E+05,      /* J = 13 */
(PID.TID 0000.0001)                 3.997026045255871E+05,      /* J = 14 */
(PID.TID 0000.0001)                 4.123278331341585E+05,      /* J = 15 */
(PID.TID 0000.0001)                 4.229442419867491E+05,      /* J = 16 */
(PID.TID 0000.0001)                 4.315001090065870E+05,      /* J = 17 */
(PID.TID 0000.0001)                 4.379537508695838E+05,      /* J = 18 */
(PID.TID 0000.0001)                 4.422737260813012E+05,      /* J = 19 */
(PID.TID 0000.0001)     2 @  4.444389881567502E+05,             /* J = 20: 21 */
(PID.TID 0000.0001)                 4.422737260813012E+05,      /* J = 22 */
(PID.TID 0000.0001)                 4.379537508695838E+05,      /* J = 23 */
(PID.TID 0000.0001)                 4.315001090065870E+05,      /* J = 24 */
(PID.TID 0000.0001)                 4.229442419867491E+05,      /* J = 25 */
(PID.TID 0000.0001)                 4.123278331341585E+05,      /* J = 26 */
(PID.TID 0000.0001)                 3.997026045255871E+05,      /* J = 27 */
(PID.TID 0000.0001)                 3.851300650057323E+05,      /* J = 28 */
(PID.TID 0000.0001)                 3.686812105223082E+05,      /* J = 29 */
(PID.TID 0000.0001)                 3.504361782409254E+05,      /* J = 30 */
(PID.TID 0000.0001)                 3.304838561248741E+05,      /* J = 31 */
(PID.TID 0000.0001)                 3.089214498819034E+05,      /* J = 32 */
(PID.TID 0000.0001)                 2.858540093877838E+05,      /* J = 33 */
(PID.TID 0000.0001)                 2.613939168938713E+05,      /* J = 34 */
(PID.TID 0000.0001)                 2.356603395120765E+05,      /* J = 35 */
(PID.TID 0000.0001)                 2.087786486446736E+05,      /* J = 36 */
(PID.TID 0000.0001)                 1.808798091874300E+05,      /* J = 37 */
(PID.TID 0000.0001)                 1.520997414818001E+05,      /* J = 38 */
(PID.TID 0000.0001)                 1.225786591246834E+05,      /* J = 39 */
(PID.TID 0000.0001)                 9.246038586187513E+04       /* J = 40 */
(PID.TID 0000.0001)     ;
(PID.TID 0000.0001) dyF =  /* dyF(:,1,:,1) ( units: m ) */
(PID.TID 0000.0001)    90 @  4.447098934081552E+05              /* I =  1: 90 */
(PID.TID 0000.0001)     ;
(PID.TID 0000.0001) dyF =  /* dyF(1,:,1,:) ( units: m ) */
(PID.TID 0000.0001)    40 @  4.447098934081552E+05              /* J =  1: 40 */
(PID.TID 0000.0001)     ;
(PID.TID 0000.0001) dxG =  /* dxG(:,1,:,1) ( units: m ) */
(PID.TID 0000.0001)    90 @  7.722306258078101E+04              /* I =  1: 90 */
(PID.TID 0000.0001)     ;
(PID.TID 0000.0001) dxG =  /* dxG(1,:,1,:) ( units: m ) */
(PID.TID 0000.0001)                 7.722306258078101E+04,      /* J =  1 */
(PID.TID 0000.0001)                 1.075850604052271E+05,      /* J =  2 */
(PID.TID 0000.0001)                 1.374229146297914E+05,      /* J =  3 */
(PID.TID 0000.0001)                 1.665912582279823E+05,      /* J =  4 */
(PID.TID 0000.0001)                 1.949479859617814E+05,      /* J =  5 */
(PID.TID 0000.0001)                 2.223549467040777E+05,      /* J =  6 */
(PID.TID 0000.0001)                 2.486786164970726E+05,      /* J =  7 */
(PID.TID 0000.0001)                 2.737907490675810E+05,      /* J =  8 */
(PID.TID 0000.0001)                 2.975690006299821E+05,      /* J =  9 */
(PID.TID 0000.0001)                 3.198975259328452E+05,      /* J = 10 */
(PID.TID 0000.0001)                 3.406675426453503E+05,      /* J = 11 */
(PID.TID 0000.0001)                 3.597778613338690E+05,      /* J = 12 */
(PID.TID 0000.0001)                 3.771353784467131E+05,      /* J = 13 */
(PID.TID 0000.0001)                 3.926555299052806E+05,      /* J = 14 */
(PID.TID 0000.0001)                 4.062627030917454E+05,      /* J = 15 */
(PID.TID 0000.0001)                 4.178906052261313E+05,      /* J = 16 */
(PID.TID 0000.0001)                 4.274825863380723E+05,      /* J = 17 */
(PID.TID 0000.0001)                 4.349919152597734E+05,      /* J = 18 */
(PID.TID 0000.0001)                 4.403820072955634E+05,      /* J = 19 */
(PID.TID 0000.0001)                 4.436266024588540E+05,      /* J = 20 */
(PID.TID 0000.0001)                 4.447098934081552E+05,      /* J = 21 */
(PID.TID 0000.0001)                 4.436266024588540E+05,      /* J = 22 */
(PID.TID 0000.0001)                 4.403820072955634E+05,      /* J = 23 */
(PID.TID 0000.0001)                 4.349919152597734E+05,      /* J = 24 */
(PID.TID 0000.0001)                 4.274825863380723E+05,      /* J = 25 */
(PID.TID 0000.0001)                 4.178906052261313E+05,      /* J = 26 */
(PID.TID 0000.0001)                 4.062627030917454E+05,      /* J = 27 */
(PID.TID 0000.0001)                 3.926555299052806E+05,      /* J = 28 */
(PID.TID 0000.0001)                 3.771353784467131E+05,      /* J = 29 */
(PID.TID 0000.0001)                 3.597778613338690E+05,      /* J = 30 */
(PID.TID 0000.0001)                 3.406675426453503E+05,      /* J = 31 */
(PID.TID 0000.0001)                 3.198975259328452E+05,      /* J = 32 */
(PID.TID 0000.0001)                 2.975690006299821E+05,      /* J = 33 */
(PID.TID 0000.0001)                 2.737907490675810E+05,      /* J = 34 */
(PID.TID 0000.0001)                 2.486786164970726E+05,      /* J = 35 */
(PID.TID 0000.0001)                 2.223549467040777E+05,      /* J = 36 */
(PID.TID 0000.0001)                 1.949479859617814E+05,      /* J = 37 */
(PID.TID 0000.0001)                 1.665912582279823E+05,      /* J = 38 */
(PID.TID 0000.0001)                 1.374229146297914E+05,      /* J = 39 */
(PID.TID 0000.0001)                 1.075850604052271E+05       /* J = 40 */
(PID.TID 0000.0001)     ;
(PID.TID 0000.0001) dyG =  /* dyG(:,1,:,1) ( units: m ) */
(PID.TID 0000.0001)    90 @  4.447098934081552E+05              /* I =  1: 90 */
(PID.TID 0000.0001)     ;
(PID.TID 0000.0001) dyG =  /* dyG(1,:,1,:) ( units: m ) */
(PID.TID 0000.0001)    40 @  4.447098934081552E+05              /* J =  1: 40 */
(PID.TID 0000.0001)     ;
(PID.TID 0000.0001) dxC =  /* dxC(:,1,:,1) ( units: m ) */
(PID.TID 0000.0001)    90 @  9.246038586187513E+04              /* I =  1: 90 */
(PID.TID 0000.0001)     ;
(PID.TID 0000.0001) dxC =  /* dxC(1,:,1,:) ( units: m ) */
(PID.TID 0000.0001)                 9.246038586187513E+04,      /* J =  1 */
(PID.TID 0000.0001)                 1.225786591246834E+05,      /* J =  2 */
(PID.TID 0000.0001)                 1.520997414818001E+05,      /* J =  3 */
(PID.TID 0000.0001)                 1.808798091874300E+05,      /* J =  4 */
(PID.TID 0000.0001)                 2.087786486446736E+05,      /* J =  5 */
(PID.TID 0000.0001)                 2.356603395120765E+05,      /* J =  6 */
(PID.TID 0000.0001)                 2.613939168938713E+05,      /* J =  7 */
(PID.TID 0000.0001)                 2.858540093877838E+05,      /* J =  8 */
(PID.TID 0000.0001)                 3.089214498819034E+05,      /* J =  9 */
(PID.TID 0000.0001)                 3.304838561248741E+05,      /* J = 10 */
(PID.TID 0000.0001)                 3.504361782409254E+05,      /* J = 11 */
(PID.TID 0000.0001)                 3.686812105223082E+05,      /* J = 12 */
(PID.TID 0000.0001)                 3.851300650057323E+05,      /* J = 13 */
(PID.TID 0000.0001)                 3.997026045255871E+05,      /* J = 14 */
(PID.TID 0000.0001)                 4.123278331341585E+05,      /* J = 15 */
(PID.TID 0000.0001)                 4.229442419867491E+05,      /* J = 16 */
(PID.TID 0000.0001)                 4.315001090065870E+05,      /* J = 17 */
(PID.TID 0000.0001)                 4.379537508695838E+05,      /* J = 18 */
(PID.TID 0000.0001)                 4.422737260813012E+05,      /* J = 19 */
(PID.TID 0000.0001)     2 @  4.444389881567502E+05,             /* J = 20: 21 */
(PID.TID 0000.0001)                 4.422737260813012E+05,      /* J = 22 */
(PID.TID 0000.0001)                 4.379537508695838E+05,      /* J = 23 */
(PID.TID 0000.0001)                 4.315001090065870E+05,      /* J = 24 */
(PID.TID 0000.0001)                 4.229442419867491E+05,      /* J = 25 */
(PID.TID 0000.0001)                 4.123278331341585E+05,      /* J = 26 */
(PID.TID 0000.0001)                 3.997026045255871E+05,      /* J = 27 */
(PID.TID 0000.0001)                 3.851300650057323E+05,      /* J = 28 */
(PID.TID 0000.0001)                 3.686812105223082E+05,      /* J = 29 */
(PID.TID 0000.0001)                 3.504361782409254E+05,      /* J = 30 */
(PID.TID 0000.0001)                 3.304838561248741E+05,      /* J = 31 */
(PID.TID 0000.0001)                 3.089214498819034E+05,      /* J = 32 */
(PID.TID 0000.0001)                 2.858540093877838E+05,      /* J = 33 */
(PID.TID 0000.0001)                 2.613939168938713E+05,      /* J = 34 */
(PID.TID 0000.0001)                 2.356603395120765E+05,      /* J = 35 */
(PID.TID 0000.0001)                 2.087786486446736E+05,      /* J = 36 */
(PID.TID 0000.0001)                 1.808798091874300E+05,      /* J = 37 */
(PID.TID 0000.0001)                 1.520997414818001E+05,      /* J = 38 */
(PID.TID 0000.0001)                 1.225786591246834E+05,      /* J = 39 */
(PID.TID 0000.0001)                 9.246038586187513E+04       /* J = 40 */
(PID.TID 0000.0001)     ;
(PID.TID 0000.0001) dyC =  /* dyC(:,1,:,1) ( units: m ) */
(PID.TID 0000.0001)    90 @  4.447098934081552E+05              /* I =  1: 90 */
(PID.TID 0000.0001)     ;
(PID.TID 0000.0001) dyC =  /* dyC(1,:,1,:) ( units: m ) */
(PID.TID 0000.0001)    40 @  4.447098934081552E+05              /* J =  1: 40 */
(PID.TID 0000.0001)     ;
(PID.TID 0000.0001) dxV =  /* dxV(:,1,:,1) ( units: m ) */
(PID.TID 0000.0001)    90 @  7.722306258078101E+04              /* I =  1: 90 */
(PID.TID 0000.0001)     ;
(PID.TID 0000.0001) dxV =  /* dxV(1,:,1,:) ( units: m ) */
(PID.TID 0000.0001)                 7.722306258078101E+04,      /* J =  1 */
(PID.TID 0000.0001)                 1.075850604052271E+05,      /* J =  2 */
(PID.TID 0000.0001)                 1.374229146297914E+05,      /* J =  3 */
(PID.TID 0000.0001)                 1.665912582279823E+05,      /* J =  4 */
(PID.TID 0000.0001)                 1.949479859617814E+05,      /* J =  5 */
(PID.TID 0000.0001)                 2.223549467040777E+05,      /* J =  6 */
(PID.TID 0000.0001)                 2.486786164970726E+05,      /* J =  7 */
(PID.TID 0000.0001)                 2.737907490675810E+05,      /* J =  8 */
(PID.TID 0000.0001)                 2.975690006299821E+05,      /* J =  9 */
(PID.TID 0000.0001)                 3.198975259328452E+05,      /* J = 10 */
(PID.TID 0000.0001)                 3.406675426453503E+05,      /* J = 11 */
(PID.TID 0000.0001)                 3.597778613338690E+05,      /* J = 12 */
(PID.TID 0000.0001)                 3.771353784467131E+05,      /* J = 13 */
(PID.TID 0000.0001)                 3.926555299052806E+05,      /* J = 14 */
(PID.TID 0000.0001)                 4.062627030917454E+05,      /* J = 15 */
(PID.TID 0000.0001)                 4.178906052261313E+05,      /* J = 16 */
(PID.TID 0000.0001)                 4.274825863380723E+05,      /* J = 17 */
(PID.TID 0000.0001)                 4.349919152597734E+05,      /* J = 18 */
(PID.TID 0000.0001)                 4.403820072955634E+05,      /* J = 19 */
(PID.TID 0000.0001)                 4.436266024588540E+05,      /* J = 20 */
(PID.TID 0000.0001)                 4.447098934081552E+05,      /* J = 21 */
(PID.TID 0000.0001)                 4.436266024588540E+05,      /* J = 22 */
(PID.TID 0000.0001)                 4.403820072955634E+05,      /* J = 23 */
(PID.TID 0000.0001)                 4.349919152597734E+05,      /* J = 24 */
(PID.TID 0000.0001)                 4.274825863380723E+05,      /* J = 25 */
(PID.TID 0000.0001)                 4.178906052261313E+05,      /* J = 26 */
(PID.TID 0000.0001)                 4.062627030917454E+05,      /* J = 27 */
(PID.TID 0000.0001)                 3.926555299052806E+05,      /* J = 28 */
(PID.TID 0000.0001)                 3.771353784467131E+05,      /* J = 29 */
(PID.TID 0000.0001)                 3.597778613338690E+05,      /* J = 30 */
(PID.TID 0000.0001)                 3.406675426453503E+05,      /* J = 31 */
(PID.TID 0000.0001)                 3.198975259328452E+05,      /* J = 32 */
(PID.TID 0000.0001)                 2.975690006299821E+05,      /* J = 33 */
(PID.TID 0000.0001)                 2.737907490675810E+05,      /* J = 34 */
(PID.TID 0000.0001)                 2.486786164970726E+05,      /* J = 35 */
(PID.TID 0000.0001)                 2.223549467040777E+05,      /* J = 36 */
(PID.TID 0000.0001)                 1.949479859617814E+05,      /* J = 37 */
(PID.TID 0000.0001)                 1.665912582279823E+05,      /* J = 38 */
(PID.TID 0000.0001)                 1.374229146297914E+05,      /* J = 39 */
(PID.TID 0000.0001)                 1.075850604052271E+05       /* J = 40 */
(PID.TID 0000.0001)     ;
(PID.TID 0000.0001) dyU =  /* dyU(:,1,:,1) ( units: m ) */
(PID.TID 0000.0001)    90 @  4.447098934081552E+05              /* I =  1: 90 */
(PID.TID 0000.0001)     ;
(PID.TID 0000.0001) dyU =  /* dyU(1,:,1,:) ( units: m ) */
(PID.TID 0000.0001)    40 @  4.447098934081552E+05              /* J =  1: 40 */
(PID.TID 0000.0001)     ;
(PID.TID 0000.0001) rA  =  /* rA (:,1,:,1) ( units: m^2 ) */
(PID.TID 0000.0001)    90 @  4.110969866729047E+10              /* I =  1: 90 */
(PID.TID 0000.0001)     ;
(PID.TID 0000.0001) rA  =  /* rA (1,:,1,:) ( units: m^2 ) */
(PID.TID 0000.0001)                 4.110969866729047E+10,      /* J =  1 */
(PID.TID 0000.0001)                 5.450087291636665E+10,      /* J =  2 */
(PID.TID 0000.0001)                 6.762652439100235E+10,      /* J =  3 */
(PID.TID 0000.0001)                 8.042270623659998E+10,      /* J =  4 */
(PID.TID 0000.0001)                 9.282707674147523E+10,      /* J =  5 */
(PID.TID 0000.0001)                 1.047792030594103E+11,      /* J =  6 */
(PID.TID 0000.0001)                 1.162208556324093E+11,      /* J =  7 */
(PID.TID 0000.0001)                 1.270962918792468E+11,      /* J =  8 */
(PID.TID 0000.0001)                 1.373525277677229E+11,      /* J =  9 */
(PID.TID 0000.0001)                 1.469395959475426E+11,      /* J = 10 */
(PID.TID 0000.0001)                 1.558107891862220E+11,      /* J = 11 */
(PID.TID 0000.0001)                 1.639228879220326E+11,      /* J = 12 */
(PID.TID 0000.0001)                 1.712363708253573E+11,      /* J = 13 */
(PID.TID 0000.0001)                 1.777156073426415E+11,      /* J = 14 */
(PID.TID 0000.0001)                 1.833290312848623E+11,      /* J = 15 */
(PID.TID 0000.0001)                 1.880492946148330E+11,      /* J = 16 */
(PID.TID 0000.0001)                 1.918534006840893E+11,      /* J = 17 */
(PID.TID 0000.0001)                 1.947228162702492E+11,      /* J = 18 */
(PID.TID 0000.0001)                 1.966435618690094E+11,      /* J = 19 */
(PID.TID 0000.0001)     2 @  1.976062798008856E+11,             /* J = 20: 21 */
(PID.TID 0000.0001)                 1.966435618690094E+11,      /* J = 22 */
(PID.TID 0000.0001)                 1.947228162702492E+11,      /* J = 23 */
(PID.TID 0000.0001)                 1.918534006840893E+11,      /* J = 24 */
(PID.TID 0000.0001)                 1.880492946148330E+11,      /* J = 25 */
(PID.TID 0000.0001)                 1.833290312848623E+11,      /* J = 26 */
(PID.TID 0000.0001)                 1.777156073426415E+11,      /* J = 27 */
(PID.TID 0000.0001)                 1.712363708253573E+11,      /* J = 28 */
(PID.TID 0000.0001)                 1.639228879220326E+11,      /* J = 29 */
(PID.TID 0000.0001)                 1.558107891862220E+11,      /* J = 30 */
(PID.TID 0000.0001)                 1.469395959475426E+11,      /* J = 31 */
(PID.TID 0000.0001)                 1.373525277677229E+11,      /* J = 32 */
(PID.TID 0000.0001)                 1.270962918792468E+11,      /* J = 33 */
(PID.TID 0000.0001)                 1.162208556324093E+11,      /* J = 34 */
(PID.TID 0000.0001)                 1.047792030594103E+11,      /* J = 35 */
(PID.TID 0000.0001)                 9.282707674147523E+10,      /* J = 36 */
(PID.TID 0000.0001)                 8.042270623659998E+10,      /* J = 37 */
(PID.TID 0000.0001)                 6.762652439100235E+10,      /* J = 38 */
(PID.TID 0000.0001)                 5.450087291636665E+10,      /* J = 39 */
(PID.TID 0000.0001)                 4.110969866729047E+10       /* J = 40 */
(PID.TID 0000.0001)     ;
(PID.TID 0000.0001) rAw =  /* rAw(:,1,:,1) ( units: m^2 ) */
(PID.TID 0000.0001)    90 @  4.110969866729047E+10              /* I =  1: 90 */
(PID.TID 0000.0001)     ;
(PID.TID 0000.0001) rAw =  /* rAw(1,:,1,:) ( units: m^2 ) */
(PID.TID 0000.0001)                 4.110969866729047E+10,      /* J =  1 */
(PID.TID 0000.0001)                 5.450087291636665E+10,      /* J =  2 */
(PID.TID 0000.0001)                 6.762652439100235E+10,      /* J =  3 */
(PID.TID 0000.0001)                 8.042270623659998E+10,      /* J =  4 */
(PID.TID 0000.0001)                 9.282707674147523E+10,      /* J =  5 */
(PID.TID 0000.0001)                 1.047792030594103E+11,      /* J =  6 */
(PID.TID 0000.0001)                 1.162208556324093E+11,      /* J =  7 */
(PID.TID 0000.0001)                 1.270962918792468E+11,      /* J =  8 */
(PID.TID 0000.0001)                 1.373525277677229E+11,      /* J =  9 */
(PID.TID 0000.0001)                 1.469395959475426E+11,      /* J = 10 */
(PID.TID 0000.0001)                 1.558107891862220E+11,      /* J = 11 */
(PID.TID 0000.0001)                 1.639228879220326E+11,      /* J = 12 */
(PID.TID 0000.0001)                 1.712363708253573E+11,      /* J = 13 */
(PID.TID 0000.0001)                 1.777156073426415E+11,      /* J = 14 */
(PID.TID 0000.0001)                 1.833290312848623E+11,      /* J = 15 */
(PID.TID 0000.0001)                 1.880492946148330E+11,      /* J = 16 */
(PID.TID 0000.0001)                 1.918534006840893E+11,      /* J = 17 */
(PID.TID 0000.0001)                 1.947228162702492E+11,      /* J = 18 */
(PID.TID 0000.0001)                 1.966435618690094E+11,      /* J = 19 */
(PID.TID 0000.0001)     2 @  1.976062798008856E+11,             /* J = 20: 21 */
(PID.TID 0000.0001)                 1.966435618690094E+11,      /* J = 22 */
(PID.TID 0000.0001)                 1.947228162702492E+11,      /* J = 23 */
(PID.TID 0000.0001)                 1.918534006840893E+11,      /* J = 24 */
(PID.TID 0000.0001)                 1.880492946148330E+11,      /* J = 25 */
(PID.TID 0000.0001)                 1.833290312848623E+11,      /* J = 26 */
(PID.TID 0000.0001)                 1.777156073426415E+11,      /* J = 27 */
(PID.TID 0000.0001)                 1.712363708253573E+11,      /* J = 28 */
(PID.TID 0000.0001)                 1.639228879220326E+11,      /* J = 29 */
(PID.TID 0000.0001)                 1.558107891862220E+11,      /* J = 30 */
(PID.TID 0000.0001)                 1.469395959475426E+11,      /* J = 31 */
(PID.TID 0000.0001)                 1.373525277677229E+11,      /* J = 32 */
(PID.TID 0000.0001)                 1.270962918792468E+11,      /* J = 33 */
(PID.TID 0000.0001)                 1.162208556324093E+11,      /* J = 34 */
(PID.TID 0000.0001)                 1.047792030594103E+11,      /* J = 35 */
(PID.TID 0000.0001)                 9.282707674147523E+10,      /* J = 36 */
(PID.TID 0000.0001)                 8.042270623659998E+10,      /* J = 37 */
(PID.TID 0000.0001)                 6.762652439100235E+10,      /* J = 38 */
(PID.TID 0000.0001)                 5.450087291636665E+10,      /* J = 39 */
(PID.TID 0000.0001)                 4.110969866729047E+10       /* J = 40 */
(PID.TID 0000.0001)     ;
(PID.TID 0000.0001) rAs =  /* rAs(:,1,:,1) ( units: m^2 ) */
(PID.TID 0000.0001)    90 @  3.433488626798250E+10              /* I =  1: 90 */
(PID.TID 0000.0001)     ;
(PID.TID 0000.0001) rAs =  /* rAs(1,:,1,:) ( units: m^2 ) */
(PID.TID 0000.0001)                 3.433488626798250E+10,      /* J =  1 */
(PID.TID 0000.0001)                 4.783442523123625E+10,      /* J =  2 */
(PID.TID 0000.0001)                 6.110091968306414E+10,      /* J =  3 */
(PID.TID 0000.0001)                 7.406973659603818E+10,      /* J =  4 */
(PID.TID 0000.0001)                 8.667769319778079E+10,      /* J =  5 */
(PID.TID 0000.0001)                 9.886336479107463E+10,      /* J =  6 */
(PID.TID 0000.0001)                 1.105673840088173E+11,      /* J =  7 */
(PID.TID 0000.0001)                 1.217327300458638E+11,      /* J =  8 */
(PID.TID 0000.0001)                 1.323050064586578E+11,      /* J =  9 */
(PID.TID 0000.0001)                 1.422327061792377E+11,      /* J = 10 */
(PID.TID 0000.0001)                 1.514674624524945E+11,      /* J = 11 */
(PID.TID 0000.0001)                 1.599642844741385E+11,      /* J = 12 */
(PID.TID 0000.0001)                 1.676817765813788E+11,      /* J = 13 */
(PID.TID 0000.0001)                 1.745823399284268E+11,      /* J = 14 */
(PID.TID 0000.0001)                 1.806323556642996E+11,      /* J = 15 */
(PID.TID 0000.0001)                 1.858023487204767E+11,      /* J = 16 */
(PID.TID 0000.0001)                 1.900671314104743E+11,      /* J = 17 */
(PID.TID 0000.0001)                 1.934059261417216E+11,      /* J = 18 */
(PID.TID 0000.0001)                 1.958024666419019E+11,      /* J = 19 */
(PID.TID 0000.0001)                 1.972450772065981E+11,      /* J = 20 */
(PID.TID 0000.0001)                 1.977267295821495E+11,      /* J = 21 */
(PID.TID 0000.0001)                 1.972450772065981E+11,      /* J = 22 */
(PID.TID 0000.0001)                 1.958024666419019E+11,      /* J = 23 */
(PID.TID 0000.0001)                 1.934059261417216E+11,      /* J = 24 */
(PID.TID 0000.0001)                 1.900671314104743E+11,      /* J = 25 */
(PID.TID 0000.0001)                 1.858023487204767E+11,      /* J = 26 */
(PID.TID 0000.0001)                 1.806323556642996E+11,      /* J = 27 */
(PID.TID 0000.0001)                 1.745823399284268E+11,      /* J = 28 */
(PID.TID 0000.0001)                 1.676817765813788E+11,      /* J = 29 */
(PID.TID 0000.0001)                 1.599642844741385E+11,      /* J = 30 */
(PID.TID 0000.0001)                 1.514674624524945E+11,      /* J = 31 */
(PID.TID 0000.0001)                 1.422327061792377E+11,      /* J = 32 */
(PID.TID 0000.0001)                 1.323050064586578E+11,      /* J = 33 */
(PID.TID 0000.0001)                 1.217327300458638E+11,      /* J = 34 */
(PID.TID 0000.0001)                 1.105673840088173E+11,      /* J = 35 */
(PID.TID 0000.0001)                 9.886336479107463E+10,      /* J = 36 */
(PID.TID 0000.0001)                 8.667769319778079E+10,      /* J = 37 */
(PID.TID 0000.0001)                 7.406973659603818E+10,      /* J = 38 */
(PID.TID 0000.0001)                 6.110091968306414E+10,      /* J = 39 */
(PID.TID 0000.0001)                 4.783442523123625E+10       /* J = 40 */
(PID.TID 0000.0001)     ;
(PID.TID 0000.0001) globalArea = /* Integrated horizontal Area (m^2) */
(PID.TID 0000.0001)                 3.450614146649751E+14
(PID.TID 0000.0001)     ;
(PID.TID 0000.0001) // =======================================================
(PID.TID 0000.0001) // End of Model config. summary
(PID.TID 0000.0001) // =======================================================
(PID.TID 0000.0001) 
(PID.TID 0000.0001) == Packages configuration : Check & print summary ==
(PID.TID 0000.0001) 
(PID.TID 0000.0001) GMREDI_CHECK: #define GMREDI
(PID.TID 0000.0001) GM_AdvForm =     /* if FALSE => use SkewFlux Form */
(PID.TID 0000.0001)                   F
(PID.TID 0000.0001)     ;
(PID.TID 0000.0001) GM_InMomAsStress = /* if TRUE => apply as Eddy Stress */
(PID.TID 0000.0001)                   F
(PID.TID 0000.0001)     ;
(PID.TID 0000.0001) GM_AdvSeparate = /* Calc Bolus & Euler Adv. separately */
(PID.TID 0000.0001)                   F
(PID.TID 0000.0001)     ;
(PID.TID 0000.0001) GM_ExtraDiag =   /* Tensor Extra Diag (line 1&2) non 0 */
(PID.TID 0000.0001)                   F
(PID.TID 0000.0001)     ;
(PID.TID 0000.0001) GM_isopycK =    /* Background Isopyc. Diffusivity [m^2/s] */
(PID.TID 0000.0001)                 1.000000000000000E+03
(PID.TID 0000.0001)     ;
(PID.TID 0000.0001) GM_advec*K =    /* Backg. GM-Advec(=Bolus) Diffusivity [m^2/s] */
(PID.TID 0000.0001)                 0.000000000000000E+00
(PID.TID 0000.0001)     ;
(PID.TID 0000.0001) GM_skewflx*K =  /* Background GM_SkewFlx Diffusivity [m^2/s] */
(PID.TID 0000.0001)                 1.000000000000000E+03
(PID.TID 0000.0001)     ;
(PID.TID 0000.0001) GM_isoFac_calcK = /* Fraction of dynamic K added to Redi tensor */
(PID.TID 0000.0001)                 1.000000000000000E+00
(PID.TID 0000.0001)     ;
(PID.TID 0000.0001) GM_Kmin_horiz = /* Minimum Horizontal Diffusivity [m^2/s] */
(PID.TID 0000.0001)                 5.000000000000000E+01
(PID.TID 0000.0001)     ;
(PID.TID 0000.0001) GM_Visbeck_alpha = /* Visbeck alpha coeff. [-] */
(PID.TID 0000.0001)                 0.000000000000000E+00
(PID.TID 0000.0001)     ;
(PID.TID 0000.0001) GM_Small_Number =  /* epsilon used in slope calc */
(PID.TID 0000.0001)                 9.999999999999999E-21
(PID.TID 0000.0001)     ;
(PID.TID 0000.0001) GM_slopeSqCutoff = /* Slope^2 cut-off value */
(PID.TID 0000.0001)                 1.000000000000000E+48
(PID.TID 0000.0001)     ;
(PID.TID 0000.0001) GM_taper_scheme =  /* Type of Tapering/Clipping scheme */
(PID.TID 0000.0001)               'gkw91                                   '
(PID.TID 0000.0001)     ;
(PID.TID 0000.0001) GM_maxSlope =  /* Maximum Slope (Tapering/Clipping) */
(PID.TID 0000.0001)                 1.000000000000000E-02
(PID.TID 0000.0001)     ;
(PID.TID 0000.0001) GM_facTrL2dz = /* Minimum Trans.Layer Thick. (factor of dz) */
(PID.TID 0000.0001)                 1.000000000000000E+00
(PID.TID 0000.0001)     ;
(PID.TID 0000.0001) GM_facTrL2ML = /* Max.Trans.Layer Thick. (factor of MxL Depth)*/
(PID.TID 0000.0001)                 5.000000000000000E+00
(PID.TID 0000.0001)     ;
(PID.TID 0000.0001) GM_maxTransLay = /* Maximum Transition Layer Thickness [m] */
(PID.TID 0000.0001)                 5.000000000000000E+02
(PID.TID 0000.0001)     ;
(PID.TID 0000.0001) GM_UseBVP = /* if TRUE => use bvp a la Ferrari et al. (2010) */
(PID.TID 0000.0001)                   F
(PID.TID 0000.0001)     ;
(PID.TID 0000.0001) GM_BVP_ModeNumber = /* Vertical mode number for BVP wave speed */
(PID.TID 0000.0001)                       1
(PID.TID 0000.0001)     ;
(PID.TID 0000.0001) GM_BVP_cMin = /* Minimum wave speed for BVP [m/s] */
(PID.TID 0000.0001)                 1.000000000000000E-01
(PID.TID 0000.0001)     ;
(PID.TID 0000.0001) GM_useSubMeso = /* if TRUE => use Sub-Meso param. (B.Fox-Kemper) */
(PID.TID 0000.0001)                   F
(PID.TID 0000.0001)     ;
(PID.TID 0000.0001) subMeso_Ceff = /* efficiency coeff. of Mixed-Layer Eddies [-] */
(PID.TID 0000.0001)                 7.000000000000001E-02
(PID.TID 0000.0001)     ;
(PID.TID 0000.0001) subMeso_invTau = /* inverse of Sub-Meso mixing time-scale [/s] */
(PID.TID 0000.0001)                 2.000000000000000E-06
(PID.TID 0000.0001)     ;
(PID.TID 0000.0001) subMeso_LfMin = /* minimum length-scale "Lf" [m] */
(PID.TID 0000.0001)                 1.000000000000000E+03
(PID.TID 0000.0001)     ;
(PID.TID 0000.0001) subMeso_Lmax = /* maximum grid-scale length [m] */
(PID.TID 0000.0001)                 1.100000000000000E+05
(PID.TID 0000.0001)     ;
(PID.TID 0000.0001) GM_useLeithQG = /* if TRUE => add QG Leith viscosity to GMRedi tensor */
(PID.TID 0000.0001)                   F
(PID.TID 0000.0001)     ;
(PID.TID 0000.0001) GM_useGEOM = /* using GEOMETRIC */
(PID.TID 0000.0001)                   F
(PID.TID 0000.0001)     ;
(PID.TID 0000.0001) EXF_CHECK: #define ALLOW_EXF
(PID.TID 0000.0001) GAD_CHECK: #define ALLOW_GENERIC_ADVDIFF
(PID.TID 0000.0001) // =======================================================
(PID.TID 0000.0001) // Check Model config. (CONFIG_CHECK):
(PID.TID 0000.0001) // CONFIG_CHECK : Normal End
(PID.TID 0000.0001) // =======================================================
(PID.TID 0000.0001) 
(PID.TID 0000.0001)  MDS_READ_FIELD: opening global file: lev_t.bin
(PID.TID 0000.0001)  MDS_READ_FIELD: opening global file: lev_s.bin
(PID.TID 0000.0001) Start initial hydrostatic pressure computation
(PID.TID 0000.0001) Pressure is predetermined for buoyancyRelation OCEANIC
(PID.TID 0000.0001) 
(PID.TID 0000.0001)  write diagnostics summary to file ioUnit:      6
Iter.Nb:         0 ; Time(s):  0.0000000000000E+00
------------------------------------------------------------------------
2D/3D diagnostics: Number of lists:     3
------------------------------------------------------------------------
listId=    1 ; file name: diagsEXF
 nFlds, nActive,       freq     &     phase        , nLev               
    4  |    4  |   -864000.000000    432000.000000 |   1
 levels:   1
 diag# | name   |   ipt  |  iMate | kLev|   count |   mate.C|           
   197 |EXFtaux |      1 |      0 |   1 |       0 |
   198 |EXFtauy |      2 |      0 |   1 |       0 |
   196 |EXFqnet |      3 |      0 |   1 |       0 |
   209 |EXFempmr|      4 |      0 |   1 |       0 |
------------------------------------------------------------------------
listId=    2 ; file name: diagSurf
 nFlds, nActive,       freq     &     phase        , nLev               
    2  |    2  |   -864000.000000    432000.000000 |   1
 levels:   1
 diag# | name   |   ipt  |  iMate | kLev|   count |   mate.C|           
    26 |THETA   |      5 |      0 |  15 |       0 |
    27 |SALT    |     20 |      0 |  15 |       0 |
------------------------------------------------------------------------
listId=    3 ; file name: diag_vel_k2
 nFlds, nActive,       freq     &     phase        , nLev               
    2  |    2  |   -864000.000000    432000.000000 |   1
 levels:   2
 diag# | name   |   ipt  |  iMate | kLev|   count |   mate.C|           
    30 |UVEL    |     35 |     50 |  15 |       0 |       0 |
    31 |VVEL    |     50 |     35 |  15 |       0 |       0 |
------------------------------------------------------------------------
Global & Regional Statistics diagnostics: Number of lists:     0
------------------------------------------------------------------------
(PID.TID 0000.0001) // =======================================================
(PID.TID 0000.0001) // Model current state
(PID.TID 0000.0001) // =======================================================
(PID.TID 0000.0001) 
(PID.TID 0000.0001) // =======================================================
(PID.TID 0000.0001) // Begin MONITOR dynamic field statistics
(PID.TID 0000.0001) // =======================================================
(PID.TID 0000.0001) %MON time_tsnumber                =                     0
(PID.TID 0000.0001) %MON time_secondsf                =   0.0000000000000E+00
(PID.TID 0000.0001) %MON dynstat_eta_max              =   0.0000000000000E+00
(PID.TID 0000.0001) %MON dynstat_eta_min              =   0.0000000000000E+00
(PID.TID 0000.0001) %MON dynstat_eta_mean             =   0.0000000000000E+00
(PID.TID 0000.0001) %MON dynstat_eta_sd               =   0.0000000000000E+00
(PID.TID 0000.0001) %MON dynstat_eta_del2             =   0.0000000000000E+00
(PID.TID 0000.0001) %MON dynstat_uvel_max             =   0.0000000000000E+00
(PID.TID 0000.0001) %MON dynstat_uvel_min             =   0.0000000000000E+00
(PID.TID 0000.0001) %MON dynstat_uvel_mean            =   0.0000000000000E+00
(PID.TID 0000.0001) %MON dynstat_uvel_sd              =   0.0000000000000E+00
(PID.TID 0000.0001) %MON dynstat_uvel_del2            =   0.0000000000000E+00
(PID.TID 0000.0001) %MON dynstat_vvel_max             =   0.0000000000000E+00
(PID.TID 0000.0001) %MON dynstat_vvel_min             =   0.0000000000000E+00
(PID.TID 0000.0001) %MON dynstat_vvel_mean            =   0.0000000000000E+00
(PID.TID 0000.0001) %MON dynstat_vvel_sd              =   0.0000000000000E+00
(PID.TID 0000.0001) %MON dynstat_vvel_del2            =   0.0000000000000E+00
(PID.TID 0000.0001) %MON dynstat_wvel_max             =  -0.0000000000000E+00
(PID.TID 0000.0001) %MON dynstat_wvel_min             =  -0.0000000000000E+00
(PID.TID 0000.0001) %MON dynstat_wvel_mean            =   0.0000000000000E+00
(PID.TID 0000.0001) %MON dynstat_wvel_sd              =   0.0000000000000E+00
(PID.TID 0000.0001) %MON dynstat_wvel_del2            =   0.0000000000000E+00
(PID.TID 0000.0001) %MON dynstat_theta_max            =   2.9733388900757E+01
(PID.TID 0000.0001) %MON dynstat_theta_min            =  -1.9000000000000E+00
(PID.TID 0000.0001) %MON dynstat_theta_mean           =   3.6197074666131E+00
(PID.TID 0000.0001) %MON dynstat_theta_sd             =   4.4174614518570E+00
(PID.TID 0000.0001) %MON dynstat_theta_del2           =   5.6229722638211E-03
(PID.TID 0000.0001) %MON dynstat_salt_max             =   3.7475627899170E+01
(PID.TID 0000.0001) %MON dynstat_salt_min             =   2.9752769470215E+01
(PID.TID 0000.0001) %MON dynstat_salt_mean            =   3.4718006161477E+01
(PID.TID 0000.0001) %MON dynstat_salt_sd              =   2.9628819587991E-01
(PID.TID 0000.0001) %MON dynstat_salt_del2            =   1.0127003139695E-03
(PID.TID 0000.0001) %MON forcing_qnet_max             =   0.0000000000000E+00
(PID.TID 0000.0001) %MON forcing_qnet_min             =   0.0000000000000E+00
(PID.TID 0000.0001) %MON forcing_qnet_mean            =   0.0000000000000E+00
(PID.TID 0000.0001) %MON forcing_qnet_sd              =   0.0000000000000E+00
(PID.TID 0000.0001) %MON forcing_qnet_del2            =   0.0000000000000E+00
(PID.TID 0000.0001) %MON forcing_qsw_max              =   0.0000000000000E+00
(PID.TID 0000.0001) %MON forcing_qsw_min              =   0.0000000000000E+00
(PID.TID 0000.0001) %MON forcing_qsw_mean             =   0.0000000000000E+00
(PID.TID 0000.0001) %MON forcing_qsw_sd               =   0.0000000000000E+00
(PID.TID 0000.0001) %MON forcing_qsw_del2             =   0.0000000000000E+00
(PID.TID 0000.0001) %MON forcing_empmr_max            =   0.0000000000000E+00
(PID.TID 0000.0001) %MON forcing_empmr_min            =   0.0000000000000E+00
(PID.TID 0000.0001) %MON forcing_empmr_mean           =   0.0000000000000E+00
(PID.TID 0000.0001) %MON forcing_empmr_sd             =   0.0000000000000E+00
(PID.TID 0000.0001) %MON forcing_empmr_del2           =   0.0000000000000E+00
(PID.TID 0000.0001) %MON forcing_fu_max               =   0.0000000000000E+00
(PID.TID 0000.0001) %MON forcing_fu_min               =   0.0000000000000E+00
(PID.TID 0000.0001) %MON forcing_fu_mean              =   0.0000000000000E+00
(PID.TID 0000.0001) %MON forcing_fu_sd                =   0.0000000000000E+00
(PID.TID 0000.0001) %MON forcing_fu_del2              =   0.0000000000000E+00
(PID.TID 0000.0001) %MON forcing_fv_max               =   0.0000000000000E+00
(PID.TID 0000.0001) %MON forcing_fv_min               =   0.0000000000000E+00
(PID.TID 0000.0001) %MON forcing_fv_mean              =   0.0000000000000E+00
(PID.TID 0000.0001) %MON forcing_fv_sd                =   0.0000000000000E+00
(PID.TID 0000.0001) %MON forcing_fv_del2              =   0.0000000000000E+00
(PID.TID 0000.0001) %MON trAdv_CFL_u_max              =   0.0000000000000E+00
(PID.TID 0000.0001) %MON trAdv_CFL_v_max              =   0.0000000000000E+00
(PID.TID 0000.0001) %MON trAdv_CFL_w_max              =   0.0000000000000E+00
(PID.TID 0000.0001) %MON advcfl_uvel_max              =   0.0000000000000E+00
(PID.TID 0000.0001) %MON advcfl_vvel_max              =   0.0000000000000E+00
(PID.TID 0000.0001) %MON advcfl_wvel_max              =   0.0000000000000E+00
(PID.TID 0000.0001) %MON advcfl_W_hf_max              =   0.0000000000000E+00
(PID.TID 0000.0001) %MON pe_b_mean                    =   0.0000000000000E+00
(PID.TID 0000.0001) %MON ke_max                       =   0.0000000000000E+00
(PID.TID 0000.0001) %MON ke_mean                      =   0.0000000000000E+00
(PID.TID 0000.0001) %MON ke_vol                       =   1.3226782436723E+18
(PID.TID 0000.0001) %MON vort_r_min                   =   0.0000000000000E+00
(PID.TID 0000.0001) %MON vort_r_max                   =   0.0000000000000E+00
(PID.TID 0000.0001) %MON vort_a_mean                  =  -2.5205769728597E-05
(PID.TID 0000.0001) %MON vort_a_sd                    =   7.3403301351718E-05
(PID.TID 0000.0001) %MON vort_p_mean                  =  -3.1758669979760E-05
(PID.TID 0000.0001) %MON vort_p_sd                    =   1.3126616755304E-04
(PID.TID 0000.0001) %MON surfExpan_theta_mean         =   0.0000000000000E+00
(PID.TID 0000.0001) %MON surfExpan_salt_mean          =   0.0000000000000E+00
(PID.TID 0000.0001) // =======================================================
(PID.TID 0000.0001) // End MONITOR dynamic field statistics
(PID.TID 0000.0001) // =======================================================
(PID.TID 0000.0001) EXF_SET_FLD: field "climsst", it=         0, loading rec=     1
(PID.TID 0000.0001) EXF_SET_FLD:   from file: "lev_sst_startdec.tmp"
(PID.TID 0000.0001)  EXF_INTERP_READ: opening file: lev_sst_startdec.tmp
(PID.TID 0000.0001)  EXF_INTERP: file="lev_sst_startdec.tmp", rec=     1 , x-Per,P.Sym=    T    T
(PID.TID 0000.0001)  S.edge (j=-1,0,1) : proc= 0.0 0.0 0.0, yIn=  -86.000000  -82.000000  -78.000000
(PID.TID 0000.0001)  N.edge (j=+0,+1,+2) proc= 0.0 0.0 0.0, yIn=   78.000000   82.000000   86.000000
(PID.TID 0000.0001) EXF_SET_FLD: field "climsst", it=         0, loading rec=     2
(PID.TID 0000.0001) EXF_SET_FLD:   from file: "lev_sst_startdec.tmp"
(PID.TID 0000.0001)  EXF_INTERP_READ: opening file: lev_sst_startdec.tmp
(PID.TID 0000.0001)  EXF_INTERP: file="lev_sst_startdec.tmp", rec=     2 , x-Per,P.Sym=    T    T
(PID.TID 0000.0001)  S.edge (j=-1,0,1) : proc= 0.0 0.0 0.0, yIn=  -86.000000  -82.000000  -78.000000
(PID.TID 0000.0001)  N.edge (j=+0,+1,+2) proc= 0.0 0.0 0.0, yIn=   78.000000   82.000000   86.000000
(PID.TID 0000.0001) EXF_SET_FLD: field "climsss", it=         0, loading rec=    12
(PID.TID 0000.0001) EXF_SET_FLD:   from file: "lev_sss.bin"
(PID.TID 0000.0001)  EXF_INTERP_READ: opening file: lev_sss.bin
(PID.TID 0000.0001)  EXF_INTERP: file="lev_sss.bin", rec=    12 , x-Per,P.Sym=    T    T
(PID.TID 0000.0001)  S.edge (j=-1,0,1) : proc= 0.0 0.0 0.0, yIn=  -86.000000  -82.000000  -78.000000
(PID.TID 0000.0001)  N.edge (j=+0,+1,+2) proc= 0.0 0.0 0.0, yIn=   78.000000   82.000000   86.000000
(PID.TID 0000.0001) EXF_SET_FLD: field "climsss", it=         0, loading rec=     1
(PID.TID 0000.0001) EXF_SET_FLD:   from file: "lev_sss.bin"
(PID.TID 0000.0001)  EXF_INTERP_READ: opening file: lev_sss.bin
(PID.TID 0000.0001)  EXF_INTERP: file="lev_sss.bin", rec=     1 , x-Per,P.Sym=    T    T
(PID.TID 0000.0001)  S.edge (j=-1,0,1) : proc= 0.0 0.0 0.0, yIn=  -86.000000  -82.000000  -78.000000
(PID.TID 0000.0001)  N.edge (j=+0,+1,+2) proc= 0.0 0.0 0.0, yIn=   78.000000   82.000000   86.000000
(PID.TID 0000.0001) EXF_SET_FLD: field "ustress", it=         0, loading rec=    12
(PID.TID 0000.0001) EXF_SET_FLD:   from file: "trenberth_taux.bin"
(PID.TID 0000.0001)  EXF_INTERP_READ: opening file: trenberth_taux.bin
(PID.TID 0000.0001)  EXF_INTERP: file="trenberth_taux.bin", rec=    12 , x-Per,P.Sym=    T    T
(PID.TID 0000.0001)  S.edge (j=-1,0,1) : proc= 0.0 0.0 0.0, yIn=  -86.000000  -82.000000  -78.000000
(PID.TID 0000.0001)  N.edge (j=+0,+1,+2) proc= 0.0 0.0 0.0, yIn=   78.000000   82.000000   86.000000
(PID.TID 0000.0001) EXF_SET_FLD: field "ustress", it=         0, loading rec=     1
(PID.TID 0000.0001) EXF_SET_FLD:   from file: "trenberth_taux.bin"
(PID.TID 0000.0001)  EXF_INTERP_READ: opening file: trenberth_taux.bin
(PID.TID 0000.0001)  EXF_INTERP: file="trenberth_taux.bin", rec=     1 , x-Per,P.Sym=    T    T
(PID.TID 0000.0001)  S.edge (j=-1,0,1) : proc= 0.0 0.0 0.0, yIn=  -86.000000  -82.000000  -78.000000
(PID.TID 0000.0001)  N.edge (j=+0,+1,+2) proc= 0.0 0.0 0.0, yIn=   78.000000   82.000000   86.000000
(PID.TID 0000.0001) EXF_SET_FLD: field "vstress", it=         0, loading rec=    12
(PID.TID 0000.0001) EXF_SET_FLD:   from file: "trenberth_tauy.bin"
(PID.TID 0000.0001)  EXF_INTERP_READ: opening file: trenberth_tauy.bin
(PID.TID 0000.0001)  EXF_INTERP: file="trenberth_tauy.bin", rec=    12 , x-Per,P.Sym=    T    T
(PID.TID 0000.0001)  S.edge (j=-1,0,1) : proc= 0.0 0.0 0.0, yIn=  -88.000000  -84.000000  -80.000000
(PID.TID 0000.0001)  N.edge (j=+0,+1,+2) proc= 0.0 0.0 0.0, yIn=   76.000000   80.000000   84.000000
(PID.TID 0000.0001) EXF_SET_FLD: field "vstress", it=         0, loading rec=     1
(PID.TID 0000.0001) EXF_SET_FLD:   from file: "trenberth_tauy.bin"
(PID.TID 0000.0001)  EXF_INTERP_READ: opening file: trenberth_tauy.bin
(PID.TID 0000.0001)  EXF_INTERP: file="trenberth_tauy.bin", rec=     1 , x-Per,P.Sym=    T    T
(PID.TID 0000.0001)  S.edge (j=-1,0,1) : proc= 0.0 0.0 0.0, yIn=  -88.000000  -84.000000  -80.000000
(PID.TID 0000.0001)  N.edge (j=+0,+1,+2) proc= 0.0 0.0 0.0, yIn=   76.000000   80.000000   84.000000
(PID.TID 0000.0001) EXF_SET_FLD: field "hflux", it=         0, loading rec=    12
(PID.TID 0000.0001) EXF_SET_FLD:   from file: "ncep_qnet.bin"
(PID.TID 0000.0001)  EXF_INTERP_READ: opening file: ncep_qnet.bin
(PID.TID 0000.0001)  EXF_INTERP: file="ncep_qnet.bin", rec=    12 , x-Per,P.Sym=    T    T
(PID.TID 0000.0001)  S.edge (j=-1,0,1) : proc= 0.0 0.0 0.0, yIn=  -86.000000  -82.000000  -78.000000
(PID.TID 0000.0001)  N.edge (j=+0,+1,+2) proc= 0.0 0.0 0.0, yIn=   78.000000   82.000000   86.000000
(PID.TID 0000.0001) EXF_SET_FLD: field "hflux", it=         0, loading rec=     1
(PID.TID 0000.0001) EXF_SET_FLD:   from file: "ncep_qnet.bin"
(PID.TID 0000.0001)  EXF_INTERP_READ: opening file: ncep_qnet.bin
(PID.TID 0000.0001)  EXF_INTERP: file="ncep_qnet.bin", rec=     1 , x-Per,P.Sym=    T    T
(PID.TID 0000.0001)  S.edge (j=-1,0,1) : proc= 0.0 0.0 0.0, yIn=  -86.000000  -82.000000  -78.000000
(PID.TID 0000.0001)  N.edge (j=+0,+1,+2) proc= 0.0 0.0 0.0, yIn=   78.000000   82.000000   86.000000
(PID.TID 0000.0001) // =======================================================
(PID.TID 0000.0001) // Begin MONITOR EXF statistics
(PID.TID 0000.0001) // =======================================================
(PID.TID 0000.0001) %MON exf_tsnumber                 =                     0
(PID.TID 0000.0001) %MON exf_time_sec                 =   0.0000000000000E+00
(PID.TID 0000.0001) %MON exf_ustress_max              =   2.7504746150225E-01
(PID.TID 0000.0001) %MON exf_ustress_min              =  -1.5905952523462E-01
(PID.TID 0000.0001) %MON exf_ustress_mean             =   1.5099458143023E-02
(PID.TID 0000.0001) %MON exf_ustress_sd               =   8.8585108033587E-02
(PID.TID 0000.0001) %MON exf_ustress_del2             =   6.6404043672869E-04
(PID.TID 0000.0001) %MON exf_vstress_max              =   2.0339486259036E-01
(PID.TID 0000.0001) %MON exf_vstress_min              =  -1.5535210736562E-01
(PID.TID 0000.0001) %MON exf_vstress_mean             =  -6.4896783635954E-03
(PID.TID 0000.0001) %MON exf_vstress_sd               =   4.4762215730526E-02
(PID.TID 0000.0001) %MON exf_vstress_del2             =   4.2060407074252E-04
(PID.TID 0000.0001) %MON exf_hflux_max                =   4.2589080810547E+02
(PID.TID 0000.0001) %MON exf_hflux_min                =  -1.8702698516846E+02
(PID.TID 0000.0001) %MON exf_hflux_mean               =  -1.6700205338390E+01
(PID.TID 0000.0001) %MON exf_hflux_sd                 =   1.1285666794876E+02
(PID.TID 0000.0001) %MON exf_hflux_del2               =   1.2155960609585E+00
(PID.TID 0000.0001) %MON exf_climsst_max              =   2.9561637878418E+01
(PID.TID 0000.0001) %MON exf_climsst_min              =  -1.9000000000000E+00
(PID.TID 0000.0001) %MON exf_climsst_mean             =   1.8364821435178E+01
(PID.TID 0000.0001) %MON exf_climsst_sd               =   9.2122803951937E+00
(PID.TID 0000.0001) %MON exf_climsst_del2             =   2.4303814016692E-02
(PID.TID 0000.0001) %MON exf_climsss_max              =   3.7451293945312E+01
(PID.TID 0000.0001) %MON exf_climsss_min              =   2.9661429405212E+01
(PID.TID 0000.0001) %MON exf_climsss_mean             =   3.4846753273918E+01
(PID.TID 0000.0001) %MON exf_climsss_sd               =   9.6901487505656E-01
(PID.TID 0000.0001) %MON exf_climsss_del2             =   7.0345793365991E-03
(PID.TID 0000.0001) // =======================================================
(PID.TID 0000.0001) // End MONITOR EXF statistics
(PID.TID 0000.0001) // =======================================================
(PID.TID 0000.0001) SOLVE_FOR_PRESSURE: putPmEinXvector =    F
 cg2d: Sum(rhs),rhsMax =   8.77076189453874E-15  2.53365815236497E+00
(PID.TID 0000.0001)      cg2d_init_res =   6.22518764776291E+00
(PID.TID 0000.0001)      cg2d_iters(min,last) =      -1      26
(PID.TID 0000.0001)      cg2d_last_res =   5.02260596927908E-14
(PID.TID 0000.0001) // =======================================================
(PID.TID 0000.0001) // Begin MONITOR dynamic field statistics
(PID.TID 0000.0001) // =======================================================
(PID.TID 0000.0001) %MON time_tsnumber                =                     1
(PID.TID 0000.0001) %MON time_secondsf                =   4.3200000000000E+04
(PID.TID 0000.0001) %MON dynstat_eta_max              =   1.7856792601737E-01
(PID.TID 0000.0001) %MON dynstat_eta_min              =  -1.1519610008195E-01
(PID.TID 0000.0001) %MON dynstat_eta_mean             =  -1.2523246236313E-17
(PID.TID 0000.0001) %MON dynstat_eta_sd               =   2.6330549890027E-02
(PID.TID 0000.0001) %MON dynstat_eta_del2             =   1.1739962474465E-03
(PID.TID 0000.0001) %MON dynstat_uvel_max             =   8.3420582008132E-03
(PID.TID 0000.0001) %MON dynstat_uvel_min             =  -8.9105084344499E-03
(PID.TID 0000.0001) %MON dynstat_uvel_mean            =  -3.6105404926990E-04
(PID.TID 0000.0001) %MON dynstat_uvel_sd              =   1.2324206270048E-03
(PID.TID 0000.0001) %MON dynstat_uvel_del2            =   1.1701375184118E-05
(PID.TID 0000.0001) %MON dynstat_vvel_max             =   1.8795294842838E-02
(PID.TID 0000.0001) %MON dynstat_vvel_min             =  -1.1293716034417E-02
(PID.TID 0000.0001) %MON dynstat_vvel_mean            =   9.2373633389001E-04
(PID.TID 0000.0001) %MON dynstat_vvel_sd              =   3.4432405846197E-03
(PID.TID 0000.0001) %MON dynstat_vvel_del2            =   1.5589366150165E-05
(PID.TID 0000.0001) %MON dynstat_wvel_max             =   1.5979106098211E-04
(PID.TID 0000.0001) %MON dynstat_wvel_min             =  -1.0324282167793E-04
(PID.TID 0000.0001) %MON dynstat_wvel_mean            =   2.9946446516400E-22
(PID.TID 0000.0001) %MON dynstat_wvel_sd              =   1.6851545532444E-05
(PID.TID 0000.0001) %MON dynstat_wvel_del2            =   2.5393863567958E-07
(PID.TID 0000.0001) %MON dynstat_theta_max            =   2.9730291022209E+01
(PID.TID 0000.0001) %MON dynstat_theta_min            =  -1.9000525678019E+00
(PID.TID 0000.0001) %MON dynstat_theta_mean           =   3.6197399585377E+00
(PID.TID 0000.0001) %MON dynstat_theta_sd             =   4.4171700972254E+00
(PID.TID 0000.0001) %MON dynstat_theta_del2           =   5.6396322430204E-03
(PID.TID 0000.0001) %MON dynstat_salt_max             =   3.7470516461991E+01
(PID.TID 0000.0001) %MON dynstat_salt_min             =   2.9754192314250E+01
(PID.TID 0000.0001) %MON dynstat_salt_mean            =   3.4718006046545E+01
(PID.TID 0000.0001) %MON dynstat_salt_sd              =   2.9615331645460E-01
(PID.TID 0000.0001) %MON dynstat_salt_del2            =   1.0163235006418E-03
(PID.TID 0000.0001) %MON forcing_qnet_max             =   4.2589080810547E+02
(PID.TID 0000.0001) %MON forcing_qnet_min             =  -1.8702698516846E+02
(PID.TID 0000.0001) %MON forcing_qnet_mean            =  -1.6700205338390E+01
(PID.TID 0000.0001) %MON forcing_qnet_sd              =   1.1285666794876E+02
(PID.TID 0000.0001) %MON forcing_qnet_del2            =   9.9079877721394E-01
(PID.TID 0000.0001) %MON forcing_qsw_max              =   0.0000000000000E+00
(PID.TID 0000.0001) %MON forcing_qsw_min              =   0.0000000000000E+00
(PID.TID 0000.0001) %MON forcing_qsw_mean             =   0.0000000000000E+00
(PID.TID 0000.0001) %MON forcing_qsw_sd               =   0.0000000000000E+00
(PID.TID 0000.0001) %MON forcing_qsw_del2             =   0.0000000000000E+00
(PID.TID 0000.0001) %MON forcing_empmr_max            =   0.0000000000000E+00
(PID.TID 0000.0001) %MON forcing_empmr_min            =   0.0000000000000E+00
(PID.TID 0000.0001) %MON forcing_empmr_mean           =   0.0000000000000E+00
(PID.TID 0000.0001) %MON forcing_empmr_sd             =   0.0000000000000E+00
(PID.TID 0000.0001) %MON forcing_empmr_del2           =   0.0000000000000E+00
(PID.TID 0000.0001) %MON forcing_fu_max               =   2.7254342939705E-01
(PID.TID 0000.0001) %MON forcing_fu_min               =  -1.5819683112204E-01
(PID.TID 0000.0001) %MON forcing_fu_mean              =   1.6170461028950E-02
(PID.TID 0000.0001) %MON forcing_fu_sd                =   8.9812760419306E-02
(PID.TID 0000.0001) %MON forcing_fu_del2              =   6.3112946759237E-04
(PID.TID 0000.0001) %MON forcing_fv_max               =   1.9946160190739E-01
(PID.TID 0000.0001) %MON forcing_fv_min               =  -1.5322343428852E-01
(PID.TID 0000.0001) %MON forcing_fv_mean              =  -6.1986725562690E-03
(PID.TID 0000.0001) %MON forcing_fv_sd                =   4.3702936040168E-02
(PID.TID 0000.0001) %MON forcing_fv_del2              =   3.4235733034056E-04
(PID.TID 0000.0001) %MON trAdv_CFL_u_max              =   0.0000000000000E+00
(PID.TID 0000.0001) %MON trAdv_CFL_v_max              =   0.0000000000000E+00
(PID.TID 0000.0001) %MON trAdv_CFL_w_max              =   0.0000000000000E+00
(PID.TID 0000.0001) %MON advcfl_uvel_max              =   2.6522096376261E-03
(PID.TID 0000.0001) %MON advcfl_vvel_max              =   1.8258121738376E-03
(PID.TID 0000.0001) %MON advcfl_wvel_max              =   2.5713781346502E-01
(PID.TID 0000.0001) %MON advcfl_W_hf_max              =   1.3042175452023E-01
(PID.TID 0000.0001) %MON pe_b_mean                    =   8.8715817383896E-07
(PID.TID 0000.0001) %MON ke_max                       =   1.2389954443154E-04
(PID.TID 0000.0001) %MON ke_mean                      =   6.4549805119018E-06
(PID.TID 0000.0001) %MON ke_vol                       =   1.3226782436723E+18
(PID.TID 0000.0001) %MON vort_r_min                   =  -5.9901398426061E-08
(PID.TID 0000.0001) %MON vort_r_max                   =   6.7789694752163E-08
(PID.TID 0000.0001) %MON vort_a_mean                  =  -2.5205769395550E-05
(PID.TID 0000.0001) %MON vort_a_sd                    =   7.3403223083098E-05
(PID.TID 0000.0001) %MON vort_p_mean                  =  -3.1758669560129E-05
(PID.TID 0000.0001) %MON vort_p_sd                    =   1.3126608107829E-04
(PID.TID 0000.0001) %MON surfExpan_theta_mean         =   4.7002825036319E-05
(PID.TID 0000.0001) %MON surfExpan_salt_mean          =   3.5353786111263E-06
(PID.TID 0000.0001) // =======================================================
(PID.TID 0000.0001) // End MONITOR dynamic field statistics
(PID.TID 0000.0001) // =======================================================
(PID.TID 0000.0001) // =======================================================
(PID.TID 0000.0001) // Begin MONITOR EXF statistics
(PID.TID 0000.0001) // =======================================================
(PID.TID 0000.0001) %MON exf_tsnumber                 =                     1
(PID.TID 0000.0001) %MON exf_time_sec                 =   4.3200000000000E+04
(PID.TID 0000.0001) %MON exf_ustress_max              =   2.7486464795807E-01
(PID.TID 0000.0001) %MON exf_ustress_min              =  -1.5869572794726E-01
(PID.TID 0000.0001) %MON exf_ustress_mean             =   1.5097041719780E-02
(PID.TID 0000.0001) %MON exf_ustress_sd               =   8.8576983307984E-02
(PID.TID 0000.0001) %MON exf_ustress_del2             =   6.6445905654959E-04
(PID.TID 0000.0001) %MON exf_vstress_max              =   2.0407605506179E-01
(PID.TID 0000.0001) %MON exf_vstress_min              =  -1.5556250531377E-01
(PID.TID 0000.0001) %MON exf_vstress_mean             =  -6.4568436144395E-03
(PID.TID 0000.0001) %MON exf_vstress_sd               =   4.4808151324693E-02
(PID.TID 0000.0001) %MON exf_vstress_del2             =   4.2036891844593E-04
(PID.TID 0000.0001) %MON exf_hflux_max                =   4.2639799548734E+02
(PID.TID 0000.0001) %MON exf_hflux_min                =  -1.8680093876008E+02
(PID.TID 0000.0001) %MON exf_hflux_mean               =  -1.6694151166218E+01
(PID.TID 0000.0001) %MON exf_hflux_sd                 =   1.1275125285539E+02
(PID.TID 0000.0001) %MON exf_hflux_del2               =   1.2158183111472E+00
(PID.TID 0000.0001) %MON exf_climsst_max              =   2.9553869616601E+01
(PID.TID 0000.0001) %MON exf_climsst_min              =  -1.9000000000000E+00
(PID.TID 0000.0001) %MON exf_climsst_mean             =   1.8368676314521E+01
(PID.TID 0000.0001) %MON exf_climsst_sd               =   9.2103513767114E+00
(PID.TID 0000.0001) %MON exf_climsst_del2             =   2.4267068693234E-02
(PID.TID 0000.0001) %MON exf_climsss_max              =   3.7452078911566E+01
(PID.TID 0000.0001) %MON exf_climsss_min              =   2.9664375858922E+01
(PID.TID 0000.0001) %MON exf_climsss_mean             =   3.4846855596540E+01
(PID.TID 0000.0001) %MON exf_climsss_sd               =   9.6852202071826E-01
(PID.TID 0000.0001) %MON exf_climsss_del2             =   7.0276302495755E-03
(PID.TID 0000.0001) // =======================================================
(PID.TID 0000.0001) // End MONITOR EXF statistics
(PID.TID 0000.0001) // =======================================================
 cg2d: Sum(rhs),rhsMax =   3.43058914609173E-14  5.04328631676188E+00
(PID.TID 0000.0001)      cg2d_init_res =   3.38571155904791E+00
(PID.TID 0000.0001)      cg2d_iters(min,last) =      -1      26
(PID.TID 0000.0001)      cg2d_last_res =   3.25986707812058E-14
(PID.TID 0000.0001) // =======================================================
(PID.TID 0000.0001) // Begin MONITOR dynamic field statistics
(PID.TID 0000.0001) // =======================================================
(PID.TID 0000.0001) %MON time_tsnumber                =                     2
(PID.TID 0000.0001) %MON time_secondsf                =   8.6400000000000E+04
(PID.TID 0000.0001) %MON dynstat_eta_max              =   3.7915272688119E-01
(PID.TID 0000.0001) %MON dynstat_eta_min              =  -2.5419826890794E-01
(PID.TID 0000.0001) %MON dynstat_eta_mean             =  -2.8315271998715E-17
(PID.TID 0000.0001) %MON dynstat_eta_sd               =   6.0698770430749E-02
(PID.TID 0000.0001) %MON dynstat_eta_del2             =   2.2978518809183E-03
(PID.TID 0000.0001) %MON dynstat_uvel_max             =   1.9101371232319E-02
(PID.TID 0000.0001) %MON dynstat_uvel_min             =  -1.7217235270271E-02
(PID.TID 0000.0001) %MON dynstat_uvel_mean            =  -8.9664191724770E-04
(PID.TID 0000.0001) %MON dynstat_uvel_sd              =   2.1424842225980E-03
(PID.TID 0000.0001) %MON dynstat_uvel_del2            =   2.3262539249538E-05
(PID.TID 0000.0001) %MON dynstat_vvel_max             =   3.4043157345943E-02
(PID.TID 0000.0001) %MON dynstat_vvel_min             =  -1.8116086893637E-02
(PID.TID 0000.0001) %MON dynstat_vvel_mean            =   1.7894828682043E-03
(PID.TID 0000.0001) %MON dynstat_vvel_sd              =   6.2759680183127E-03
(PID.TID 0000.0001) %MON dynstat_vvel_del2            =   2.9018049165120E-05
(PID.TID 0000.0001) %MON dynstat_wvel_max             =   2.0933775845147E-04
(PID.TID 0000.0001) %MON dynstat_wvel_min             =  -1.4797845592040E-04
(PID.TID 0000.0001) %MON dynstat_wvel_mean            =  -3.2882372645459E-22
(PID.TID 0000.0001) %MON dynstat_wvel_sd              =   2.4341096785081E-05
(PID.TID 0000.0001) %MON dynstat_wvel_del2            =   2.9285469414341E-07
(PID.TID 0000.0001) %MON dynstat_theta_max            =   2.9678765354021E+01
(PID.TID 0000.0001) %MON dynstat_theta_min            =  -1.9016546498575E+00
(PID.TID 0000.0001) %MON dynstat_theta_mean           =   3.6189252011097E+00
(PID.TID 0000.0001) %MON dynstat_theta_sd             =   4.4153544304667E+00
(PID.TID 0000.0001) %MON dynstat_theta_del2           =   5.5262840947793E-03
(PID.TID 0000.0001) %MON dynstat_salt_max             =   3.7465157835494E+01
(PID.TID 0000.0001) %MON dynstat_salt_min             =   2.9756629555238E+01
(PID.TID 0000.0001) %MON dynstat_salt_mean            =   3.4717942212005E+01
(PID.TID 0000.0001) %MON dynstat_salt_sd              =   2.9608879399319E-01
(PID.TID 0000.0001) %MON dynstat_salt_del2            =   1.0220216493454E-03
(PID.TID 0000.0001) %MON forcing_qnet_max             =   4.2639799548734E+02
(PID.TID 0000.0001) %MON forcing_qnet_min             =  -1.8680093876008E+02
(PID.TID 0000.0001) %MON forcing_qnet_mean            =  -1.6694151166218E+01
(PID.TID 0000.0001) %MON forcing_qnet_sd              =   1.1275125285539E+02
(PID.TID 0000.0001) %MON forcing_qnet_del2            =   9.9127884480556E-01
(PID.TID 0000.0001) %MON forcing_qsw_max              =   0.0000000000000E+00
(PID.TID 0000.0001) %MON forcing_qsw_min              =   0.0000000000000E+00
(PID.TID 0000.0001) %MON forcing_qsw_mean             =   0.0000000000000E+00
(PID.TID 0000.0001) %MON forcing_qsw_sd               =   0.0000000000000E+00
(PID.TID 0000.0001) %MON forcing_qsw_del2             =   0.0000000000000E+00
(PID.TID 0000.0001) %MON forcing_empmr_max            =   0.0000000000000E+00
(PID.TID 0000.0001) %MON forcing_empmr_min            =   0.0000000000000E+00
(PID.TID 0000.0001) %MON forcing_empmr_mean           =   0.0000000000000E+00
(PID.TID 0000.0001) %MON forcing_empmr_sd             =   0.0000000000000E+00
(PID.TID 0000.0001) %MON forcing_empmr_del2           =   0.0000000000000E+00
(PID.TID 0000.0001) %MON forcing_fu_max               =   2.7196717670848E-01
(PID.TID 0000.0001) %MON forcing_fu_min               =  -1.5840981462069E-01
(PID.TID 0000.0001) %MON forcing_fu_mean              =   1.6166498232717E-02
(PID.TID 0000.0001) %MON forcing_fu_sd                =   8.9804319018826E-02
(PID.TID 0000.0001) %MON forcing_fu_del2              =   6.3167413994587E-04
(PID.TID 0000.0001) %MON forcing_fv_max               =   1.9983473034846E-01
(PID.TID 0000.0001) %MON forcing_fv_min               =  -1.5378163959606E-01
(PID.TID 0000.0001) %MON forcing_fv_mean              =  -6.1642200523051E-03
(PID.TID 0000.0001) %MON forcing_fv_sd                =   4.3751877642787E-02
(PID.TID 0000.0001) %MON forcing_fv_del2              =   3.4240553145076E-04
(PID.TID 0000.0001) %MON trAdv_CFL_u_max              =   2.8604260088635E-03
(PID.TID 0000.0001) %MON trAdv_CFL_v_max              =   1.9270644571569E-03
(PID.TID 0000.0001) %MON trAdv_CFL_w_max              =   1.2856890673251E-01
(PID.TID 0000.0001) %MON advcfl_uvel_max              =   4.6878068879685E-03
(PID.TID 0000.0001) %MON advcfl_vvel_max              =   3.3070197428573E-03
(PID.TID 0000.0001) %MON advcfl_wvel_max              =   2.8884211324389E-01
(PID.TID 0000.0001) %MON advcfl_W_hf_max              =   1.4979628407708E-01
(PID.TID 0000.0001) %MON pe_b_mean                    =   4.7145580503625E-06
(PID.TID 0000.0001) %MON ke_max                       =   4.1178263837433E-04
(PID.TID 0000.0001) %MON ke_mean                      =   2.1571197906925E-05
(PID.TID 0000.0001) %MON ke_vol                       =   1.3226782436723E+18
(PID.TID 0000.0001) %MON vort_r_min                   =  -1.0551943651045E-07
(PID.TID 0000.0001) %MON vort_r_max                   =   1.2814693535167E-07
(PID.TID 0000.0001) %MON vort_a_mean                  =  -2.5205769320690E-05
(PID.TID 0000.0001) %MON vort_a_sd                    =   7.3403113119549E-05
(PID.TID 0000.0001) %MON vort_p_mean                  =  -3.1758669465807E-05
(PID.TID 0000.0001) %MON vort_p_sd                    =   1.3126588882246E-04
(PID.TID 0000.0001) %MON surfExpan_theta_mean         =   8.4306353026539E-05
(PID.TID 0000.0001) %MON surfExpan_salt_mean          =   6.7146149386055E-06
(PID.TID 0000.0001) // =======================================================
(PID.TID 0000.0001) // End MONITOR dynamic field statistics
(PID.TID 0000.0001) // =======================================================
(PID.TID 0000.0001) // =======================================================
(PID.TID 0000.0001) // Begin MONITOR EXF statistics
(PID.TID 0000.0001) // =======================================================
(PID.TID 0000.0001) %MON exf_tsnumber                 =                     2
(PID.TID 0000.0001) %MON exf_time_sec                 =   8.6400000000000E+04
(PID.TID 0000.0001) %MON exf_ustress_max              =   2.7468183441388E-01
(PID.TID 0000.0001) %MON exf_ustress_min              =  -1.5898909212481E-01
(PID.TID 0000.0001) %MON exf_ustress_mean             =   1.5094625296536E-02
(PID.TID 0000.0001) %MON exf_ustress_sd               =   8.8571351426244E-02
(PID.TID 0000.0001) %MON exf_ustress_del2             =   6.6499047161844E-04
(PID.TID 0000.0001) %MON exf_vstress_max              =   2.0475724753323E-01
(PID.TID 0000.0001) %MON exf_vstress_min              =  -1.5577290326192E-01
(PID.TID 0000.0001) %MON exf_vstress_mean             =  -6.4240088652837E-03
(PID.TID 0000.0001) %MON exf_vstress_sd               =   4.4857566746679E-02
(PID.TID 0000.0001) %MON exf_vstress_del2             =   4.2022047060497E-04
(PID.TID 0000.0001) %MON exf_hflux_max                =   4.2690518286920E+02
(PID.TID 0000.0001) %MON exf_hflux_min                =  -1.8657489235170E+02
(PID.TID 0000.0001) %MON exf_hflux_mean               =  -1.6688096994045E+01
(PID.TID 0000.0001) %MON exf_hflux_sd                 =   1.1264643288199E+02
(PID.TID 0000.0001) %MON exf_hflux_del2               =   1.2160756403290E+00
(PID.TID 0000.0001) %MON exf_climsst_max              =   2.9546101354784E+01
(PID.TID 0000.0001) %MON exf_climsst_min              =  -1.9000000000000E+00
(PID.TID 0000.0001) %MON exf_climsst_mean             =   1.8372532126253E+01
(PID.TID 0000.0001) %MON exf_climsst_sd               =   9.2084804498398E+00
(PID.TID 0000.0001) %MON exf_climsst_del2             =   2.4239385550137E-02
(PID.TID 0000.0001) %MON exf_climsss_max              =   3.7452863877819E+01
(PID.TID 0000.0001) %MON exf_climsss_min              =   2.9667322312632E+01
(PID.TID 0000.0001) %MON exf_climsss_mean             =   3.4846957919162E+01
(PID.TID 0000.0001) %MON exf_climsss_sd               =   9.6804985052931E-01
(PID.TID 0000.0001) %MON exf_climsss_del2             =   7.0234812904951E-03
(PID.TID 0000.0001) // =======================================================
(PID.TID 0000.0001) // End MONITOR EXF statistics
(PID.TID 0000.0001) // =======================================================
 cg2d: Sum(rhs),rhsMax =   6.05071548420710E-14  6.30277892422355E+00
(PID.TID 0000.0001)      cg2d_init_res =   2.19586493890445E+00
(PID.TID 0000.0001)      cg2d_iters(min,last) =      -1      26
(PID.TID 0000.0001)      cg2d_last_res =   2.87680908200440E-14
(PID.TID 0000.0001) // =======================================================
(PID.TID 0000.0001) // Begin MONITOR dynamic field statistics
(PID.TID 0000.0001) // =======================================================
(PID.TID 0000.0001) %MON time_tsnumber                =                     3
(PID.TID 0000.0001) %MON time_secondsf                =   1.2960000000000E+05
(PID.TID 0000.0001) %MON dynstat_eta_max              =   5.1352076862487E-01
(PID.TID 0000.0001) %MON dynstat_eta_min              =  -3.8373309800804E-01
(PID.TID 0000.0001) %MON dynstat_eta_mean             =  -4.2862048417844E-17
(PID.TID 0000.0001) %MON dynstat_eta_sd               =   9.3230597645192E-02
(PID.TID 0000.0001) %MON dynstat_eta_del2             =   2.8481418790397E-03
(PID.TID 0000.0001) %MON dynstat_uvel_max             =   3.0973752337235E-02
(PID.TID 0000.0001) %MON dynstat_uvel_min             =  -3.0201777248036E-02
(PID.TID 0000.0001) %MON dynstat_uvel_mean            =  -1.5743605164108E-03
(PID.TID 0000.0001) %MON dynstat_uvel_sd              =   3.0396239839232E-03
(PID.TID 0000.0001) %MON dynstat_uvel_del2            =   3.5932530693536E-05
(PID.TID 0000.0001) %MON dynstat_vvel_max             =   4.5165862025749E-02
(PID.TID 0000.0001) %MON dynstat_vvel_min             =  -2.4240234887101E-02
(PID.TID 0000.0001) %MON dynstat_vvel_mean            =   2.5758026067629E-03
(PID.TID 0000.0001) %MON dynstat_vvel_sd              =   8.5723319187484E-03
(PID.TID 0000.0001) %MON dynstat_vvel_del2            =   4.4352985805866E-05
(PID.TID 0000.0001) %MON dynstat_wvel_max             =   1.9630487989858E-04
(PID.TID 0000.0001) %MON dynstat_wvel_min             =  -1.6677642407093E-04
(PID.TID 0000.0001) %MON dynstat_wvel_mean            =  -3.0240039129306E-22
(PID.TID 0000.0001) %MON dynstat_wvel_sd              =   2.6777751470559E-05
(PID.TID 0000.0001) %MON dynstat_wvel_del2            =   2.5539948301427E-07
(PID.TID 0000.0001) %MON dynstat_theta_max            =   2.9641959522482E+01
(PID.TID 0000.0001) %MON dynstat_theta_min            =  -1.9090123076286E+00
(PID.TID 0000.0001) %MON dynstat_theta_mean           =   3.6177554994740E+00
(PID.TID 0000.0001) %MON dynstat_theta_sd             =   4.4129227076567E+00
(PID.TID 0000.0001) %MON dynstat_theta_del2           =   5.4253058251021E-03
(PID.TID 0000.0001) %MON dynstat_salt_max             =   3.7460963400068E+01
(PID.TID 0000.0001) %MON dynstat_salt_min             =   2.9759516772989E+01
(PID.TID 0000.0001) %MON dynstat_salt_mean            =   3.4717844957619E+01
(PID.TID 0000.0001) %MON dynstat_salt_sd              =   2.9610428496974E-01
(PID.TID 0000.0001) %MON dynstat_salt_del2            =   1.0193819735362E-03
(PID.TID 0000.0001) %MON forcing_qnet_max             =   4.2690518286920E+02
(PID.TID 0000.0001) %MON forcing_qnet_min             =  -1.8657489235170E+02
(PID.TID 0000.0001) %MON forcing_qnet_mean            =  -1.6688096994045E+01
(PID.TID 0000.0001) %MON forcing_qnet_sd              =   1.1264643288199E+02
(PID.TID 0000.0001) %MON forcing_qnet_del2            =   9.9180049072513E-01
(PID.TID 0000.0001) %MON forcing_qsw_max              =   0.0000000000000E+00
(PID.TID 0000.0001) %MON forcing_qsw_min              =   0.0000000000000E+00
(PID.TID 0000.0001) %MON forcing_qsw_mean             =   0.0000000000000E+00
(PID.TID 0000.0001) %MON forcing_qsw_sd               =   0.0000000000000E+00
(PID.TID 0000.0001) %MON forcing_qsw_del2             =   0.0000000000000E+00
(PID.TID 0000.0001) %MON forcing_empmr_max            =   0.0000000000000E+00
(PID.TID 0000.0001) %MON forcing_empmr_min            =   0.0000000000000E+00
(PID.TID 0000.0001) %MON forcing_empmr_mean           =   0.0000000000000E+00
(PID.TID 0000.0001) %MON forcing_empmr_sd             =   0.0000000000000E+00
(PID.TID 0000.0001) %MON forcing_empmr_del2           =   0.0000000000000E+00
(PID.TID 0000.0001) %MON forcing_fu_max               =   2.7139092401992E-01
(PID.TID 0000.0001) %MON forcing_fu_min               =  -1.5862279811934E-01
(PID.TID 0000.0001) %MON forcing_fu_mean              =   1.6162535436485E-02
(PID.TID 0000.0001) %MON forcing_fu_sd                =   8.9798344753199E-02
(PID.TID 0000.0001) %MON forcing_fu_del2              =   6.3232674711831E-04
(PID.TID 0000.0001) %MON forcing_fv_max               =   2.0020785878953E-01
(PID.TID 0000.0001) %MON forcing_fv_min               =  -1.5433984490359E-01
(PID.TID 0000.0001) %MON forcing_fv_mean              =  -6.1297675483411E-03
(PID.TID 0000.0001) %MON forcing_fv_sd                =   4.3804145165810E-02
(PID.TID 0000.0001) %MON forcing_fv_del2              =   3.4253116274719E-04
(PID.TID 0000.0001) %MON trAdv_CFL_u_max              =   5.8436372225447E-03
(PID.TID 0000.0001) %MON trAdv_CFL_v_max              =   3.4904139083385E-03
(PID.TID 0000.0001) %MON trAdv_CFL_w_max              =   1.4442105662195E-01
(PID.TID 0000.0001) %MON advcfl_uvel_max              =   5.8964694213359E-03
(PID.TID 0000.0001) %MON advcfl_vvel_max              =   4.3875013091323E-03
(PID.TID 0000.0001) %MON advcfl_wvel_max              =   2.1005379499141E-01
(PID.TID 0000.0001) %MON advcfl_W_hf_max              =   1.0731260721457E-01
(PID.TID 0000.0001) %MON pe_b_mean                    =   1.1122390444206E-05
(PID.TID 0000.0001) %MON ke_max                       =   7.8852357808746E-04
(PID.TID 0000.0001) %MON ke_mean                      =   4.1292846765681E-05
(PID.TID 0000.0001) %MON ke_vol                       =   1.3226782436723E+18
(PID.TID 0000.0001) %MON vort_r_min                   =  -1.5697651630965E-07
(PID.TID 0000.0001) %MON vort_r_max                   =   1.8259712055196E-07
(PID.TID 0000.0001) %MON vort_a_mean                  =  -2.5205769332537E-05
(PID.TID 0000.0001) %MON vort_a_sd                    =   7.3402978978166E-05
(PID.TID 0000.0001) %MON vort_p_mean                  =  -3.1758669480733E-05
(PID.TID 0000.0001) %MON vort_p_sd                    =   1.3126561224035E-04
(PID.TID 0000.0001) %MON surfExpan_theta_mean         =   1.1279066948367E-04
(PID.TID 0000.0001) %MON surfExpan_salt_mean          =   9.3001966291811E-06
(PID.TID 0000.0001) // =======================================================
(PID.TID 0000.0001) // End MONITOR dynamic field statistics
(PID.TID 0000.0001) // =======================================================
(PID.TID 0000.0001) // =======================================================
(PID.TID 0000.0001) // Begin MONITOR EXF statistics
(PID.TID 0000.0001) // =======================================================
(PID.TID 0000.0001) %MON exf_tsnumber                 =                     3
(PID.TID 0000.0001) %MON exf_time_sec                 =   1.2960000000000E+05
(PID.TID 0000.0001) %MON exf_ustress_max              =   2.7449902086969E-01
(PID.TID 0000.0001) %MON exf_ustress_min              =  -1.5928245630235E-01
(PID.TID 0000.0001) %MON exf_ustress_mean             =   1.5092208873293E-02
(PID.TID 0000.0001) %MON exf_ustress_sd               =   8.8568212863912E-02
(PID.TID 0000.0001) %MON exf_ustress_del2             =   6.6563441178208E-04
(PID.TID 0000.0001) %MON exf_vstress_max              =   2.0543844000466E-01
(PID.TID 0000.0001) %MON exf_vstress_min              =  -1.5598330121007E-01
(PID.TID 0000.0001) %MON exf_vstress_mean             =  -6.3911741161278E-03
(PID.TID 0000.0001) %MON exf_vstress_sd               =   4.4910450509816E-02
(PID.TID 0000.0001) %MON exf_vstress_del2             =   4.2015881912126E-04
(PID.TID 0000.0001) %MON exf_hflux_max                =   4.2741237025107E+02
(PID.TID 0000.0001) %MON exf_hflux_min                =  -1.8634884594333E+02
(PID.TID 0000.0001) %MON exf_hflux_mean               =  -1.6682042821873E+01
(PID.TID 0000.0001) %MON exf_hflux_sd                 =   1.1254220969141E+02
(PID.TID 0000.0001) %MON exf_hflux_del2               =   1.2163680262403E+00
(PID.TID 0000.0001) %MON exf_climsst_max              =   2.9538333092966E+01
(PID.TID 0000.0001) %MON exf_climsst_min              =  -1.9000000000000E+00
(PID.TID 0000.0001) %MON exf_climsst_mean             =   1.8376391382744E+01
(PID.TID 0000.0001) %MON exf_climsst_sd               =   9.2066621227686E+00
(PID.TID 0000.0001) %MON exf_climsst_del2             =   2.4220813113014E-02
(PID.TID 0000.0001) %MON exf_climsss_max              =   3.7453648844073E+01
(PID.TID 0000.0001) %MON exf_climsss_min              =   2.9670268766342E+01
(PID.TID 0000.0001) %MON exf_climsss_mean             =   3.4847060241784E+01
(PID.TID 0000.0001) %MON exf_climsss_sd               =   9.6759839477017E-01
(PID.TID 0000.0001) %MON exf_climsss_del2             =   7.0221374226415E-03
(PID.TID 0000.0001) // =======================================================
(PID.TID 0000.0001) // End MONITOR EXF statistics
(PID.TID 0000.0001) // =======================================================
 cg2d: Sum(rhs),rhsMax =   6.11732886568461E-14  6.73015329604829E+00
(PID.TID 0000.0001)      cg2d_init_res =   1.88474668204700E+00
(PID.TID 0000.0001)      cg2d_iters(min,last) =      -1      26
(PID.TID 0000.0001)      cg2d_last_res =   2.57584879993114E-14
(PID.TID 0000.0001) // =======================================================
(PID.TID 0000.0001) // Begin MONITOR dynamic field statistics
(PID.TID 0000.0001) // =======================================================
(PID.TID 0000.0001) %MON time_tsnumber                =                     4
(PID.TID 0000.0001) %MON time_secondsf                =   1.7280000000000E+05
(PID.TID 0000.0001) %MON dynstat_eta_max              =   5.8980026872469E-01
(PID.TID 0000.0001) %MON dynstat_eta_min              =  -4.9950655696406E-01
(PID.TID 0000.0001) %MON dynstat_eta_mean             =  -3.3084010961017E-17
(PID.TID 0000.0001) %MON dynstat_eta_sd               =   1.2310605148864E-01
(PID.TID 0000.0001) %MON dynstat_eta_del2             =   2.9680091873079E-03
(PID.TID 0000.0001) %MON dynstat_uvel_max             =   4.3079140105878E-02
(PID.TID 0000.0001) %MON dynstat_uvel_min             =  -4.2449346695734E-02
(PID.TID 0000.0001) %MON dynstat_uvel_mean            =  -2.3646683234196E-03
(PID.TID 0000.0001) %MON dynstat_uvel_sd              =   4.0717065580383E-03
(PID.TID 0000.0001) %MON dynstat_uvel_del2            =   4.7717020890183E-05
(PID.TID 0000.0001) %MON dynstat_vvel_max             =   5.2464579887817E-02
(PID.TID 0000.0001) %MON dynstat_vvel_min             =  -3.5552914871372E-02
(PID.TID 0000.0001) %MON dynstat_vvel_mean            =   3.2658078622117E-03
(PID.TID 0000.0001) %MON dynstat_vvel_sd              =   1.0459976232043E-02
(PID.TID 0000.0001) %MON dynstat_vvel_del2            =   6.0133770055159E-05
(PID.TID 0000.0001) %MON dynstat_wvel_max             =   1.9964355990553E-04
(PID.TID 0000.0001) %MON dynstat_wvel_min             =  -2.0013748467244E-04
(PID.TID 0000.0001) %MON dynstat_wvel_mean            =   4.5800447613318E-22
(PID.TID 0000.0001) %MON dynstat_wvel_sd              =   2.8360362470233E-05
(PID.TID 0000.0001) %MON dynstat_wvel_del2            =   2.5280970376362E-07
(PID.TID 0000.0001) %MON dynstat_theta_max            =   2.9646150750742E+01
(PID.TID 0000.0001) %MON dynstat_theta_min            =  -1.9213633883229E+00
(PID.TID 0000.0001) %MON dynstat_theta_mean           =   3.6163246033781E+00
(PID.TID 0000.0001) %MON dynstat_theta_sd             =   4.4099812518289E+00
(PID.TID 0000.0001) %MON dynstat_theta_del2           =   5.3824310217557E-03
(PID.TID 0000.0001) %MON dynstat_salt_max             =   3.7457241886862E+01
(PID.TID 0000.0001) %MON dynstat_salt_min             =   2.9762727141692E+01
(PID.TID 0000.0001) %MON dynstat_salt_mean            =   3.4717722586403E+01
(PID.TID 0000.0001) %MON dynstat_salt_sd              =   2.9612097841175E-01
(PID.TID 0000.0001) %MON dynstat_salt_del2            =   1.0178291523988E-03
(PID.TID 0000.0001) %MON forcing_qnet_max             =   4.2741237025107E+02
(PID.TID 0000.0001) %MON forcing_qnet_min             =  -1.8634884594333E+02
(PID.TID 0000.0001) %MON forcing_qnet_mean            =  -1.6682042821873E+01
(PID.TID 0000.0001) %MON forcing_qnet_sd              =   1.1254220969141E+02
(PID.TID 0000.0001) %MON forcing_qnet_del2            =   9.9236364940445E-01
(PID.TID 0000.0001) %MON forcing_qsw_max              =   0.0000000000000E+00
(PID.TID 0000.0001) %MON forcing_qsw_min              =   0.0000000000000E+00
(PID.TID 0000.0001) %MON forcing_qsw_mean             =   0.0000000000000E+00
(PID.TID 0000.0001) %MON forcing_qsw_sd               =   0.0000000000000E+00
(PID.TID 0000.0001) %MON forcing_qsw_del2             =   0.0000000000000E+00
(PID.TID 0000.0001) %MON forcing_empmr_max            =   0.0000000000000E+00
(PID.TID 0000.0001) %MON forcing_empmr_min            =   0.0000000000000E+00
(PID.TID 0000.0001) %MON forcing_empmr_mean           =   0.0000000000000E+00
(PID.TID 0000.0001) %MON forcing_empmr_sd             =   0.0000000000000E+00
(PID.TID 0000.0001) %MON forcing_empmr_del2           =   0.0000000000000E+00
(PID.TID 0000.0001) %MON forcing_fu_max               =   2.7084605023265E-01
(PID.TID 0000.0001) %MON forcing_fu_min               =  -1.5883578161799E-01
(PID.TID 0000.0001) %MON forcing_fu_mean              =   1.6158572640252E-02
(PID.TID 0000.0001) %MON forcing_fu_sd                =   8.9794838114860E-02
(PID.TID 0000.0001) %MON forcing_fu_del2              =   6.3308695532133E-04
(PID.TID 0000.0001) %MON forcing_fv_max               =   2.0058098723060E-01
(PID.TID 0000.0001) %MON forcing_fv_min               =  -1.5489805021113E-01
(PID.TID 0000.0001) %MON forcing_fv_mean              =  -6.0953150443772E-03
(PID.TID 0000.0001) %MON forcing_fv_sd                =   4.3859726718765E-02
(PID.TID 0000.0001) %MON forcing_fv_del2              =   3.4273413908231E-04
(PID.TID 0000.0001) %MON trAdv_CFL_u_max              =   8.0010653096800E-03
(PID.TID 0000.0001) %MON trAdv_CFL_v_max              =   4.6308146860403E-03
(PID.TID 0000.0001) %MON trAdv_CFL_w_max              =   1.0731260721457E-01
(PID.TID 0000.0001) %MON advcfl_uvel_max              =   9.0173783027703E-03
(PID.TID 0000.0001) %MON advcfl_vvel_max              =   5.0965132207516E-03
(PID.TID 0000.0001) %MON advcfl_wvel_max              =   2.3738580665154E-01
(PID.TID 0000.0001) %MON advcfl_W_hf_max              =   1.1887727247589E-01
(PID.TID 0000.0001) %MON pe_b_mean                    =   1.9392777025937E-05
(PID.TID 0000.0001) %MON ke_max                       =   1.2091791178601E-03
(PID.TID 0000.0001) %MON ke_mean                      =   6.3980023001667E-05
(PID.TID 0000.0001) %MON ke_vol                       =   1.3226782436723E+18
(PID.TID 0000.0001) %MON vort_r_min                   =  -2.0451106040061E-07
(PID.TID 0000.0001) %MON vort_r_max                   =   2.3022595507406E-07
(PID.TID 0000.0001) %MON vort_a_mean                  =  -2.5205769332270E-05
(PID.TID 0000.0001) %MON vort_a_sd                    =   7.3402826587367E-05
(PID.TID 0000.0001) %MON vort_p_mean                  =  -3.1758669480397E-05
(PID.TID 0000.0001) %MON vort_p_sd                    =   1.3126525023365E-04
(PID.TID 0000.0001) %MON surfExpan_theta_mean         =   1.3423613533451E-04
(PID.TID 0000.0001) %MON surfExpan_salt_mean          =   1.1190667673831E-05
(PID.TID 0000.0001) // =======================================================
(PID.TID 0000.0001) // End MONITOR dynamic field statistics
(PID.TID 0000.0001) // =======================================================
(PID.TID 0000.0001) // =======================================================
(PID.TID 0000.0001) // Begin MONITOR EXF statistics
(PID.TID 0000.0001) // =======================================================
(PID.TID 0000.0001) %MON exf_tsnumber                 =                     4
(PID.TID 0000.0001) %MON exf_time_sec                 =   1.7280000000000E+05
(PID.TID 0000.0001) %MON exf_ustress_max              =   2.7431620732551E-01
(PID.TID 0000.0001) %MON exf_ustress_min              =  -1.5957582047990E-01
(PID.TID 0000.0001) %MON exf_ustress_mean             =   1.5089792450049E-02
(PID.TID 0000.0001) %MON exf_ustress_sd               =   8.8567567886054E-02
(PID.TID 0000.0001) %MON exf_ustress_del2             =   6.6639055083805E-04
(PID.TID 0000.0001) %MON exf_vstress_max              =   2.0611963247610E-01
(PID.TID 0000.0001) %MON exf_vstress_min              =  -1.5619369915822E-01
(PID.TID 0000.0001) %MON exf_vstress_mean             =  -6.3583393669720E-03
(PID.TID 0000.0001) %MON exf_vstress_sd               =   4.4966790377145E-02
(PID.TID 0000.0001) %MON exf_vstress_del2             =   4.2018400220037E-04
(PID.TID 0000.0001) %MON exf_hflux_max                =   4.2791955763294E+02
(PID.TID 0000.0001) %MON exf_hflux_min                =  -1.8612279953495E+02
(PID.TID 0000.0001) %MON exf_hflux_mean               =  -1.6675988649700E+01
(PID.TID 0000.0001) %MON exf_hflux_sd                 =   1.1243858494319E+02
(PID.TID 0000.0001) %MON exf_hflux_del2               =   1.2166954436077E+00
(PID.TID 0000.0001) %MON exf_climsst_max              =   2.9530564831149E+01
(PID.TID 0000.0001) %MON exf_climsst_min              =  -1.9000000000000E+00
(PID.TID 0000.0001) %MON exf_climsst_mean             =   1.8380250639235E+01
(PID.TID 0000.0001) %MON exf_climsst_sd               =   9.2049040151256E+00
(PID.TID 0000.0001) %MON exf_climsst_del2             =   2.4211345121699E-02
(PID.TID 0000.0001) %MON exf_climsss_max              =   3.7454433810326E+01
(PID.TID 0000.0001) %MON exf_climsss_min              =   2.9673215220051E+01
(PID.TID 0000.0001) %MON exf_climsss_mean             =   3.4847162564407E+01
(PID.TID 0000.0001) %MON exf_climsss_sd               =   9.6716768244817E-01
(PID.TID 0000.0001) %MON exf_climsss_del2             =   7.0236002561602E-03
(PID.TID 0000.0001) // =======================================================
(PID.TID 0000.0001) // End MONITOR EXF statistics
(PID.TID 0000.0001) // =======================================================
 cg2d: Sum(rhs),rhsMax =   9.28701560098943E-14  6.87318573689881E+00
(PID.TID 0000.0001)      cg2d_init_res =   1.77803761670306E+00
(PID.TID 0000.0001)      cg2d_iters(min,last) =      -1      26
(PID.TID 0000.0001)      cg2d_last_res =   2.65367470769855E-14
(PID.TID 0000.0001) // =======================================================
(PID.TID 0000.0001) // Begin MONITOR dynamic field statistics
(PID.TID 0000.0001) // =======================================================
(PID.TID 0000.0001) %MON time_tsnumber                =                     5
(PID.TID 0000.0001) %MON time_secondsf                =   2.1600000000000E+05
(PID.TID 0000.0001) %MON dynstat_eta_max              =   6.3427750397451E-01
(PID.TID 0000.0001) %MON dynstat_eta_min              =  -5.7830146517325E-01
(PID.TID 0000.0001) %MON dynstat_eta_mean             =  -2.9206757324011E-17
(PID.TID 0000.0001) %MON dynstat_eta_sd               =   1.5136811725990E-01
(PID.TID 0000.0001) %MON dynstat_eta_del2             =   2.8940905725109E-03
(PID.TID 0000.0001) %MON dynstat_uvel_max             =   5.4950199710953E-02
(PID.TID 0000.0001) %MON dynstat_uvel_min             =  -5.2651515900208E-02
(PID.TID 0000.0001) %MON dynstat_uvel_mean            =  -3.2365894408564E-03
(PID.TID 0000.0001) %MON dynstat_uvel_sd              =   5.2143262781100E-03
(PID.TID 0000.0001) %MON dynstat_uvel_del2            =   5.7800684141570E-05
(PID.TID 0000.0001) %MON dynstat_vvel_max             =   5.6779208836622E-02
(PID.TID 0000.0001) %MON dynstat_vvel_min             =  -4.6216111082046E-02
(PID.TID 0000.0001) %MON dynstat_vvel_mean            =   3.8456463016543E-03
(PID.TID 0000.0001) %MON dynstat_vvel_sd              =   1.1979380343296E-02
(PID.TID 0000.0001) %MON dynstat_vvel_del2            =   7.3997894009232E-05
(PID.TID 0000.0001) %MON dynstat_wvel_max             =   2.2550101237176E-04
(PID.TID 0000.0001) %MON dynstat_wvel_min             =  -2.3040351542218E-04
(PID.TID 0000.0001) %MON dynstat_wvel_mean            =   1.0334459974287E-21
(PID.TID 0000.0001) %MON dynstat_wvel_sd              =   2.9942224356525E-05
(PID.TID 0000.0001) %MON dynstat_wvel_del2            =   2.7838157175477E-07
(PID.TID 0000.0001) %MON dynstat_theta_max            =   2.9675715073661E+01
(PID.TID 0000.0001) %MON dynstat_theta_min            =  -1.9436957699002E+00
(PID.TID 0000.0001) %MON dynstat_theta_mean           =   3.6146999597527E+00
(PID.TID 0000.0001) %MON dynstat_theta_sd             =   4.4066331756119E+00
(PID.TID 0000.0001) %MON dynstat_theta_del2           =   5.3657918158079E-03
(PID.TID 0000.0001) %MON dynstat_salt_max             =   3.7453470866256E+01
(PID.TID 0000.0001) %MON dynstat_salt_min             =   2.9766121024830E+01
(PID.TID 0000.0001) %MON dynstat_salt_mean            =   3.4717583618833E+01
(PID.TID 0000.0001) %MON dynstat_salt_sd              =   2.9614402789755E-01
(PID.TID 0000.0001) %MON dynstat_salt_del2            =   1.0161598472877E-03
(PID.TID 0000.0001) %MON forcing_qnet_max             =   4.2791955763294E+02
(PID.TID 0000.0001) %MON forcing_qnet_min             =  -1.8612279953495E+02
(PID.TID 0000.0001) %MON forcing_qnet_mean            =  -1.6675988649700E+01
(PID.TID 0000.0001) %MON forcing_qnet_sd              =   1.1243858494319E+02
(PID.TID 0000.0001) %MON forcing_qnet_del2            =   9.9296825021206E-01
(PID.TID 0000.0001) %MON forcing_qsw_max              =   0.0000000000000E+00
(PID.TID 0000.0001) %MON forcing_qsw_min              =   0.0000000000000E+00
(PID.TID 0000.0001) %MON forcing_qsw_mean             =   0.0000000000000E+00
(PID.TID 0000.0001) %MON forcing_qsw_sd               =   0.0000000000000E+00
(PID.TID 0000.0001) %MON forcing_qsw_del2             =   0.0000000000000E+00
(PID.TID 0000.0001) %MON forcing_empmr_max            =   0.0000000000000E+00
(PID.TID 0000.0001) %MON forcing_empmr_min            =   0.0000000000000E+00
(PID.TID 0000.0001) %MON forcing_empmr_mean           =   0.0000000000000E+00
(PID.TID 0000.0001) %MON forcing_empmr_sd             =   0.0000000000000E+00
(PID.TID 0000.0001) %MON forcing_empmr_del2           =   0.0000000000000E+00
(PID.TID 0000.0001) %MON forcing_fu_max               =   2.7031988697127E-01
(PID.TID 0000.0001) %MON forcing_fu_min               =  -1.5904876511664E-01
(PID.TID 0000.0001) %MON forcing_fu_mean              =   1.6154609844020E-02
(PID.TID 0000.0001) %MON forcing_fu_sd                =   8.9793799392907E-02
(PID.TID 0000.0001) %MON forcing_fu_del2              =   6.3395437746480E-04
(PID.TID 0000.0001) %MON forcing_fv_max               =   2.0095411567168E-01
(PID.TID 0000.0001) %MON forcing_fv_min               =  -1.5545625551867E-01
(PID.TID 0000.0001) %MON forcing_fv_mean              =  -6.0608625404132E-03
(PID.TID 0000.0001) %MON forcing_fv_sd                =   4.3918609719364E-02
(PID.TID 0000.0001) %MON forcing_fv_del2              =   3.4301432315100E-04
(PID.TID 0000.0001) %MON trAdv_CFL_u_max              =   9.6499360052438E-03
(PID.TID 0000.0001) %MON trAdv_CFL_v_max              =   6.6184808450452E-03
(PID.TID 0000.0001) %MON trAdv_CFL_w_max              =   1.1869290332577E-01
(PID.TID 0000.0001) %MON advcfl_uvel_max              =   1.1571798402932E-02
(PID.TID 0000.0001) %MON advcfl_vvel_max              =   5.5156448239636E-03
(PID.TID 0000.0001) %MON advcfl_wvel_max              =   2.4517904727380E-01
(PID.TID 0000.0001) %MON advcfl_W_hf_max              =   1.2451115754167E-01
(PID.TID 0000.0001) %MON pe_b_mean                    =   2.9319058392945E-05
(PID.TID 0000.0001) %MON ke_max                       =   1.6830000159428E-03
(PID.TID 0000.0001) %MON ke_mean                      =   8.8177010507206E-05
(PID.TID 0000.0001) %MON ke_vol                       =   1.3226782436723E+18
(PID.TID 0000.0001) %MON vort_r_min                   =  -2.4557033618441E-07
(PID.TID 0000.0001) %MON vort_r_max                   =   2.6976965026101E-07
(PID.TID 0000.0001) %MON vort_a_mean                  =  -2.5205769327762E-05
(PID.TID 0000.0001) %MON vort_a_sd                    =   7.3402660980169E-05
(PID.TID 0000.0001) %MON vort_p_mean                  =  -3.1758669474718E-05
(PID.TID 0000.0001) %MON vort_p_sd                    =   1.3126480955280E-04
(PID.TID 0000.0001) %MON surfExpan_theta_mean         =   1.4955640151869E-04
(PID.TID 0000.0001) %MON surfExpan_salt_mean          =   1.2439798324053E-05
(PID.TID 0000.0001) // =======================================================
(PID.TID 0000.0001) // End MONITOR dynamic field statistics
(PID.TID 0000.0001) // =======================================================
(PID.TID 0000.0001) // =======================================================
(PID.TID 0000.0001) // Begin MONITOR EXF statistics
(PID.TID 0000.0001) // =======================================================
(PID.TID 0000.0001) %MON exf_tsnumber                 =                     5
(PID.TID 0000.0001) %MON exf_time_sec                 =   2.1600000000000E+05
(PID.TID 0000.0001) %MON exf_ustress_max              =   2.7413339378132E-01
(PID.TID 0000.0001) %MON exf_ustress_min              =  -1.5986918465745E-01
(PID.TID 0000.0001) %MON exf_ustress_mean             =   1.5087376026806E-02
(PID.TID 0000.0001) %MON exf_ustress_sd               =   8.8569416547148E-02
(PID.TID 0000.0001) %MON exf_ustress_del2             =   6.6725850735425E-04
(PID.TID 0000.0001) %MON exf_vstress_max              =   2.0680082494754E-01
(PID.TID 0000.0001) %MON exf_vstress_min              =  -1.5640409710637E-01
(PID.TID 0000.0001) %MON exf_vstress_mean             =  -6.3255046178162E-03
(PID.TID 0000.0001) %MON exf_vstress_sd               =   4.5026573375235E-02
(PID.TID 0000.0001) %MON exf_vstress_del2             =   4.2029600423359E-04
(PID.TID 0000.0001) %MON exf_hflux_max                =   4.2842674501481E+02
(PID.TID 0000.0001) %MON exf_hflux_min                =  -1.8589675312658E+02
(PID.TID 0000.0001) %MON exf_hflux_mean               =  -1.6669934477528E+01
(PID.TID 0000.0001) %MON exf_hflux_sd                 =   1.1233556029344E+02
(PID.TID 0000.0001) %MON exf_hflux_del2               =   1.2170578641582E+00
(PID.TID 0000.0001) %MON exf_climsst_max              =   2.9522796569332E+01
(PID.TID 0000.0001) %MON exf_climsst_min              =  -1.9000000000000E+00
(PID.TID 0000.0001) %MON exf_climsst_mean             =   1.8384109895727E+01
(PID.TID 0000.0001) %MON exf_climsst_sd               =   9.2032061614222E+00
(PID.TID 0000.0001) %MON exf_climsst_del2             =   2.4210992257393E-02
(PID.TID 0000.0001) %MON exf_climsss_max              =   3.7455218776580E+01
(PID.TID 0000.0001) %MON exf_climsss_min              =   2.9676161673761E+01
(PID.TID 0000.0001) %MON exf_climsss_mean             =   3.4847264887029E+01
(PID.TID 0000.0001) %MON exf_climsss_sd               =   9.6675774128829E-01
(PID.TID 0000.0001) %MON exf_climsss_del2             =   7.0278680384274E-03
(PID.TID 0000.0001) // =======================================================
(PID.TID 0000.0001) // End MONITOR EXF statistics
(PID.TID 0000.0001) // =======================================================
 cg2d: Sum(rhs),rhsMax =   1.59872115546023E-14  6.91595962197436E+00
(PID.TID 0000.0001)      cg2d_init_res =   1.70117842646375E+00
(PID.TID 0000.0001)      cg2d_iters(min,last) =      -1      26
(PID.TID 0000.0001)      cg2d_last_res =   2.70809648754832E-14
(PID.TID 0000.0001) // =======================================================
(PID.TID 0000.0001) // Begin MONITOR dynamic field statistics
(PID.TID 0000.0001) // =======================================================
(PID.TID 0000.0001) %MON time_tsnumber                =                     6
(PID.TID 0000.0001) %MON time_secondsf                =   2.5920000000000E+05
(PID.TID 0000.0001) %MON dynstat_eta_max              =   7.2236771287991E-01
(PID.TID 0000.0001) %MON dynstat_eta_min              =  -6.3890550716749E-01
(PID.TID 0000.0001) %MON dynstat_eta_mean             =   6.9054736308709E-18
(PID.TID 0000.0001) %MON dynstat_eta_sd               =   1.7855658211988E-01
(PID.TID 0000.0001) %MON dynstat_eta_del2             =   2.7704322373146E-03
(PID.TID 0000.0001) %MON dynstat_uvel_max             =   6.6294642167096E-02
(PID.TID 0000.0001) %MON dynstat_uvel_min             =  -6.0891152987870E-02
(PID.TID 0000.0001) %MON dynstat_uvel_mean            =  -4.1580733906339E-03
(PID.TID 0000.0001) %MON dynstat_uvel_sd              =   6.4287277614611E-03
(PID.TID 0000.0001) %MON dynstat_uvel_del2            =   6.6455235274011E-05
(PID.TID 0000.0001) %MON dynstat_vvel_max             =   6.6187661497693E-02
(PID.TID 0000.0001) %MON dynstat_vvel_min             =  -5.6399709412167E-02
(PID.TID 0000.0001) %MON dynstat_vvel_mean            =   4.3051099979138E-03
(PID.TID 0000.0001) %MON dynstat_vvel_sd              =   1.3152844468358E-02
(PID.TID 0000.0001) %MON dynstat_vvel_del2            =   8.5344039813797E-05
(PID.TID 0000.0001) %MON dynstat_wvel_max             =   2.4586477846042E-04
(PID.TID 0000.0001) %MON dynstat_wvel_min             =  -2.5503119572904E-04
(PID.TID 0000.0001) %MON dynstat_wvel_mean            =  -3.2882372645459E-22
(PID.TID 0000.0001) %MON dynstat_wvel_sd              =   3.1535979645702E-05
(PID.TID 0000.0001) %MON dynstat_wvel_del2            =   3.1181537514746E-07
(PID.TID 0000.0001) %MON dynstat_theta_max            =   2.9704124486655E+01
(PID.TID 0000.0001) %MON dynstat_theta_min            =  -1.9716495802735E+00
(PID.TID 0000.0001) %MON dynstat_theta_mean           =   3.6129446506571E+00
(PID.TID 0000.0001) %MON dynstat_theta_sd             =   4.4029583134859E+00
(PID.TID 0000.0001) %MON dynstat_theta_del2           =   5.3497723062513E-03
(PID.TID 0000.0001) %MON dynstat_salt_max             =   3.7449697168609E+01
(PID.TID 0000.0001) %MON dynstat_salt_min             =   2.9769560642236E+01
(PID.TID 0000.0001) %MON dynstat_salt_mean            =   3.4717434926519E+01
(PID.TID 0000.0001) %MON dynstat_salt_sd              =   2.9616232950986E-01
(PID.TID 0000.0001) %MON dynstat_salt_del2            =   1.0146108117897E-03
(PID.TID 0000.0001) %MON forcing_qnet_max             =   4.2842674501481E+02
(PID.TID 0000.0001) %MON forcing_qnet_min             =  -1.8589675312658E+02
(PID.TID 0000.0001) %MON forcing_qnet_mean            =  -1.6669934477528E+01
(PID.TID 0000.0001) %MON forcing_qnet_sd              =   1.1233556029344E+02
(PID.TID 0000.0001) %MON forcing_qnet_del2            =   9.9361421749702E-01
(PID.TID 0000.0001) %MON forcing_qsw_max              =   0.0000000000000E+00
(PID.TID 0000.0001) %MON forcing_qsw_min              =   0.0000000000000E+00
(PID.TID 0000.0001) %MON forcing_qsw_mean             =   0.0000000000000E+00
(PID.TID 0000.0001) %MON forcing_qsw_sd               =   0.0000000000000E+00
(PID.TID 0000.0001) %MON forcing_qsw_del2             =   0.0000000000000E+00
(PID.TID 0000.0001) %MON forcing_empmr_max            =   0.0000000000000E+00
(PID.TID 0000.0001) %MON forcing_empmr_min            =   0.0000000000000E+00
(PID.TID 0000.0001) %MON forcing_empmr_mean           =   0.0000000000000E+00
(PID.TID 0000.0001) %MON forcing_empmr_sd             =   0.0000000000000E+00
(PID.TID 0000.0001) %MON forcing_empmr_del2           =   0.0000000000000E+00
(PID.TID 0000.0001) %MON forcing_fu_max               =   2.6979372370988E-01
(PID.TID 0000.0001) %MON forcing_fu_min               =  -1.5926174861529E-01
(PID.TID 0000.0001) %MON forcing_fu_mean              =   1.6150647047788E-02
(PID.TID 0000.0001) %MON forcing_fu_sd                =   8.9795228672983E-02
(PID.TID 0000.0001) %MON forcing_fu_del2              =   6.3492857413056E-04
(PID.TID 0000.0001) %MON forcing_fv_max               =   2.0137608516210E-01
(PID.TID 0000.0001) %MON forcing_fv_min               =  -1.5601446082620E-01
(PID.TID 0000.0001) %MON forcing_fv_mean              =  -6.0264100364492E-03
(PID.TID 0000.0001) %MON forcing_fv_sd                =   4.3980780907327E-02
(PID.TID 0000.0001) %MON forcing_fv_del2              =   3.4337152595356E-04
(PID.TID 0000.0001) %MON trAdv_CFL_u_max              =   1.1574148717950E-02
(PID.TID 0000.0001) %MON trAdv_CFL_v_max              =   8.6558874681576E-03
(PID.TID 0000.0001) %MON trAdv_CFL_w_max              =   1.2258952363690E-01
(PID.TID 0000.0001) %MON advcfl_uvel_max              =   1.4159230471074E-02
(PID.TID 0000.0001) %MON advcfl_vvel_max              =   6.4296005532669E-03
(PID.TID 0000.0001) %MON advcfl_wvel_max              =   2.1004770421261E-01
(PID.TID 0000.0001) %MON advcfl_W_hf_max              =   1.0934925702455E-01
(PID.TID 0000.0001) %MON pe_b_mean                    =   4.0797441519276E-05
(PID.TID 0000.0001) %MON ke_max                       =   2.2185479911006E-03
(PID.TID 0000.0001) %MON ke_mean                      =   1.1261788966474E-04
(PID.TID 0000.0001) %MON ke_vol                       =   1.3226782436723E+18
(PID.TID 0000.0001) %MON vort_r_min                   =  -2.7834712977492E-07
(PID.TID 0000.0001) %MON vort_r_max                   =   3.0114898095871E-07
(PID.TID 0000.0001) %MON vort_a_mean                  =  -2.5205769341363E-05
(PID.TID 0000.0001) %MON vort_a_sd                    =   7.3402487214060E-05
(PID.TID 0000.0001) %MON vort_p_mean                  =  -3.1758669491854E-05
(PID.TID 0000.0001) %MON vort_p_sd                    =   1.3126430531304E-04
(PID.TID 0000.0001) %MON surfExpan_theta_mean         =   1.5940152171209E-04
(PID.TID 0000.0001) %MON surfExpan_salt_mean          =   1.3146262963233E-05
(PID.TID 0000.0001) // =======================================================
(PID.TID 0000.0001) // End MONITOR dynamic field statistics
(PID.TID 0000.0001) // =======================================================
(PID.TID 0000.0001) // =======================================================
(PID.TID 0000.0001) // Begin MONITOR EXF statistics
(PID.TID 0000.0001) // =======================================================
(PID.TID 0000.0001) %MON exf_tsnumber                 =                     6
(PID.TID 0000.0001) %MON exf_time_sec                 =   2.5920000000000E+05
(PID.TID 0000.0001) %MON exf_ustress_max              =   2.7395058023713E-01
(PID.TID 0000.0001) %MON exf_ustress_min              =  -1.6016254883500E-01
(PID.TID 0000.0001) %MON exf_ustress_mean             =   1.5084959603562E-02
(PID.TID 0000.0001) %MON exf_ustress_sd               =   8.8573758691054E-02
(PID.TID 0000.0001) %MON exf_ustress_del2             =   6.6823784562055E-04
(PID.TID 0000.0001) %MON exf_vstress_max              =   2.0748201741897E-01
(PID.TID 0000.0001) %MON exf_vstress_min              =  -1.5661449505452E-01
(PID.TID 0000.0001) %MON exf_vstress_mean             =  -6.2926698686603E-03
(PID.TID 0000.0001) %MON exf_vstress_sd               =   4.5089785808699E-02
(PID.TID 0000.0001) %MON exf_vstress_del2             =   4.2049475584621E-04
(PID.TID 0000.0001) %MON exf_hflux_max                =   4.2893393239667E+02
(PID.TID 0000.0001) %MON exf_hflux_min                =  -1.8567070671820E+02
(PID.TID 0000.0001) %MON exf_hflux_mean               =  -1.6663880305355E+01
(PID.TID 0000.0001) %MON exf_hflux_sd                 =   1.1223313739475E+02
(PID.TID 0000.0001) %MON exf_hflux_del2               =   1.2174552566319E+00
(PID.TID 0000.0001) %MON exf_climsst_max              =   2.9515028307515E+01
(PID.TID 0000.0001) %MON exf_climsst_min              =  -1.9000000000000E+00
(PID.TID 0000.0001) %MON exf_climsst_mean             =   1.8387969152218E+01
(PID.TID 0000.0001) %MON exf_climsst_sd               =   9.2015685950122E+00
(PID.TID 0000.0001) %MON exf_climsst_del2             =   2.4219754918499E-02
(PID.TID 0000.0001) %MON exf_climsss_max              =   3.7456003742833E+01
(PID.TID 0000.0001) %MON exf_climsss_min              =   2.9679108127471E+01
(PID.TID 0000.0001) %MON exf_climsss_mean             =   3.4847367209651E+01
(PID.TID 0000.0001) %MON exf_climsss_sd               =   9.6636859772443E-01
(PID.TID 0000.0001) %MON exf_climsss_del2             =   7.0349356645322E-03
(PID.TID 0000.0001) // =======================================================
(PID.TID 0000.0001) // End MONITOR EXF statistics
(PID.TID 0000.0001) // =======================================================
 cg2d: Sum(rhs),rhsMax =  -4.37427871702312E-14  7.18446322590895E+00
(PID.TID 0000.0001)      cg2d_init_res =   1.57125532650662E+00
(PID.TID 0000.0001)      cg2d_iters(min,last) =      -1      26
(PID.TID 0000.0001)      cg2d_last_res =   2.55176839249927E-14
(PID.TID 0000.0001) // =======================================================
(PID.TID 0000.0001) // Begin MONITOR dynamic field statistics
(PID.TID 0000.0001) // =======================================================
(PID.TID 0000.0001) %MON time_tsnumber                =                     7
(PID.TID 0000.0001) %MON time_secondsf                =   3.0240000000000E+05
(PID.TID 0000.0001) %MON dynstat_eta_max              =   8.2381517647084E-01
(PID.TID 0000.0001) %MON dynstat_eta_min              =  -6.9140604044621E-01
(PID.TID 0000.0001) %MON dynstat_eta_mean             =   4.3017704585753E-17
(PID.TID 0000.0001) %MON dynstat_eta_sd               =   2.0470927593910E-01
(PID.TID 0000.0001) %MON dynstat_eta_del2             =   2.6567863407245E-03
(PID.TID 0000.0001) %MON dynstat_uvel_max             =   7.6947243606101E-02
(PID.TID 0000.0001) %MON dynstat_uvel_min             =  -7.3255190749593E-02
(PID.TID 0000.0001) %MON dynstat_uvel_mean            =  -5.0969603730050E-03
(PID.TID 0000.0001) %MON dynstat_uvel_sd              =   7.6798104562890E-03
(PID.TID 0000.0001) %MON dynstat_uvel_del2            =   7.3996419022650E-05
(PID.TID 0000.0001) %MON dynstat_vvel_max             =   7.4980383008464E-02
(PID.TID 0000.0001) %MON dynstat_vvel_min             =  -6.6238992332794E-02
(PID.TID 0000.0001) %MON dynstat_vvel_mean            =   4.6385442633713E-03
(PID.TID 0000.0001) %MON dynstat_vvel_sd              =   1.4004068818374E-02
(PID.TID 0000.0001) %MON dynstat_vvel_del2            =   9.4391989889058E-05
(PID.TID 0000.0001) %MON dynstat_wvel_max             =   2.6084658790316E-04
(PID.TID 0000.0001) %MON dynstat_wvel_min             =  -2.7349908181899E-04
(PID.TID 0000.0001) %MON dynstat_wvel_mean            =  -2.3487409032471E-22
(PID.TID 0000.0001) %MON dynstat_wvel_sd              =   3.2979543745710E-05
(PID.TID 0000.0001) %MON dynstat_wvel_del2            =   3.4166597310455E-07
(PID.TID 0000.0001) %MON dynstat_theta_max            =   2.9714157229984E+01
(PID.TID 0000.0001) %MON dynstat_theta_min            =  -2.0031634610571E+00
(PID.TID 0000.0001) %MON dynstat_theta_mean           =   3.6111160141989E+00
(PID.TID 0000.0001) %MON dynstat_theta_sd             =   4.3990411771730E+00
(PID.TID 0000.0001) %MON dynstat_theta_del2           =   5.3251398731197E-03
(PID.TID 0000.0001) %MON dynstat_salt_max             =   3.7446180382395E+01
(PID.TID 0000.0001) %MON dynstat_salt_min             =   2.9772917231649E+01
(PID.TID 0000.0001) %MON dynstat_salt_mean            =   3.4717281958018E+01
(PID.TID 0000.0001) %MON dynstat_salt_sd              =   2.9617309436843E-01
(PID.TID 0000.0001) %MON dynstat_salt_del2            =   1.0130982285529E-03
(PID.TID 0000.0001) %MON forcing_qnet_max             =   4.2893393239667E+02
(PID.TID 0000.0001) %MON forcing_qnet_min             =  -1.8567070671820E+02
(PID.TID 0000.0001) %MON forcing_qnet_mean            =  -1.6663880305355E+01
(PID.TID 0000.0001) %MON forcing_qnet_sd              =   1.1223313739475E+02
(PID.TID 0000.0001) %MON forcing_qnet_del2            =   9.9430147063573E-01
(PID.TID 0000.0001) %MON forcing_qsw_max              =   0.0000000000000E+00
(PID.TID 0000.0001) %MON forcing_qsw_min              =   0.0000000000000E+00
(PID.TID 0000.0001) %MON forcing_qsw_mean             =   0.0000000000000E+00
(PID.TID 0000.0001) %MON forcing_qsw_sd               =   0.0000000000000E+00
(PID.TID 0000.0001) %MON forcing_qsw_del2             =   0.0000000000000E+00
(PID.TID 0000.0001) %MON forcing_empmr_max            =   0.0000000000000E+00
(PID.TID 0000.0001) %MON forcing_empmr_min            =   0.0000000000000E+00
(PID.TID 0000.0001) %MON forcing_empmr_mean           =   0.0000000000000E+00
(PID.TID 0000.0001) %MON forcing_empmr_sd             =   0.0000000000000E+00
(PID.TID 0000.0001) %MON forcing_empmr_del2           =   0.0000000000000E+00
(PID.TID 0000.0001) %MON forcing_fu_max               =   2.6926756044850E-01
(PID.TID 0000.0001) %MON forcing_fu_min               =  -1.5947473211394E-01
(PID.TID 0000.0001) %MON forcing_fu_mean              =   1.6146684251555E-02
(PID.TID 0000.0001) %MON forcing_fu_sd                =   8.9799125837244E-02
(PID.TID 0000.0001) %MON forcing_fu_del2              =   6.3600905466832E-04
(PID.TID 0000.0001) %MON forcing_fv_max               =   2.0232061009418E-01
(PID.TID 0000.0001) %MON forcing_fv_min               =  -1.5657266613374E-01
(PID.TID 0000.0001) %MON forcing_fv_mean              =  -5.9919575324853E-03
(PID.TID 0000.0001) %MON forcing_fv_sd                =   4.4046226358842E-02
(PID.TID 0000.0001) %MON forcing_fv_del2              =   3.4380550743016E-04
(PID.TID 0000.0001) %MON trAdv_CFL_u_max              =   1.4162106312051E-02
(PID.TID 0000.0001) %MON trAdv_CFL_v_max              =   1.0461923636803E-02
(PID.TID 0000.0001) %MON trAdv_CFL_w_max              =   1.0502385210631E-01
(PID.TID 0000.0001) %MON advcfl_uvel_max              =   1.6294755234853E-02
(PID.TID 0000.0001) %MON advcfl_vvel_max              =   7.2837429388888E-03
(PID.TID 0000.0001) %MON advcfl_wvel_max              =   1.7876884160799E-01
(PID.TID 0000.0001) %MON advcfl_W_hf_max              =   8.8796274637736E-02
(PID.TID 0000.0001) %MON pe_b_mean                    =   5.3623634290494E-05
(PID.TID 0000.0001) %MON ke_max                       =   2.9945036318464E-03
(PID.TID 0000.0001) %MON ke_mean                      =   1.3630159388088E-04
(PID.TID 0000.0001) %MON ke_vol                       =   1.3226782436723E+18
(PID.TID 0000.0001) %MON vort_r_min                   =  -3.0226488379476E-07
(PID.TID 0000.0001) %MON vort_r_max                   =   3.2552206915287E-07
(PID.TID 0000.0001) %MON vort_a_mean                  =  -2.5205769383763E-05
(PID.TID 0000.0001) %MON vort_a_sd                    =   7.3402310484818E-05
(PID.TID 0000.0001) %MON vort_p_mean                  =  -3.1758669545277E-05
(PID.TID 0000.0001) %MON vort_p_sd                    =   1.3126375513881E-04
(PID.TID 0000.0001) %MON surfExpan_theta_mean         =   1.6431505637366E-04
(PID.TID 0000.0001) %MON surfExpan_salt_mean          =   1.3391997939500E-05
(PID.TID 0000.0001) // =======================================================
(PID.TID 0000.0001) // End MONITOR dynamic field statistics
(PID.TID 0000.0001) // =======================================================
(PID.TID 0000.0001) // =======================================================
(PID.TID 0000.0001) // Begin MONITOR EXF statistics
(PID.TID 0000.0001) // =======================================================
(PID.TID 0000.0001) %MON exf_tsnumber                 =                     7
(PID.TID 0000.0001) %MON exf_time_sec                 =   3.0240000000000E+05
(PID.TID 0000.0001) %MON exf_ustress_max              =   2.7376776669295E-01
(PID.TID 0000.0001) %MON exf_ustress_min              =  -1.6045591301255E-01
(PID.TID 0000.0001) %MON exf_ustress_mean             =   1.5082543180319E-02
(PID.TID 0000.0001) %MON exf_ustress_sd               =   8.8580593951089E-02
(PID.TID 0000.0001) %MON exf_ustress_del2             =   6.6932807672709E-04
(PID.TID 0000.0001) %MON exf_vstress_max              =   2.0816320989041E-01
(PID.TID 0000.0001) %MON exf_vstress_min              =  -1.5743684987988E-01
(PID.TID 0000.0001) %MON exf_vstress_mean             =  -6.2598351195045E-03
(PID.TID 0000.0001) %MON exf_vstress_sd               =   4.5156413275403E-02
(PID.TID 0000.0001) %MON exf_vstress_del2             =   4.2078013411217E-04
(PID.TID 0000.0001) %MON exf_hflux_max                =   4.2944111977854E+02
(PID.TID 0000.0001) %MON exf_hflux_min                =  -1.8544466030982E+02
(PID.TID 0000.0001) %MON exf_hflux_mean               =  -1.6657826133183E+01
(PID.TID 0000.0001) %MON exf_hflux_sd                 =   1.1213131789607E+02
(PID.TID 0000.0001) %MON exf_hflux_del2               =   1.2178875867950E+00
(PID.TID 0000.0001) %MON exf_climsst_max              =   2.9507260045698E+01
(PID.TID 0000.0001) %MON exf_climsst_min              =  -1.9000000000000E+00
(PID.TID 0000.0001) %MON exf_climsst_mean             =   1.8391828408710E+01
(PID.TID 0000.0001) %MON exf_climsst_sd               =   9.1999913480885E+00
(PID.TID 0000.0001) %MON exf_climsst_del2             =   2.4237623218373E-02
(PID.TID 0000.0001) %MON exf_climsss_max              =   3.7456788709087E+01
(PID.TID 0000.0001) %MON exf_climsss_min              =   2.9682054581181E+01
(PID.TID 0000.0001) %MON exf_climsss_mean             =   3.4847469532273E+01
(PID.TID 0000.0001) %MON exf_climsss_sd               =   9.6600027689088E-01
(PID.TID 0000.0001) %MON exf_climsss_del2             =   7.0447947077263E-03
(PID.TID 0000.0001) // =======================================================
(PID.TID 0000.0001) // End MONITOR EXF statistics
(PID.TID 0000.0001) // =======================================================
 cg2d: Sum(rhs),rhsMax =  -9.63673585374636E-14  7.77917146911922E+00
(PID.TID 0000.0001)      cg2d_init_res =   1.39155337798732E+00
(PID.TID 0000.0001)      cg2d_iters(min,last) =      -1      26
(PID.TID 0000.0001)      cg2d_last_res =   2.27483179486921E-14
(PID.TID 0000.0001) // =======================================================
(PID.TID 0000.0001) // Begin MONITOR dynamic field statistics
(PID.TID 0000.0001) // =======================================================
(PID.TID 0000.0001) %MON time_tsnumber                =                     8
(PID.TID 0000.0001) %MON time_secondsf                =   3.4560000000000E+05
(PID.TID 0000.0001) %MON dynstat_eta_max              =   8.9543330365248E-01
(PID.TID 0000.0001) %MON dynstat_eta_min              =  -7.2847814871540E-01
(PID.TID 0000.0001) %MON dynstat_eta_mean             =   3.3282118811083E-17
(PID.TID 0000.0001) %MON dynstat_eta_sd               =   2.2963357179897E-01
(PID.TID 0000.0001) %MON dynstat_eta_del2             =   2.5651075547100E-03
(PID.TID 0000.0001) %MON dynstat_uvel_max             =   8.6867353155788E-02
(PID.TID 0000.0001) %MON dynstat_uvel_min             =  -9.1630213577876E-02
(PID.TID 0000.0001) %MON dynstat_uvel_mean            =  -6.0220034954664E-03
(PID.TID 0000.0001) %MON dynstat_uvel_sd              =   8.9347337590875E-03
(PID.TID 0000.0001) %MON dynstat_uvel_del2            =   8.0622186890943E-05
(PID.TID 0000.0001) %MON dynstat_vvel_max             =   8.0635197769002E-02
(PID.TID 0000.0001) %MON dynstat_vvel_min             =  -7.5025616629345E-02
(PID.TID 0000.0001) %MON dynstat_vvel_mean            =   4.8451892509234E-03
(PID.TID 0000.0001) %MON dynstat_vvel_sd              =   1.4561859202162E-02
(PID.TID 0000.0001) %MON dynstat_vvel_del2            =   1.0152732522134E-04
(PID.TID 0000.0001) %MON dynstat_wvel_max             =   2.7006923661534E-04
(PID.TID 0000.0001) %MON dynstat_wvel_min             =  -2.8583580579133E-04
(PID.TID 0000.0001) %MON dynstat_wvel_mean            =   4.6974818064942E-22
(PID.TID 0000.0001) %MON dynstat_wvel_sd              =   3.4121100880733E-05
(PID.TID 0000.0001) %MON dynstat_wvel_del2            =   3.6379079219142E-07
(PID.TID 0000.0001) %MON dynstat_theta_max            =   2.9700818527760E+01
(PID.TID 0000.0001) %MON dynstat_theta_min            =  -2.0357487205007E+00
(PID.TID 0000.0001) %MON dynstat_theta_mean           =   3.6092659690447E+00
(PID.TID 0000.0001) %MON dynstat_theta_sd             =   4.3949655036623E+00
(PID.TID 0000.0001) %MON dynstat_theta_del2           =   5.2938775940588E-03
(PID.TID 0000.0001) %MON dynstat_salt_max             =   3.7443043245169E+01
(PID.TID 0000.0001) %MON dynstat_salt_min             =   2.9776077159435E+01
(PID.TID 0000.0001) %MON dynstat_salt_mean            =   3.4717129351895E+01
(PID.TID 0000.0001) %MON dynstat_salt_sd              =   2.9617540730735E-01
(PID.TID 0000.0001) %MON dynstat_salt_del2            =   1.0115927060558E-03
(PID.TID 0000.0001) %MON forcing_qnet_max             =   4.2944111977854E+02
(PID.TID 0000.0001) %MON forcing_qnet_min             =  -1.8544466030982E+02
(PID.TID 0000.0001) %MON forcing_qnet_mean            =  -1.6657826133183E+01
(PID.TID 0000.0001) %MON forcing_qnet_sd              =   1.1213131789607E+02
(PID.TID 0000.0001) %MON forcing_qnet_del2            =   9.9502992408153E-01
(PID.TID 0000.0001) %MON forcing_qsw_max              =   0.0000000000000E+00
(PID.TID 0000.0001) %MON forcing_qsw_min              =   0.0000000000000E+00
(PID.TID 0000.0001) %MON forcing_qsw_mean             =   0.0000000000000E+00
(PID.TID 0000.0001) %MON forcing_qsw_sd               =   0.0000000000000E+00
(PID.TID 0000.0001) %MON forcing_qsw_del2             =   0.0000000000000E+00
(PID.TID 0000.0001) %MON forcing_empmr_max            =   0.0000000000000E+00
(PID.TID 0000.0001) %MON forcing_empmr_min            =   0.0000000000000E+00
(PID.TID 0000.0001) %MON forcing_empmr_mean           =   0.0000000000000E+00
(PID.TID 0000.0001) %MON forcing_empmr_sd             =   0.0000000000000E+00
(PID.TID 0000.0001) %MON forcing_empmr_del2           =   0.0000000000000E+00
(PID.TID 0000.0001) %MON forcing_fu_max               =   2.6874139718711E-01
(PID.TID 0000.0001) %MON forcing_fu_min               =  -1.5968771561259E-01
(PID.TID 0000.0001) %MON forcing_fu_mean              =   1.6142721455323E-02
(PID.TID 0000.0001) %MON forcing_fu_sd                =   8.9805490564404E-02
(PID.TID 0000.0001) %MON forcing_fu_del2              =   6.3719527840738E-04
(PID.TID 0000.0001) %MON forcing_fv_max               =   2.0326513502627E-01
(PID.TID 0000.0001) %MON forcing_fv_min               =  -1.5713087144128E-01
(PID.TID 0000.0001) %MON forcing_fv_mean              =  -5.9575050285213E-03
(PID.TID 0000.0001) %MON forcing_fv_sd                =   4.4114931501590E-02
(PID.TID 0000.0001) %MON forcing_fv_del2              =   3.4431597726164E-04
(PID.TID 0000.0001) %MON trAdv_CFL_u_max              =   1.6298064816184E-02
(PID.TID 0000.0001) %MON trAdv_CFL_v_max              =   1.1944267741390E-02
(PID.TID 0000.0001) %MON trAdv_CFL_w_max              =   8.8796274637736E-02
(PID.TID 0000.0001) %MON advcfl_uvel_max              =   1.7248569651626E-02
(PID.TID 0000.0001) %MON advcfl_vvel_max              =   7.8330628467125E-03
(PID.TID 0000.0001) %MON advcfl_wvel_max              =   1.9107627449442E-01
(PID.TID 0000.0001) %MON advcfl_W_hf_max              =   9.5746854635276E-02
(PID.TID 0000.0001) %MON pe_b_mean                    =   6.7476409037998E-05
(PID.TID 0000.0001) %MON ke_max                       =   3.8362386507370E-03
(PID.TID 0000.0001) %MON ke_mean                      =   1.5848012878344E-04
(PID.TID 0000.0001) %MON ke_vol                       =   1.3226782436723E+18
(PID.TID 0000.0001) %MON vort_r_min                   =  -3.1792810520940E-07
(PID.TID 0000.0001) %MON vort_r_max                   =   3.7608480553478E-07
(PID.TID 0000.0001) %MON vort_a_mean                  =  -2.5205769451165E-05
(PID.TID 0000.0001) %MON vort_a_sd                    =   7.3402135995166E-05
(PID.TID 0000.0001) %MON vort_p_mean                  =  -3.1758669630202E-05
(PID.TID 0000.0001) %MON vort_p_sd                    =   1.3126317736300E-04
(PID.TID 0000.0001) %MON surfExpan_theta_mean         =   1.6485729805327E-04
(PID.TID 0000.0001) %MON surfExpan_salt_mean          =   1.3234898305400E-05
(PID.TID 0000.0001) // =======================================================
(PID.TID 0000.0001) // End MONITOR dynamic field statistics
(PID.TID 0000.0001) // =======================================================
(PID.TID 0000.0001) // =======================================================
(PID.TID 0000.0001) // Begin MONITOR EXF statistics
(PID.TID 0000.0001) // =======================================================
(PID.TID 0000.0001) %MON exf_tsnumber                 =                     8
(PID.TID 0000.0001) %MON exf_time_sec                 =   3.4560000000000E+05
(PID.TID 0000.0001) %MON exf_ustress_max              =   2.7358495314876E-01
(PID.TID 0000.0001) %MON exf_ustress_min              =  -1.6074927719009E-01
(PID.TID 0000.0001) %MON exf_ustress_mean             =   1.5080126757075E-02
(PID.TID 0000.0001) %MON exf_ustress_sd               =   8.8589921750175E-02
(PID.TID 0000.0001) %MON exf_ustress_del2             =   6.7052865976287E-04
(PID.TID 0000.0001) %MON exf_vstress_max              =   2.0884440236184E-01
(PID.TID 0000.0001) %MON exf_vstress_min              =  -1.5834286254680E-01
(PID.TID 0000.0001) %MON exf_vstress_mean             =  -6.2270003703487E-03
(PID.TID 0000.0001) %MON exf_vstress_sd               =   4.5226440682297E-02
(PID.TID 0000.0001) %MON exf_vstress_del2             =   4.2115196293332E-04
(PID.TID 0000.0001) %MON exf_hflux_max                =   4.2994830716041E+02
(PID.TID 0000.0001) %MON exf_hflux_min                =  -1.8521861390145E+02
(PID.TID 0000.0001) %MON exf_hflux_mean               =  -1.6651771961010E+01
(PID.TID 0000.0001) %MON exf_hflux_sd                 =   1.1203010344261E+02
(PID.TID 0000.0001) %MON exf_hflux_del2               =   1.2183548174550E+00
(PID.TID 0000.0001) %MON exf_climsst_max              =   2.9499491783880E+01
(PID.TID 0000.0001) %MON exf_climsst_min              =  -1.9000000000000E+00
(PID.TID 0000.0001) %MON exf_climsst_mean             =   1.8395687883583E+01
(PID.TID 0000.0001) %MON exf_climsst_sd               =   9.1984739698203E+00
(PID.TID 0000.0001) %MON exf_climsst_del2             =   2.4264589313133E-02
(PID.TID 0000.0001) %MON exf_climsss_max              =   3.7457573675340E+01
(PID.TID 0000.0001) %MON exf_climsss_min              =   2.9685001034890E+01
(PID.TID 0000.0001) %MON exf_climsss_mean             =   3.4847571854896E+01
(PID.TID 0000.0001) %MON exf_climsss_sd               =   9.6565280261437E-01
(PID.TID 0000.0001) %MON exf_climsss_del2             =   7.0574334694174E-03
(PID.TID 0000.0001) // =======================================================
(PID.TID 0000.0001) // End MONITOR EXF statistics
(PID.TID 0000.0001) // =======================================================
 cg2d: Sum(rhs),rhsMax =  -6.35047570085590E-14  8.10220337794205E+00
(PID.TID 0000.0001)      cg2d_init_res =   1.28210309876831E+00
(PID.TID 0000.0001)      cg2d_iters(min,last) =      -1      25
(PID.TID 0000.0001)      cg2d_last_res =   9.33711428260488E-14
(PID.TID 0000.0001) // =======================================================
(PID.TID 0000.0001) // Begin MONITOR dynamic field statistics
(PID.TID 0000.0001) // =======================================================
(PID.TID 0000.0001) %MON time_tsnumber                =                     9
(PID.TID 0000.0001) %MON time_secondsf                =   3.8880000000000E+05
(PID.TID 0000.0001) %MON dynstat_eta_max              =   9.3678868380319E-01
(PID.TID 0000.0001) %MON dynstat_eta_min              =  -8.0932424332986E-01
(PID.TID 0000.0001) %MON dynstat_eta_mean             =   1.3380770215884E-16
(PID.TID 0000.0001) %MON dynstat_eta_sd               =   2.5306388961641E-01
(PID.TID 0000.0001) %MON dynstat_eta_del2             =   2.4881879762186E-03
(PID.TID 0000.0001) %MON dynstat_uvel_max             =   9.6088580795086E-02
(PID.TID 0000.0001) %MON dynstat_uvel_min             =  -1.0737176252758E-01
(PID.TID 0000.0001) %MON dynstat_uvel_mean            =  -6.9037293624883E-03
(PID.TID 0000.0001) %MON dynstat_uvel_sd              =   1.0162814663155E-02
(PID.TID 0000.0001) %MON dynstat_uvel_del2            =   8.6458291416415E-05
(PID.TID 0000.0001) %MON dynstat_vvel_max             =   8.4392259927341E-02
(PID.TID 0000.0001) %MON dynstat_vvel_min             =  -8.2665817564784E-02
(PID.TID 0000.0001) %MON dynstat_vvel_mean            =   4.9291479448425E-03
(PID.TID 0000.0001) %MON dynstat_vvel_sd              =   1.4861401269123E-02
(PID.TID 0000.0001) %MON dynstat_vvel_del2            =   1.0706326010102E-04
(PID.TID 0000.0001) %MON dynstat_wvel_max             =   2.7286000767611E-04
(PID.TID 0000.0001) %MON dynstat_wvel_min             =  -2.9275001748058E-04
(PID.TID 0000.0001) %MON dynstat_wvel_mean            =   3.0533631742212E-22
(PID.TID 0000.0001) %MON dynstat_wvel_sd              =   3.4870351802389E-05
(PID.TID 0000.0001) %MON dynstat_wvel_del2            =   3.7758641591474E-07
(PID.TID 0000.0001) %MON dynstat_theta_max            =   2.9668387957093E+01
(PID.TID 0000.0001) %MON dynstat_theta_min            =  -2.0668847053839E+00
(PID.TID 0000.0001) %MON dynstat_theta_mean           =   3.6074399744673E+00
(PID.TID 0000.0001) %MON dynstat_theta_sd             =   4.3908090247566E+00
(PID.TID 0000.0001) %MON dynstat_theta_del2           =   5.2599969697649E-03
(PID.TID 0000.0001) %MON dynstat_salt_max             =   3.7440276301077E+01
(PID.TID 0000.0001) %MON dynstat_salt_min             =   2.9778946769363E+01
(PID.TID 0000.0001) %MON dynstat_salt_mean            =   3.4716981255467E+01
(PID.TID 0000.0001) %MON dynstat_salt_sd              =   2.9616968376634E-01
(PID.TID 0000.0001) %MON dynstat_salt_del2            =   1.0101186048862E-03
(PID.TID 0000.0001) %MON forcing_qnet_max             =   4.2994830716041E+02
(PID.TID 0000.0001) %MON forcing_qnet_min             =  -1.8521861390145E+02
(PID.TID 0000.0001) %MON forcing_qnet_mean            =  -1.6651771961010E+01
(PID.TID 0000.0001) %MON forcing_qnet_sd              =   1.1203010344261E+02
(PID.TID 0000.0001) %MON forcing_qnet_del2            =   9.9579948741711E-01
(PID.TID 0000.0001) %MON forcing_qsw_max              =   0.0000000000000E+00
(PID.TID 0000.0001) %MON forcing_qsw_min              =   0.0000000000000E+00
(PID.TID 0000.0001) %MON forcing_qsw_mean             =   0.0000000000000E+00
(PID.TID 0000.0001) %MON forcing_qsw_sd               =   0.0000000000000E+00
(PID.TID 0000.0001) %MON forcing_qsw_del2             =   0.0000000000000E+00
(PID.TID 0000.0001) %MON forcing_empmr_max            =   0.0000000000000E+00
(PID.TID 0000.0001) %MON forcing_empmr_min            =   0.0000000000000E+00
(PID.TID 0000.0001) %MON forcing_empmr_mean           =   0.0000000000000E+00
(PID.TID 0000.0001) %MON forcing_empmr_sd             =   0.0000000000000E+00
(PID.TID 0000.0001) %MON forcing_empmr_del2           =   0.0000000000000E+00
(PID.TID 0000.0001) %MON forcing_fu_max               =   2.6833981646585E-01
(PID.TID 0000.0001) %MON forcing_fu_min               =  -1.5990069911124E-01
(PID.TID 0000.0001) %MON forcing_fu_mean              =   1.6138758659090E-02
(PID.TID 0000.0001) %MON forcing_fu_sd                =   8.9814322329868E-02
(PID.TID 0000.0001) %MON forcing_fu_del2              =   6.3848665597738E-04
(PID.TID 0000.0001) %MON forcing_fv_max               =   2.0420965995835E-01
(PID.TID 0000.0001) %MON forcing_fv_min               =  -1.5768907674881E-01
(PID.TID 0000.0001) %MON forcing_fv_mean              =  -5.9230525245574E-03
(PID.TID 0000.0001) %MON forcing_fv_sd                =   4.4186881130321E-02
(PID.TID 0000.0001) %MON forcing_fv_del2              =   3.4490259583056E-04
(PID.TID 0000.0001) %MON trAdv_CFL_u_max              =   1.7252072959486E-02
(PID.TID 0000.0001) %MON trAdv_CFL_v_max              =   1.3030813979470E-02
(PID.TID 0000.0001) %MON trAdv_CFL_w_max              =   9.5746854635276E-02
(PID.TID 0000.0001) %MON advcfl_uvel_max              =   1.6922319581416E-02
(PID.TID 0000.0001) %MON advcfl_vvel_max              =   8.1980313073788E-03
(PID.TID 0000.0001) %MON advcfl_wvel_max              =   1.9518034190407E-01
(PID.TID 0000.0001) %MON advcfl_W_hf_max              =   1.0050595618664E-01
(PID.TID 0000.0001) %MON pe_b_mean                    =   8.1948603668517E-05
(PID.TID 0000.0001) %MON ke_max                       =   4.7188168022471E-03
(PID.TID 0000.0001) %MON ke_mean                      =   1.7863833174244E-04
(PID.TID 0000.0001) %MON ke_vol                       =   1.3226782436723E+18
(PID.TID 0000.0001) %MON vort_r_min                   =  -3.2665500641146E-07
(PID.TID 0000.0001) %MON vort_r_max                   =   4.3929854785388E-07
(PID.TID 0000.0001) %MON vort_a_mean                  =  -2.5205769532197E-05
(PID.TID 0000.0001) %MON vort_a_sd                    =   7.3401968768580E-05
(PID.TID 0000.0001) %MON vort_p_mean                  =  -3.1758669732300E-05
(PID.TID 0000.0001) %MON vort_p_sd                    =   1.3126259135362E-04
(PID.TID 0000.0001) %MON surfExpan_theta_mean         =   1.6163946757570E-04
(PID.TID 0000.0001) %MON surfExpan_salt_mean          =   1.2725678209735E-05
(PID.TID 0000.0001) // =======================================================
(PID.TID 0000.0001) // End MONITOR dynamic field statistics
(PID.TID 0000.0001) // =======================================================
(PID.TID 0000.0001) // =======================================================
(PID.TID 0000.0001) // Begin MONITOR EXF statistics
(PID.TID 0000.0001) // =======================================================
(PID.TID 0000.0001) %MON exf_tsnumber                 =                     9
(PID.TID 0000.0001) %MON exf_time_sec                 =   3.8880000000000E+05
(PID.TID 0000.0001) %MON exf_ustress_max              =   2.7340213960457E-01
(PID.TID 0000.0001) %MON exf_ustress_min              =  -1.6104264136764E-01
(PID.TID 0000.0001) %MON exf_ustress_mean             =   1.5077710333832E-02
(PID.TID 0000.0001) %MON exf_ustress_sd               =   8.8601741301083E-02
(PID.TID 0000.0001) %MON exf_ustress_del2             =   6.7183900312813E-04
(PID.TID 0000.0001) %MON exf_vstress_max              =   2.0952559483328E-01
(PID.TID 0000.0001) %MON exf_vstress_min              =  -1.5924887521373E-01
(PID.TID 0000.0001) %MON exf_vstress_mean             =  -6.1941656211928E-03
(PID.TID 0000.0001) %MON exf_vstress_sd               =   4.5299852261849E-02
(PID.TID 0000.0001) %MON exf_vstress_del2             =   4.2161001358075E-04
(PID.TID 0000.0001) %MON exf_hflux_max                =   4.3045549454228E+02
(PID.TID 0000.0001) %MON exf_hflux_min                =  -1.8499256749307E+02
(PID.TID 0000.0001) %MON exf_hflux_mean               =  -1.6645717788838E+01
(PID.TID 0000.0001) %MON exf_hflux_sd                 =   1.1192949567575E+02
(PID.TID 0000.0001) %MON exf_hflux_del2               =   1.2188569084761E+00
(PID.TID 0000.0001) %MON exf_climsst_max              =   2.9491723522063E+01
(PID.TID 0000.0001) %MON exf_climsst_min              =  -1.9000000000000E+00
(PID.TID 0000.0001) %MON exf_climsst_mean             =   1.8399550721213E+01
(PID.TID 0000.0001) %MON exf_climsst_sd               =   9.1970095444163E+00
(PID.TID 0000.0001) %MON exf_climsst_del2             =   2.4300802812195E-02
(PID.TID 0000.0001) %MON exf_climsss_max              =   3.7458358641594E+01
(PID.TID 0000.0001) %MON exf_climsss_min              =   2.9687947488600E+01
(PID.TID 0000.0001) %MON exf_climsss_mean             =   3.4847674177518E+01
(PID.TID 0000.0001) %MON exf_climsss_sd               =   9.6532619740638E-01
(PID.TID 0000.0001) %MON exf_climsss_del2             =   7.0728370480198E-03
(PID.TID 0000.0001) // =======================================================
(PID.TID 0000.0001) // End MONITOR EXF statistics
(PID.TID 0000.0001) // =======================================================
 cg2d: Sum(rhs),rhsMax =  -2.85549361933590E-13  8.19604654242106E+00
(PID.TID 0000.0001)      cg2d_init_res =   1.21759574487080E+00
(PID.TID 0000.0001)      cg2d_iters(min,last) =      -1      25
(PID.TID 0000.0001)      cg2d_last_res =   8.67377516087414E-14
(PID.TID 0000.0001) // =======================================================
(PID.TID 0000.0001) // Begin MONITOR dynamic field statistics
(PID.TID 0000.0001) // =======================================================
(PID.TID 0000.0001) %MON time_tsnumber                =                    10
(PID.TID 0000.0001) %MON time_secondsf                =   4.3200000000000E+05
(PID.TID 0000.0001) %MON dynstat_eta_max              =   9.5254166003604E-01
(PID.TID 0000.0001) %MON dynstat_eta_min              =  -8.6109545841167E-01
(PID.TID 0000.0001) %MON dynstat_eta_mean             =   2.7169076580476E-16
(PID.TID 0000.0001) %MON dynstat_eta_sd               =   2.7473151730203E-01
(PID.TID 0000.0001) %MON dynstat_eta_del2             =   2.4169190653916E-03
(PID.TID 0000.0001) %MON dynstat_uvel_max             =   1.0465245452421E-01
(PID.TID 0000.0001) %MON dynstat_uvel_min             =  -1.1936357207017E-01
(PID.TID 0000.0001) %MON dynstat_uvel_mean            =  -7.7151656006339E-03
(PID.TID 0000.0001) %MON dynstat_uvel_sd              =   1.1336686557282E-02
(PID.TID 0000.0001) %MON dynstat_uvel_del2            =   9.1579506370072E-05
(PID.TID 0000.0001) %MON dynstat_vvel_max             =   9.3721411758617E-02
(PID.TID 0000.0001) %MON dynstat_vvel_min             =  -8.9006885094634E-02
(PID.TID 0000.0001) %MON dynstat_vvel_mean            =   4.8992330877513E-03
(PID.TID 0000.0001) %MON dynstat_vvel_sd              =   1.4944161125744E-02
(PID.TID 0000.0001) %MON dynstat_vvel_del2            =   1.1119565877172E-04
(PID.TID 0000.0001) %MON dynstat_wvel_max             =   2.6869838190985E-04
(PID.TID 0000.0001) %MON dynstat_wvel_min             =  -3.0312385620074E-04
(PID.TID 0000.0001) %MON dynstat_wvel_mean            =  -4.2277336258448E-22
(PID.TID 0000.0001) %MON dynstat_wvel_sd              =   3.5196360746888E-05
(PID.TID 0000.0001) %MON dynstat_wvel_del2            =   3.8379354987489E-07
(PID.TID 0000.0001) %MON dynstat_theta_max            =   2.9626380499702E+01
(PID.TID 0000.0001) %MON dynstat_theta_min            =  -2.0943789465047E+00
(PID.TID 0000.0001) %MON dynstat_theta_mean           =   3.6056762439237E+00
(PID.TID 0000.0001) %MON dynstat_theta_sd             =   4.3866402580046E+00
(PID.TID 0000.0001) %MON dynstat_theta_del2           =   5.2261534057032E-03
(PID.TID 0000.0001) %MON dynstat_salt_max             =   3.7437828779452E+01
(PID.TID 0000.0001) %MON dynstat_salt_min             =   2.9781455822242E+01
(PID.TID 0000.0001) %MON dynstat_salt_mean            =   3.4716841292045E+01
(PID.TID 0000.0001) %MON dynstat_salt_sd              =   2.9615694011807E-01
(PID.TID 0000.0001) %MON dynstat_salt_del2            =   1.0087219521178E-03
(PID.TID 0000.0001) %MON forcing_qnet_max             =   4.3045549454228E+02
(PID.TID 0000.0001) %MON forcing_qnet_min             =  -1.8499256749307E+02
(PID.TID 0000.0001) %MON forcing_qnet_mean            =  -1.6645717788838E+01
(PID.TID 0000.0001) %MON forcing_qnet_sd              =   1.1192949567575E+02
(PID.TID 0000.0001) %MON forcing_qnet_del2            =   9.9661006540964E-01
(PID.TID 0000.0001) %MON forcing_qsw_max              =   0.0000000000000E+00
(PID.TID 0000.0001) %MON forcing_qsw_min              =   0.0000000000000E+00
(PID.TID 0000.0001) %MON forcing_qsw_mean             =   0.0000000000000E+00
(PID.TID 0000.0001) %MON forcing_qsw_sd               =   0.0000000000000E+00
(PID.TID 0000.0001) %MON forcing_qsw_del2             =   0.0000000000000E+00
(PID.TID 0000.0001) %MON forcing_empmr_max            =   0.0000000000000E+00
(PID.TID 0000.0001) %MON forcing_empmr_min            =   0.0000000000000E+00
(PID.TID 0000.0001) %MON forcing_empmr_mean           =   0.0000000000000E+00
(PID.TID 0000.0001) %MON forcing_empmr_sd             =   0.0000000000000E+00
(PID.TID 0000.0001) %MON forcing_empmr_del2           =   0.0000000000000E+00
(PID.TID 0000.0001) %MON forcing_fu_max               =   2.6842309946134E-01
(PID.TID 0000.0001) %MON forcing_fu_min               =  -1.6027185298322E-01
(PID.TID 0000.0001) %MON forcing_fu_mean              =   1.6134795862858E-02
(PID.TID 0000.0001) %MON forcing_fu_sd                =   8.9825620405949E-02
(PID.TID 0000.0001) %MON forcing_fu_del2              =   6.3988255073070E-04
(PID.TID 0000.0001) %MON forcing_fv_max               =   2.0515418489043E-01
(PID.TID 0000.0001) %MON forcing_fv_min               =  -1.5824728205635E-01
(PID.TID 0000.0001) %MON forcing_fv_mean              =  -5.8886000205934E-03
(PID.TID 0000.0001) %MON forcing_fv_sd                =   4.4262059422938E-02
(PID.TID 0000.0001) %MON forcing_fv_del2              =   3.4556497533514E-04
(PID.TID 0000.0001) %MON trAdv_CFL_u_max              =   1.6925756625553E-02
(PID.TID 0000.0001) %MON trAdv_CFL_v_max              =   1.3672003315817E-02
(PID.TID 0000.0001) %MON trAdv_CFL_w_max              =   1.0050595618664E-01
(PID.TID 0000.0001) %MON advcfl_uvel_max              =   1.5459089338805E-02
(PID.TID 0000.0001) %MON advcfl_vvel_max              =   9.1042835969837E-03
(PID.TID 0000.0001) %MON advcfl_wvel_max              =   1.8988583081083E-01
(PID.TID 0000.0001) %MON advcfl_W_hf_max              =   9.6085029342049E-02
(PID.TID 0000.0001) %MON pe_b_mean                    =   9.6582439249003E-05
(PID.TID 0000.0001) %MON ke_max                       =   5.6350693648769E-03
(PID.TID 0000.0001) %MON ke_mean                      =   1.9646882110569E-04
(PID.TID 0000.0001) %MON ke_vol                       =   1.3226782436723E+18
(PID.TID 0000.0001) %MON vort_r_min                   =  -3.2991072478234E-07
(PID.TID 0000.0001) %MON vort_r_max                   =   4.9284783668807E-07
(PID.TID 0000.0001) %MON vort_a_mean                  =  -2.5205769613946E-05
(PID.TID 0000.0001) %MON vort_a_sd                    =   7.3401813503397E-05
(PID.TID 0000.0001) %MON vort_p_mean                  =  -3.1758669835302E-05
(PID.TID 0000.0001) %MON vort_p_sd                    =   1.3126201824565E-04
(PID.TID 0000.0001) %MON surfExpan_theta_mean         =   1.5530036680960E-04
(PID.TID 0000.0001) %MON surfExpan_salt_mean          =   1.1921006951946E-05
(PID.TID 0000.0001) // =======================================================
(PID.TID 0000.0001) // End MONITOR dynamic field statistics
(PID.TID 0000.0001) // =======================================================
(PID.TID 0000.0001) // =======================================================
(PID.TID 0000.0001) // Begin MONITOR EXF statistics
(PID.TID 0000.0001) // =======================================================
(PID.TID 0000.0001) %MON exf_tsnumber                 =                    10
(PID.TID 0000.0001) %MON exf_time_sec                 =   4.3200000000000E+05
(PID.TID 0000.0001) %MON exf_ustress_max              =   2.7321932606039E-01
(PID.TID 0000.0001) %MON exf_ustress_min              =  -1.6133600554519E-01
(PID.TID 0000.0001) %MON exf_ustress_mean             =   1.5075293910588E-02
(PID.TID 0000.0001) %MON exf_ustress_sd               =   8.8616051606769E-02
(PID.TID 0000.0001) %MON exf_ustress_del2             =   6.7325846595317E-04
(PID.TID 0000.0001) %MON exf_vstress_max              =   2.1020678730471E-01
(PID.TID 0000.0001) %MON exf_vstress_min              =  -1.6015488788065E-01
(PID.TID 0000.0001) %MON exf_vstress_mean             =  -6.1613308720370E-03
(PID.TID 0000.0001) %MON exf_vstress_sd               =   4.5376631589035E-02
(PID.TID 0000.0001) %MON exf_vstress_del2             =   4.2215400539422E-04
(PID.TID 0000.0001) %MON exf_hflux_max                =   4.3096268192414E+02
(PID.TID 0000.0001) %MON exf_hflux_min                =  -1.8476652108469E+02
(PID.TID 0000.0001) %MON exf_hflux_mean               =  -1.6639663616665E+01
(PID.TID 0000.0001) %MON exf_hflux_sd                 =   1.1182949623291E+02
(PID.TID 0000.0001) %MON exf_hflux_del2               =   1.2193938167966E+00
(PID.TID 0000.0001) %MON exf_climsst_max              =   2.9483955260246E+01
(PID.TID 0000.0001) %MON exf_climsst_min              =  -1.9000000000000E+00
(PID.TID 0000.0001) %MON exf_climsst_mean             =   1.8403413558844E+01
(PID.TID 0000.0001) %MON exf_climsst_sd               =   9.1956055138375E+00
(PID.TID 0000.0001) %MON exf_climsst_del2             =   2.4346037167323E-02
(PID.TID 0000.0001) %MON exf_climsss_max              =   3.7459143607847E+01
(PID.TID 0000.0001) %MON exf_climsss_min              =   2.9690893942310E+01
(PID.TID 0000.0001) %MON exf_climsss_mean             =   3.4847776500140E+01
(PID.TID 0000.0001) %MON exf_climsss_sd               =   9.6502048245593E-01
(PID.TID 0000.0001) %MON exf_climsss_del2             =   7.0909874257237E-03
(PID.TID 0000.0001) // =======================================================
(PID.TID 0000.0001) // End MONITOR EXF statistics
(PID.TID 0000.0001) // =======================================================
 cg2d: Sum(rhs),rhsMax =  -5.37347943918576E-13  8.12931091457686E+00
(PID.TID 0000.0001)      cg2d_init_res =   1.18031511737461E+00
(PID.TID 0000.0001)      cg2d_iters(min,last) =      -1      25
(PID.TID 0000.0001)      cg2d_last_res =   8.23188694310954E-14
(PID.TID 0000.0001) // =======================================================
(PID.TID 0000.0001) // Begin MONITOR dynamic field statistics
(PID.TID 0000.0001) // =======================================================
(PID.TID 0000.0001) %MON time_tsnumber                =                    11
(PID.TID 0000.0001) %MON time_secondsf                =   4.7520000000000E+05
(PID.TID 0000.0001) %MON dynstat_eta_max              =   9.4977428693392E-01
(PID.TID 0000.0001) %MON dynstat_eta_min              =  -8.8802218352328E-01
(PID.TID 0000.0001) %MON dynstat_eta_mean             =   3.6315999029236E-16
(PID.TID 0000.0001) %MON dynstat_eta_sd               =   2.9439834397461E-01
(PID.TID 0000.0001) %MON dynstat_eta_del2             =   2.3475455479719E-03
(PID.TID 0000.0001) %MON dynstat_uvel_max             =   1.1257260010082E-01
(PID.TID 0000.0001) %MON dynstat_uvel_min             =  -1.2703113668362E-01
(PID.TID 0000.0001) %MON dynstat_uvel_mean            =  -8.4326242601212E-03
(PID.TID 0000.0001) %MON dynstat_uvel_sd              =   1.2433727199145E-02
(PID.TID 0000.0001) %MON dynstat_uvel_del2            =   9.6020591925170E-05
(PID.TID 0000.0001) %MON dynstat_vvel_max             =   1.0079979987353E-01
(PID.TID 0000.0001) %MON dynstat_vvel_min             =  -9.3861512710346E-02
(PID.TID 0000.0001) %MON dynstat_vvel_mean            =   4.7686827321601E-03
(PID.TID 0000.0001) %MON dynstat_vvel_sd              =   1.4856582066263E-02
(PID.TID 0000.0001) %MON dynstat_vvel_del2            =   1.1404505063557E-04
(PID.TID 0000.0001) %MON dynstat_wvel_max             =   2.6133977744273E-04
(PID.TID 0000.0001) %MON dynstat_wvel_min             =  -3.2207186319276E-04
(PID.TID 0000.0001) %MON dynstat_wvel_mean            =   7.0462227097413E-23
(PID.TID 0000.0001) %MON dynstat_wvel_sd              =   3.5118022680538E-05
(PID.TID 0000.0001) %MON dynstat_wvel_del2            =   3.8357421530213E-07
(PID.TID 0000.0001) %MON dynstat_theta_max            =   2.9584146152489E+01
(PID.TID 0000.0001) %MON dynstat_theta_min            =  -2.1166324130849E+00
(PID.TID 0000.0001) %MON dynstat_theta_mean           =   3.6040055902195E+00
(PID.TID 0000.0001) %MON dynstat_theta_sd             =   4.3825184573490E+00
(PID.TID 0000.0001) %MON dynstat_theta_del2           =   5.1936197599845E-03
(PID.TID 0000.0001) %MON dynstat_salt_max             =   3.7435645031904E+01
(PID.TID 0000.0001) %MON dynstat_salt_min             =   2.9783559466158E+01
(PID.TID 0000.0001) %MON dynstat_salt_mean            =   3.4716712405894E+01
(PID.TID 0000.0001) %MON dynstat_salt_sd              =   2.9613833637723E-01
(PID.TID 0000.0001) %MON dynstat_salt_del2            =   1.0075018343646E-03
(PID.TID 0000.0001) %MON forcing_qnet_max             =   4.3096268192414E+02
(PID.TID 0000.0001) %MON forcing_qnet_min             =  -1.8476652108469E+02
(PID.TID 0000.0001) %MON forcing_qnet_mean            =  -1.6639663616665E+01
(PID.TID 0000.0001) %MON forcing_qnet_sd              =   1.1182949623291E+02
(PID.TID 0000.0001) %MON forcing_qnet_del2            =   9.9746155806858E-01
(PID.TID 0000.0001) %MON forcing_qsw_max              =   0.0000000000000E+00
(PID.TID 0000.0001) %MON forcing_qsw_min              =   0.0000000000000E+00
(PID.TID 0000.0001) %MON forcing_qsw_mean             =   0.0000000000000E+00
(PID.TID 0000.0001) %MON forcing_qsw_sd               =   0.0000000000000E+00
(PID.TID 0000.0001) %MON forcing_qsw_del2             =   0.0000000000000E+00
(PID.TID 0000.0001) %MON forcing_empmr_max            =   0.0000000000000E+00
(PID.TID 0000.0001) %MON forcing_empmr_min            =   0.0000000000000E+00
(PID.TID 0000.0001) %MON forcing_empmr_mean           =   0.0000000000000E+00
(PID.TID 0000.0001) %MON forcing_empmr_sd             =   0.0000000000000E+00
(PID.TID 0000.0001) %MON forcing_empmr_del2           =   0.0000000000000E+00
(PID.TID 0000.0001) %MON forcing_fu_max               =   2.6850638245683E-01
(PID.TID 0000.0001) %MON forcing_fu_min               =  -1.6069159150544E-01
(PID.TID 0000.0001) %MON forcing_fu_mean              =   1.6130833066625E-02
(PID.TID 0000.0001) %MON forcing_fu_sd                =   8.9839383862168E-02
(PID.TID 0000.0001) %MON forcing_fu_del2              =   6.4138228025883E-04
(PID.TID 0000.0001) %MON forcing_fv_max               =   2.0609870982251E-01
(PID.TID 0000.0001) %MON forcing_fv_min               =  -1.5880548736388E-01
(PID.TID 0000.0001) %MON forcing_fv_mean              =  -5.8541475166295E-03
(PID.TID 0000.0001) %MON forcing_fv_sd                =   4.4340449957053E-02
(PID.TID 0000.0001) %MON forcing_fv_del2              =   3.4630268104764E-04
(PID.TID 0000.0001) %MON trAdv_CFL_u_max              =   1.5462229190415E-02
(PID.TID 0000.0001) %MON trAdv_CFL_v_max              =   1.3840752948017E-02
(PID.TID 0000.0001) %MON trAdv_CFL_w_max              =   9.6085029342049E-02
(PID.TID 0000.0001) %MON advcfl_uvel_max              =   1.6591447452712E-02
(PID.TID 0000.0001) %MON advcfl_vvel_max              =   9.7918922404993E-03
(PID.TID 0000.0001) %MON advcfl_wvel_max              =   1.8535676032854E-01
(PID.TID 0000.0001) %MON advcfl_W_hf_max              =   8.9017307891472E-02
(PID.TID 0000.0001) %MON pe_b_mean                    =   1.1090520415117E-04
(PID.TID 0000.0001) %MON ke_max                       =   6.5742564229372E-03
(PID.TID 0000.0001) %MON ke_mean                      =   2.1184111399955E-04
(PID.TID 0000.0001) %MON ke_vol                       =   1.3226782436723E+18
(PID.TID 0000.0001) %MON vort_r_min                   =  -3.2891019895893E-07
(PID.TID 0000.0001) %MON vort_r_max                   =   5.3411118891628E-07
(PID.TID 0000.0001) %MON vort_a_mean                  =  -2.5205769685032E-05
(PID.TID 0000.0001) %MON vort_a_sd                    =   7.3401674435421E-05
(PID.TID 0000.0001) %MON vort_p_mean                  =  -3.1758669924869E-05
(PID.TID 0000.0001) %MON vort_p_sd                    =   1.3126148075246E-04
(PID.TID 0000.0001) %MON surfExpan_theta_mean         =   1.4646988549663E-04
(PID.TID 0000.0001) %MON surfExpan_salt_mean          =   1.0884875130095E-05
(PID.TID 0000.0001) // =======================================================
(PID.TID 0000.0001) // End MONITOR dynamic field statistics
(PID.TID 0000.0001) // =======================================================
 Computing Diagnostic #    197  EXFtaux      Counter:       1   Parms: UM      U1      
 Computing Diagnostic #    198  EXFtauy      Counter:       1   Parms: VM      U1      
 Computing Diagnostic #    196  EXFqnet      Counter:       1   Parms: SM      U1      
 Computing Diagnostic #    209  EXFempmr     Counter:       1   Parms: SM      U1      
 Computing Diagnostic #     26  THETA        Counter:       1   Parms: SMR     MR      
 Computing Diagnostic #     27  SALT         Counter:       1   Parms: SMR     MR      
 Computing Diagnostic #     30  UVEL         Counter:       1   Parms: UUR     MR      
           Vector  Mate for  UVEL         Diagnostic #     31  VVEL     exists 
 Computing Diagnostic #     31  VVEL         Counter:       1   Parms: VVR     MR      
           Vector  Mate for  VVEL         Diagnostic #     30  UVEL     exists 
(PID.TID 0000.0001) // =======================================================
(PID.TID 0000.0001) // Begin MONITOR EXF statistics
(PID.TID 0000.0001) // =======================================================
(PID.TID 0000.0001) %MON exf_tsnumber                 =                    11
(PID.TID 0000.0001) %MON exf_time_sec                 =   4.7520000000000E+05
(PID.TID 0000.0001) %MON exf_ustress_max              =   2.7303651251620E-01
(PID.TID 0000.0001) %MON exf_ustress_min              =  -1.6162936972274E-01
(PID.TID 0000.0001) %MON exf_ustress_mean             =   1.5072877487345E-02
(PID.TID 0000.0001) %MON exf_ustress_sd               =   8.8632851460792E-02
(PID.TID 0000.0001) %MON exf_ustress_del2             =   6.7478635961587E-04
(PID.TID 0000.0001) %MON exf_vstress_max              =   2.1088797977615E-01
(PID.TID 0000.0001) %MON exf_vstress_min              =  -1.6106090054757E-01
(PID.TID 0000.0001) %MON exf_vstress_mean             =  -6.1284961228811E-03
(PID.TID 0000.0001) %MON exf_vstress_sd               =   4.5456761598848E-02
(PID.TID 0000.0001) %MON exf_vstress_del2             =   4.2278360663471E-04
(PID.TID 0000.0001) %MON exf_hflux_max                =   4.3146986930601E+02
(PID.TID 0000.0001) %MON exf_hflux_min                =  -1.8454047467632E+02
(PID.TID 0000.0001) %MON exf_hflux_mean               =  -1.6633609444493E+01
(PID.TID 0000.0001) %MON exf_hflux_sd                 =   1.1173010674746E+02
(PID.TID 0000.0001) %MON exf_hflux_del2               =   1.2199654964470E+00
(PID.TID 0000.0001) %MON exf_climsst_max              =   2.9480712890625E+01
(PID.TID 0000.0001) %MON exf_climsst_min              =  -1.9000000000000E+00
(PID.TID 0000.0001) %MON exf_climsst_mean             =   1.8407276396474E+01
(PID.TID 0000.0001) %MON exf_climsst_sd               =   9.1942619057521E+00
(PID.TID 0000.0001) %MON exf_climsst_del2             =   2.4400242208664E-02
(PID.TID 0000.0001) %MON exf_climsss_max              =   3.7459928574101E+01
(PID.TID 0000.0001) %MON exf_climsss_min              =   2.9693840396020E+01
(PID.TID 0000.0001) %MON exf_climsss_mean             =   3.4847878822762E+01
(PID.TID 0000.0001) %MON exf_climsss_sd               =   9.6473567762276E-01
(PID.TID 0000.0001) %MON exf_climsss_del2             =   7.1118635720215E-03
(PID.TID 0000.0001) // =======================================================
(PID.TID 0000.0001) // End MONITOR EXF statistics
(PID.TID 0000.0001) // =======================================================
 cg2d: Sum(rhs),rhsMax =  -7.04325486822199E-13  7.96986806186199E+00
(PID.TID 0000.0001)      cg2d_init_res =   1.15850163949866E+00
(PID.TID 0000.0001)      cg2d_iters(min,last) =      -1      25
(PID.TID 0000.0001)      cg2d_last_res =   7.91723904969404E-14
(PID.TID 0000.0001) // =======================================================
(PID.TID 0000.0001) // Begin MONITOR dynamic field statistics
(PID.TID 0000.0001) // =======================================================
(PID.TID 0000.0001) %MON time_tsnumber                =                    12
(PID.TID 0000.0001) %MON time_secondsf                =   5.1840000000000E+05
(PID.TID 0000.0001) %MON dynstat_eta_max              =   9.7688469658678E-01
(PID.TID 0000.0001) %MON dynstat_eta_min              =  -9.6499007711540E-01
(PID.TID 0000.0001) %MON dynstat_eta_mean             =   4.1387559990925E-16
(PID.TID 0000.0001) %MON dynstat_eta_sd               =   3.1187836099730E-01
(PID.TID 0000.0001) %MON dynstat_eta_del2             =   2.2812621833236E-03
(PID.TID 0000.0001) %MON dynstat_uvel_max             =   1.1983603101730E-01
(PID.TID 0000.0001) %MON dynstat_uvel_min             =  -1.3027672163184E-01
(PID.TID 0000.0001) %MON dynstat_uvel_mean            =  -9.0365913519479E-03
(PID.TID 0000.0001) %MON dynstat_uvel_sd              =   1.3436961855229E-02
(PID.TID 0000.0001) %MON dynstat_uvel_del2            =   9.9800014228518E-05
(PID.TID 0000.0001) %MON dynstat_vvel_max             =   1.0534958317847E-01
(PID.TID 0000.0001) %MON dynstat_vvel_min             =  -9.7046994592594E-02
(PID.TID 0000.0001) %MON dynstat_vvel_mean            =   4.5545883508208E-03
(PID.TID 0000.0001) %MON dynstat_vvel_sd              =   1.4647697794667E-02
(PID.TID 0000.0001) %MON dynstat_vvel_del2            =   1.1571514298747E-04
(PID.TID 0000.0001) %MON dynstat_wvel_max             =   2.5331254270054E-04
(PID.TID 0000.0001) %MON dynstat_wvel_min             =  -3.3597556633825E-04
(PID.TID 0000.0001) %MON dynstat_wvel_mean            =   9.1600895226637E-22
(PID.TID 0000.0001) %MON dynstat_wvel_sd              =   3.4689072109251E-05
(PID.TID 0000.0001) %MON dynstat_wvel_del2            =   3.7813793010322E-07
(PID.TID 0000.0001) %MON dynstat_theta_max            =   2.9547389006038E+01
(PID.TID 0000.0001) %MON dynstat_theta_min            =  -2.1328750871756E+00
(PID.TID 0000.0001) %MON dynstat_theta_mean           =   3.6024517898218E+00
(PID.TID 0000.0001) %MON dynstat_theta_sd             =   4.3784949468143E+00
(PID.TID 0000.0001) %MON dynstat_theta_del2           =   5.1621135849671E-03
(PID.TID 0000.0001) %MON dynstat_salt_max             =   3.7433666998069E+01
(PID.TID 0000.0001) %MON dynstat_salt_min             =   2.9785238756794E+01
(PID.TID 0000.0001) %MON dynstat_salt_mean            =   3.4716596768529E+01
(PID.TID 0000.0001) %MON dynstat_salt_sd              =   2.9611493073713E-01
(PID.TID 0000.0001) %MON dynstat_salt_del2            =   1.0063224354272E-03
(PID.TID 0000.0001) %MON forcing_qnet_max             =   4.3146986930601E+02
(PID.TID 0000.0001) %MON forcing_qnet_min             =  -1.8454047467632E+02
(PID.TID 0000.0001) %MON forcing_qnet_mean            =  -1.6633609444493E+01
(PID.TID 0000.0001) %MON forcing_qnet_sd              =   1.1173010674746E+02
(PID.TID 0000.0001) %MON forcing_qnet_del2            =   9.9835386070598E-01
(PID.TID 0000.0001) %MON forcing_qsw_max              =   0.0000000000000E+00
(PID.TID 0000.0001) %MON forcing_qsw_min              =   0.0000000000000E+00
(PID.TID 0000.0001) %MON forcing_qsw_mean             =   0.0000000000000E+00
(PID.TID 0000.0001) %MON forcing_qsw_sd               =   0.0000000000000E+00
(PID.TID 0000.0001) %MON forcing_qsw_del2             =   0.0000000000000E+00
(PID.TID 0000.0001) %MON forcing_empmr_max            =   0.0000000000000E+00
(PID.TID 0000.0001) %MON forcing_empmr_min            =   0.0000000000000E+00
(PID.TID 0000.0001) %MON forcing_empmr_mean           =   0.0000000000000E+00
(PID.TID 0000.0001) %MON forcing_empmr_sd             =   0.0000000000000E+00
(PID.TID 0000.0001) %MON forcing_empmr_del2           =   0.0000000000000E+00
(PID.TID 0000.0001) %MON forcing_fu_max               =   2.6858966545232E-01
(PID.TID 0000.0001) %MON forcing_fu_min               =  -1.6111133002766E-01
(PID.TID 0000.0001) %MON forcing_fu_mean              =   1.6126870270393E-02
(PID.TID 0000.0001) %MON forcing_fu_sd                =   8.9855611565636E-02
(PID.TID 0000.0001) %MON forcing_fu_del2              =   6.4298511799446E-04
(PID.TID 0000.0001) %MON forcing_fv_max               =   2.0704323475459E-01
(PID.TID 0000.0001) %MON forcing_fv_min               =  -1.5936369267142E-01
(PID.TID 0000.0001) %MON forcing_fv_mean              =  -5.8196950126655E-03
(PID.TID 0000.0001) %MON forcing_fv_sd                =   4.4422035726964E-02
(PID.TID 0000.0001) %MON forcing_fv_del2              =   3.4711523270794E-04
(PID.TID 0000.0001) %MON trAdv_CFL_u_max              =   1.6594817294354E-02
(PID.TID 0000.0001) %MON trAdv_CFL_v_max              =   1.3634092629078E-02
(PID.TID 0000.0001) %MON trAdv_CFL_w_max              =   8.9461353310062E-02
(PID.TID 0000.0001) %MON advcfl_uvel_max              =   1.9462495914202E-02
(PID.TID 0000.0001) %MON advcfl_vvel_max              =   1.0233867203698E-02
(PID.TID 0000.0001) %MON advcfl_wvel_max              =   1.8848932593953E-01
(PID.TID 0000.0001) %MON advcfl_W_hf_max              =   8.2488617489628E-02
(PID.TID 0000.0001) %MON pe_b_mean                    =   1.2446627337958E-04
(PID.TID 0000.0001) %MON ke_max                       =   7.5195445565592E-03
(PID.TID 0000.0001) %MON ke_mean                      =   2.2476302942654E-04
(PID.TID 0000.0001) %MON ke_vol                       =   1.3226782436723E+18
(PID.TID 0000.0001) %MON vort_r_min                   =  -3.2448084079080E-07
(PID.TID 0000.0001) %MON vort_r_max                   =   5.6133524907519E-07
(PID.TID 0000.0001) %MON vort_a_mean                  =  -2.5205769737192E-05
(PID.TID 0000.0001) %MON vort_a_sd                    =   7.3401555173181E-05
(PID.TID 0000.0001) %MON vort_p_mean                  =  -3.1758669990590E-05
(PID.TID 0000.0001) %MON vort_p_sd                    =   1.3126100171000E-04
(PID.TID 0000.0001) %MON surfExpan_theta_mean         =   1.3573499908827E-04
(PID.TID 0000.0001) %MON surfExpan_salt_mean          =   9.6839476316839E-06
(PID.TID 0000.0001) // =======================================================
(PID.TID 0000.0001) // End MONITOR dynamic field statistics
(PID.TID 0000.0001) // =======================================================
(PID.TID 0000.0001) // =======================================================
(PID.TID 0000.0001) // Begin MONITOR EXF statistics
(PID.TID 0000.0001) // =======================================================
(PID.TID 0000.0001) %MON exf_tsnumber                 =                    12
(PID.TID 0000.0001) %MON exf_time_sec                 =   5.1840000000000E+05
(PID.TID 0000.0001) %MON exf_ustress_max              =   2.7285369897201E-01
(PID.TID 0000.0001) %MON exf_ustress_min              =  -1.6192273390029E-01
(PID.TID 0000.0001) %MON exf_ustress_mean             =   1.5070461064101E-02
(PID.TID 0000.0001) %MON exf_ustress_sd               =   8.8652139447821E-02
(PID.TID 0000.0001) %MON exf_ustress_del2             =   6.7642194934987E-04
(PID.TID 0000.0001) %MON exf_vstress_max              =   2.1156917224758E-01
(PID.TID 0000.0001) %MON exf_vstress_min              =  -1.6196691321449E-01
(PID.TID 0000.0001) %MON exf_vstress_mean             =  -6.0956613737253E-03
(PID.TID 0000.0001) %MON exf_vstress_sd               =   4.5540224604273E-02
(PID.TID 0000.0001) %MON exf_vstress_del2             =   4.2349843548420E-04
(PID.TID 0000.0001) %MON exf_hflux_max                =   4.3197705668788E+02
(PID.TID 0000.0001) %MON exf_hflux_min                =  -1.8431442826794E+02
(PID.TID 0000.0001) %MON exf_hflux_mean               =  -1.6627555272320E+01
(PID.TID 0000.0001) %MON exf_hflux_sd                 =   1.1163132884860E+02
(PID.TID 0000.0001) %MON exf_hflux_del2               =   1.2205718985698E+00
(PID.TID 0000.0001) %MON exf_climsst_max              =   2.9478864669800E+01
(PID.TID 0000.0001) %MON exf_climsst_min              =  -1.9000000000000E+00
(PID.TID 0000.0001) %MON exf_climsst_mean             =   1.8411139234104E+01
(PID.TID 0000.0001) %MON exf_climsst_sd               =   9.1929787466534E+00
(PID.TID 0000.0001) %MON exf_climsst_del2             =   2.4463358305507E-02
(PID.TID 0000.0001) %MON exf_climsss_max              =   3.7460713540354E+01
(PID.TID 0000.0001) %MON exf_climsss_min              =   2.9696786849729E+01
(PID.TID 0000.0001) %MON exf_climsss_mean             =   3.4847981145384E+01
(PID.TID 0000.0001) %MON exf_climsss_sd               =   9.6447180143090E-01
(PID.TID 0000.0001) %MON exf_climsss_del2             =   7.1354415626269E-03
(PID.TID 0000.0001) // =======================================================
(PID.TID 0000.0001) // End MONITOR EXF statistics
(PID.TID 0000.0001) // =======================================================
 cg2d: Sum(rhs),rhsMax =  -8.34887714518118E-13  8.38087683774543E+00
(PID.TID 0000.0001)      cg2d_init_res =   1.06189096618509E+00
(PID.TID 0000.0001)      cg2d_iters(min,last) =      -1      25
(PID.TID 0000.0001)      cg2d_last_res =   7.02713061041342E-14
(PID.TID 0000.0001) // =======================================================
(PID.TID 0000.0001) // Begin MONITOR dynamic field statistics
(PID.TID 0000.0001) // =======================================================
(PID.TID 0000.0001) %MON time_tsnumber                =                    13
(PID.TID 0000.0001) %MON time_secondsf                =   5.6160000000000E+05
(PID.TID 0000.0001) %MON dynstat_eta_max              =   1.0261880312008E+00
(PID.TID 0000.0001) %MON dynstat_eta_min              =  -1.0380906676474E+00
(PID.TID 0000.0001) %MON dynstat_eta_mean             =   4.1885659728233E-16
(PID.TID 0000.0001) %MON dynstat_eta_sd               =   3.2705318794769E-01
(PID.TID 0000.0001) %MON dynstat_eta_del2             =   2.2208392033532E-03
(PID.TID 0000.0001) %MON dynstat_uvel_max             =   1.2642106741097E-01
(PID.TID 0000.0001) %MON dynstat_uvel_min             =  -1.2936498410505E-01
(PID.TID 0000.0001) %MON dynstat_uvel_mean            =  -9.5125661482443E-03
(PID.TID 0000.0001) %MON dynstat_uvel_sd              =   1.4335182039723E-02
(PID.TID 0000.0001) %MON dynstat_uvel_del2            =   1.0294375776713E-04
(PID.TID 0000.0001) %MON dynstat_vvel_max             =   1.0913668399808E-01
(PID.TID 0000.0001) %MON dynstat_vvel_min             =  -9.8414070408417E-02
(PID.TID 0000.0001) %MON dynstat_vvel_mean            =   4.2769720417190E-03
(PID.TID 0000.0001) %MON dynstat_vvel_sd              =   1.4366037795184E-02
(PID.TID 0000.0001) %MON dynstat_vvel_del2            =   1.1633257571202E-04
(PID.TID 0000.0001) %MON dynstat_wvel_max             =   2.5432233172429E-04
(PID.TID 0000.0001) %MON dynstat_wvel_min             =  -3.4374318131621E-04
(PID.TID 0000.0001) %MON dynstat_wvel_mean            =  -8.6903413420142E-22
(PID.TID 0000.0001) %MON dynstat_wvel_sd              =   3.3980234691539E-05
(PID.TID 0000.0001) %MON dynstat_wvel_del2            =   3.6858174019706E-07
(PID.TID 0000.0001) %MON dynstat_theta_max            =   2.9557084183404E+01
(PID.TID 0000.0001) %MON dynstat_theta_min            =  -2.1425995597085E+00
(PID.TID 0000.0001) %MON dynstat_theta_mean           =   3.6010322909364E+00
(PID.TID 0000.0001) %MON dynstat_theta_sd             =   4.3746143134004E+00
(PID.TID 0000.0001) %MON dynstat_theta_del2           =   5.1317853801921E-03
(PID.TID 0000.0001) %MON dynstat_salt_max             =   3.7431834635906E+01
(PID.TID 0000.0001) %MON dynstat_salt_min             =   2.9786499818966E+01
(PID.TID 0000.0001) %MON dynstat_salt_mean            =   3.4716495782582E+01
(PID.TID 0000.0001) %MON dynstat_salt_sd              =   2.9608739668466E-01
(PID.TID 0000.0001) %MON dynstat_salt_del2            =   1.0054054317249E-03
(PID.TID 0000.0001) %MON forcing_qnet_max             =   4.3197705668788E+02
(PID.TID 0000.0001) %MON forcing_qnet_min             =  -1.8431442826794E+02
(PID.TID 0000.0001) %MON forcing_qnet_mean            =  -1.6627555272320E+01
(PID.TID 0000.0001) %MON forcing_qnet_sd              =   1.1163132884860E+02
(PID.TID 0000.0001) %MON forcing_qnet_del2            =   9.9928686399933E-01
(PID.TID 0000.0001) %MON forcing_qsw_max              =   0.0000000000000E+00
(PID.TID 0000.0001) %MON forcing_qsw_min              =   0.0000000000000E+00
(PID.TID 0000.0001) %MON forcing_qsw_mean             =   0.0000000000000E+00
(PID.TID 0000.0001) %MON forcing_qsw_sd               =   0.0000000000000E+00
(PID.TID 0000.0001) %MON forcing_qsw_del2             =   0.0000000000000E+00
(PID.TID 0000.0001) %MON forcing_empmr_max            =   0.0000000000000E+00
(PID.TID 0000.0001) %MON forcing_empmr_min            =   0.0000000000000E+00
(PID.TID 0000.0001) %MON forcing_empmr_mean           =   0.0000000000000E+00
(PID.TID 0000.0001) %MON forcing_empmr_sd             =   0.0000000000000E+00
(PID.TID 0000.0001) %MON forcing_empmr_del2           =   0.0000000000000E+00
(PID.TID 0000.0001) %MON forcing_fu_max               =   2.6867294844781E-01
(PID.TID 0000.0001) %MON forcing_fu_min               =  -1.6153106854988E-01
(PID.TID 0000.0001) %MON forcing_fu_mean              =   1.6122907474161E-02
(PID.TID 0000.0001) %MON forcing_fu_sd                =   8.9874302181520E-02
(PID.TID 0000.0001) %MON forcing_fu_del2              =   6.4469029489099E-04
(PID.TID 0000.0001) %MON forcing_fv_max               =   2.0798775968668E-01
(PID.TID 0000.0001) %MON forcing_fv_min               =  -1.5992189797896E-01
(PID.TID 0000.0001) %MON forcing_fv_mean              =  -5.7852425087016E-03
(PID.TID 0000.0001) %MON forcing_fv_sd                =   4.4506799161037E-02
(PID.TID 0000.0001) %MON forcing_fv_del2              =   3.4800210604202E-04
(PID.TID 0000.0001) %MON trAdv_CFL_u_max              =   1.9466448886321E-02
(PID.TID 0000.0001) %MON trAdv_CFL_v_max              =   1.2992927742033E-02
(PID.TID 0000.0001) %MON trAdv_CFL_w_max              =   8.1882652916402E-02
(PID.TID 0000.0001) %MON advcfl_uvel_max              =   2.2471358326093E-02
(PID.TID 0000.0001) %MON advcfl_vvel_max              =   1.0601753679426E-02
(PID.TID 0000.0001) %MON advcfl_wvel_max              =   1.8874178040570E-01
(PID.TID 0000.0001) %MON advcfl_W_hf_max              =   8.2526480074685E-02
(PID.TID 0000.0001) %MON pe_b_mean                    =   1.3687305907010E-04
(PID.TID 0000.0001) %MON ke_max                       =   8.4497124092942E-03
(PID.TID 0000.0001) %MON ke_mean                      =   2.3533777791111E-04
(PID.TID 0000.0001) %MON ke_vol                       =   1.3226782436723E+18
(PID.TID 0000.0001) %MON vort_r_min                   =  -3.1712809654511E-07
(PID.TID 0000.0001) %MON vort_r_max                   =   5.7360610852706E-07
(PID.TID 0000.0001) %MON vort_a_mean                  =  -2.5205769765617E-05
(PID.TID 0000.0001) %MON vort_a_sd                    =   7.3401458532218E-05
(PID.TID 0000.0001) %MON vort_p_mean                  =  -3.1758670026404E-05
(PID.TID 0000.0001) %MON vort_p_sd                    =   1.3126060163253E-04
(PID.TID 0000.0001) %MON surfExpan_theta_mean         =   1.2363753295387E-04
(PID.TID 0000.0001) %MON surfExpan_salt_mean          =   8.3831899015235E-06
(PID.TID 0000.0001) // =======================================================
(PID.TID 0000.0001) // End MONITOR dynamic field statistics
(PID.TID 0000.0001) // =======================================================
(PID.TID 0000.0001) // =======================================================
(PID.TID 0000.0001) // Begin MONITOR EXF statistics
(PID.TID 0000.0001) // =======================================================
(PID.TID 0000.0001) %MON exf_tsnumber                 =                    13
(PID.TID 0000.0001) %MON exf_time_sec                 =   5.6160000000000E+05
(PID.TID 0000.0001) %MON exf_ustress_max              =   2.7267088542782E-01
(PID.TID 0000.0001) %MON exf_ustress_min              =  -1.6221609807784E-01
(PID.TID 0000.0001) %MON exf_ustress_mean             =   1.5068044640858E-02
(PID.TID 0000.0001) %MON exf_ustress_sd               =   8.8673913944228E-02
(PID.TID 0000.0001) %MON exf_ustress_del2             =   6.7816445593493E-04
(PID.TID 0000.0001) %MON exf_vstress_max              =   2.1225036471902E-01
(PID.TID 0000.0001) %MON exf_vstress_min              =  -1.6287292588142E-01
(PID.TID 0000.0001) %MON exf_vstress_mean             =  -6.0628266245695E-03
(PID.TID 0000.0001) %MON exf_vstress_sd               =   4.5627002314708E-02
(PID.TID 0000.0001) %MON exf_vstress_del2             =   4.2429806118567E-04
(PID.TID 0000.0001) %MON exf_hflux_max                =   4.3248424406975E+02
(PID.TID 0000.0001) %MON exf_hflux_min                =  -1.8408838185956E+02
(PID.TID 0000.0001) %MON exf_hflux_mean               =  -1.6621501100148E+01
(PID.TID 0000.0001) %MON exf_hflux_sd                 =   1.1153316416126E+02
(PID.TID 0000.0001) %MON exf_hflux_del2               =   1.2212129714398E+00
(PID.TID 0000.0001) %MON exf_climsst_max              =   2.9477016448975E+01
(PID.TID 0000.0001) %MON exf_climsst_min              =  -1.9000000000000E+00
(PID.TID 0000.0001) %MON exf_climsst_mean             =   1.8415002071734E+01
(PID.TID 0000.0001) %MON exf_climsst_sd               =   9.1917560618574E+00
(PID.TID 0000.0001) %MON exf_climsst_del2             =   2.4535316687973E-02
(PID.TID 0000.0001) %MON exf_climsss_max              =   3.7461498506608E+01
(PID.TID 0000.0001) %MON exf_climsss_min              =   2.9699733303439E+01
(PID.TID 0000.0001) %MON exf_climsss_mean             =   3.4848083468007E+01
(PID.TID 0000.0001) %MON exf_climsss_sd               =   9.6422887106269E-01
(PID.TID 0000.0001) %MON exf_climsss_del2             =   7.1616947122608E-03
(PID.TID 0000.0001) // =======================================================
(PID.TID 0000.0001) // End MONITOR EXF statistics
(PID.TID 0000.0001) // =======================================================
 cg2d: Sum(rhs),rhsMax =  -9.04165631254727E-13  9.04745241652041E+00
(PID.TID 0000.0001)      cg2d_init_res =   9.50984530024716E-01
(PID.TID 0000.0001)      cg2d_iters(min,last) =      -1      25
(PID.TID 0000.0001)      cg2d_last_res =   5.98889739700755E-14
(PID.TID 0000.0001) // =======================================================
(PID.TID 0000.0001) // Begin MONITOR dynamic field statistics
(PID.TID 0000.0001) // =======================================================
(PID.TID 0000.0001) %MON time_tsnumber                =                    14
(PID.TID 0000.0001) %MON time_secondsf                =   6.0480000000000E+05
(PID.TID 0000.0001) %MON dynstat_eta_max              =   1.0934347839396E+00
(PID.TID 0000.0001) %MON dynstat_eta_min              =  -1.1028004676644E+00
(PID.TID 0000.0001) %MON dynstat_eta_mean             =   4.7591165810133E-16
(PID.TID 0000.0001) %MON dynstat_eta_sd               =   3.3988080141633E-01
(PID.TID 0000.0001) %MON dynstat_eta_del2             =   2.1680595709376E-03
(PID.TID 0000.0001) %MON dynstat_uvel_max             =   1.3294478219083E-01
(PID.TID 0000.0001) %MON dynstat_uvel_min             =  -1.2479362089700E-01
(PID.TID 0000.0001) %MON dynstat_uvel_mean            =  -9.8516320670030E-03
(PID.TID 0000.0001) %MON dynstat_uvel_sd              =   1.5122471499908E-02
(PID.TID 0000.0001) %MON dynstat_uvel_del2            =   1.0549498484377E-04
(PID.TID 0000.0001) %MON dynstat_vvel_max             =   1.2006492543925E-01
(PID.TID 0000.0001) %MON dynstat_vvel_min             =  -9.8994340149006E-02
(PID.TID 0000.0001) %MON dynstat_vvel_mean            =   3.9575904272655E-03
(PID.TID 0000.0001) %MON dynstat_vvel_sd              =   1.4056273724136E-02
(PID.TID 0000.0001) %MON dynstat_vvel_del2            =   1.1606498003945E-04
(PID.TID 0000.0001) %MON dynstat_wvel_max             =   2.5190446351493E-04
(PID.TID 0000.0001) %MON dynstat_wvel_min             =  -3.4520915150413E-04
(PID.TID 0000.0001) %MON dynstat_wvel_mean            =  -1.1743704516235E-22
(PID.TID 0000.0001) %MON dynstat_wvel_sd              =   3.3065870716841E-05
(PID.TID 0000.0001) %MON dynstat_wvel_del2            =   3.5590939594880E-07
(PID.TID 0000.0001) %MON dynstat_theta_max            =   2.9558080367083E+01
(PID.TID 0000.0001) %MON dynstat_theta_min            =  -2.1454757346544E+00
(PID.TID 0000.0001) %MON dynstat_theta_mean           =   3.5997587328977E+00
(PID.TID 0000.0001) %MON dynstat_theta_sd             =   4.3709166069733E+00
(PID.TID 0000.0001) %MON dynstat_theta_del2           =   5.1027000293205E-03
(PID.TID 0000.0001) %MON dynstat_salt_max             =   3.7430096409300E+01
(PID.TID 0000.0001) %MON dynstat_salt_min             =   2.9787371800911E+01
(PID.TID 0000.0001) %MON dynstat_salt_mean            =   3.4716410128139E+01
(PID.TID 0000.0001) %MON dynstat_salt_sd              =   2.9605672762059E-01
(PID.TID 0000.0001) %MON dynstat_salt_del2            =   1.0045641597389E-03
(PID.TID 0000.0001) %MON forcing_qnet_max             =   4.3248424406975E+02
(PID.TID 0000.0001) %MON forcing_qnet_min             =  -1.8408838185956E+02
(PID.TID 0000.0001) %MON forcing_qnet_mean            =  -1.6621501100148E+01
(PID.TID 0000.0001) %MON forcing_qnet_sd              =   1.1153316416126E+02
(PID.TID 0000.0001) %MON forcing_qnet_del2            =   1.0002604540568E+00
(PID.TID 0000.0001) %MON forcing_qsw_max              =   0.0000000000000E+00
(PID.TID 0000.0001) %MON forcing_qsw_min              =   0.0000000000000E+00
(PID.TID 0000.0001) %MON forcing_qsw_mean             =   0.0000000000000E+00
(PID.TID 0000.0001) %MON forcing_qsw_sd               =   0.0000000000000E+00
(PID.TID 0000.0001) %MON forcing_qsw_del2             =   0.0000000000000E+00
(PID.TID 0000.0001) %MON forcing_empmr_max            =   0.0000000000000E+00
(PID.TID 0000.0001) %MON forcing_empmr_min            =   0.0000000000000E+00
(PID.TID 0000.0001) %MON forcing_empmr_mean           =   0.0000000000000E+00
(PID.TID 0000.0001) %MON forcing_empmr_sd             =   0.0000000000000E+00
(PID.TID 0000.0001) %MON forcing_empmr_del2           =   0.0000000000000E+00
(PID.TID 0000.0001) %MON forcing_fu_max               =   2.6875623144330E-01
(PID.TID 0000.0001) %MON forcing_fu_min               =  -1.6195080707210E-01
(PID.TID 0000.0001) %MON forcing_fu_mean              =   1.6118944677928E-02
(PID.TID 0000.0001) %MON forcing_fu_sd                =   8.9895454173589E-02
(PID.TID 0000.0001) %MON forcing_fu_del2              =   6.4649700117081E-04
(PID.TID 0000.0001) %MON forcing_fv_max               =   2.0893228461876E-01
(PID.TID 0000.0001) %MON forcing_fv_min               =  -1.6048010328649E-01
(PID.TID 0000.0001) %MON forcing_fv_mean              =  -5.7507900047376E-03
(PID.TID 0000.0001) %MON forcing_fv_sd                =   4.4594722139438E-02
(PID.TID 0000.0001) %MON forcing_fv_del2              =   3.4896273439463E-04
(PID.TID 0000.0001) %MON trAdv_CFL_u_max              =   2.2475922419687E-02
(PID.TID 0000.0001) %MON trAdv_CFL_v_max              =   1.1931949102917E-02
(PID.TID 0000.0001) %MON trAdv_CFL_w_max              =   8.2526480074685E-02
(PID.TID 0000.0001) %MON advcfl_uvel_max              =   2.4553768330726E-02
(PID.TID 0000.0001) %MON advcfl_vvel_max              =   1.1663344701475E-02
(PID.TID 0000.0001) %MON advcfl_wvel_max              =   1.7490932460502E-01
(PID.TID 0000.0001) %MON advcfl_W_hf_max              =   7.6864133750216E-02
(PID.TID 0000.0001) %MON pe_b_mean                    =   1.4782043208698E-04
(PID.TID 0000.0001) %MON ke_max                       =   9.3429787572617E-03
(PID.TID 0000.0001) %MON ke_mean                      =   2.4372372893131E-04
(PID.TID 0000.0001) %MON ke_vol                       =   1.3226782436723E+18
(PID.TID 0000.0001) %MON vort_r_min                   =  -3.2805187175636E-07
(PID.TID 0000.0001) %MON vort_r_max                   =   5.7080321016326E-07
(PID.TID 0000.0001) %MON vort_a_mean                  =  -2.5205769769102E-05
(PID.TID 0000.0001) %MON vort_a_sd                    =   7.3401386403669E-05
(PID.TID 0000.0001) %MON vort_p_mean                  =  -3.1758670030795E-05
(PID.TID 0000.0001) %MON vort_p_sd                    =   1.3126029625337E-04
(PID.TID 0000.0001) %MON surfExpan_theta_mean         =   1.1064707650637E-04
(PID.TID 0000.0001) %MON surfExpan_salt_mean          =   7.0366221661062E-06
(PID.TID 0000.0001) // =======================================================
(PID.TID 0000.0001) // End MONITOR dynamic field statistics
(PID.TID 0000.0001) // =======================================================
(PID.TID 0000.0001) // =======================================================
(PID.TID 0000.0001) // Begin MONITOR EXF statistics
(PID.TID 0000.0001) // =======================================================
(PID.TID 0000.0001) %MON exf_tsnumber                 =                    14
(PID.TID 0000.0001) %MON exf_time_sec                 =   6.0480000000000E+05
(PID.TID 0000.0001) %MON exf_ustress_max              =   2.7248807188364E-01
(PID.TID 0000.0001) %MON exf_ustress_min              =  -1.6250946225538E-01
(PID.TID 0000.0001) %MON exf_ustress_mean             =   1.5065628217614E-02
(PID.TID 0000.0001) %MON exf_ustress_sd               =   8.8698173118778E-02
(PID.TID 0000.0001) %MON exf_ustress_del2             =   6.8001305746093E-04
(PID.TID 0000.0001) %MON exf_vstress_max              =   2.1293155719045E-01
(PID.TID 0000.0001) %MON exf_vstress_min              =  -1.6377893854834E-01
(PID.TID 0000.0001) %MON exf_vstress_mean             =  -6.0299918754136E-03
(PID.TID 0000.0001) %MON exf_vstress_sd               =   4.5717075854771E-02
(PID.TID 0000.0001) %MON exf_vstress_del2             =   4.2518200531551E-04
(PID.TID 0000.0001) %MON exf_hflux_max                =   4.3299143145161E+02
(PID.TID 0000.0001) %MON exf_hflux_min                =  -1.8386233545119E+02
(PID.TID 0000.0001) %MON exf_hflux_mean               =  -1.6615446927976E+01
(PID.TID 0000.0001) %MON exf_hflux_sd                 =   1.1143561430599E+02
(PID.TID 0000.0001) %MON exf_hflux_del2               =   1.2218886604864E+00
(PID.TID 0000.0001) %MON exf_climsst_max              =   2.9475168228149E+01
(PID.TID 0000.0001) %MON exf_climsst_min              =  -1.9000000000000E+00
(PID.TID 0000.0001) %MON exf_climsst_mean             =   1.8418864909364E+01
(PID.TID 0000.0001) %MON exf_climsst_sd               =   9.1905938754997E+00
(PID.TID 0000.0001) %MON exf_climsst_del2             =   2.4616039812039E-02
(PID.TID 0000.0001) %MON exf_climsss_max              =   3.7462283472861E+01
(PID.TID 0000.0001) %MON exf_climsss_min              =   2.9702679757149E+01
(PID.TID 0000.0001) %MON exf_climsss_mean             =   3.4848185790629E+01
(PID.TID 0000.0001) %MON exf_climsss_sd               =   9.6400690235322E-01
(PID.TID 0000.0001) %MON exf_climsss_del2             =   7.1905937196401E-03
(PID.TID 0000.0001) // =======================================================
(PID.TID 0000.0001) // End MONITOR EXF statistics
(PID.TID 0000.0001) // =======================================================
 cg2d: Sum(rhs),rhsMax =  -8.95283847057726E-13  9.52420390978317E+00
(PID.TID 0000.0001)      cg2d_init_res =   8.76859335204518E-01
(PID.TID 0000.0001)      cg2d_iters(min,last) =      -1      25
(PID.TID 0000.0001)      cg2d_last_res =   5.15517532394678E-14
(PID.TID 0000.0001) // =======================================================
(PID.TID 0000.0001) // Begin MONITOR dynamic field statistics
(PID.TID 0000.0001) // =======================================================
(PID.TID 0000.0001) %MON time_tsnumber                =                    15
(PID.TID 0000.0001) %MON time_secondsf                =   6.4800000000000E+05
(PID.TID 0000.0001) %MON dynstat_eta_max              =   1.1492896451477E+00
(PID.TID 0000.0001) %MON dynstat_eta_min              =  -1.1385640468848E+00
(PID.TID 0000.0001) %MON dynstat_eta_mean             =   5.5560761607073E-16
(PID.TID 0000.0001) %MON dynstat_eta_sd               =   3.5039612406930E-01
(PID.TID 0000.0001) %MON dynstat_eta_del2             =   2.1230904305601E-03
(PID.TID 0000.0001) %MON dynstat_uvel_max             =   1.4190399893107E-01
(PID.TID 0000.0001) %MON dynstat_uvel_min             =  -1.2601816285305E-01
(PID.TID 0000.0001) %MON dynstat_uvel_mean            =  -1.0050627554365E-02
(PID.TID 0000.0001) %MON dynstat_uvel_sd              =   1.5797498911921E-02
(PID.TID 0000.0001) %MON dynstat_uvel_del2            =   1.0751291365786E-04
(PID.TID 0000.0001) %MON dynstat_vvel_max             =   1.3260881868536E-01
(PID.TID 0000.0001) %MON dynstat_vvel_min             =  -1.0126565397698E-01
(PID.TID 0000.0001) %MON dynstat_vvel_mean            =   3.6186009717615E-03
(PID.TID 0000.0001) %MON dynstat_vvel_sd              =   1.3755999124324E-02
(PID.TID 0000.0001) %MON dynstat_vvel_del2            =   1.1512238168499E-04
(PID.TID 0000.0001) %MON dynstat_wvel_max             =   2.4648989696997E-04
(PID.TID 0000.0001) %MON dynstat_wvel_min             =  -3.4095347798118E-04
(PID.TID 0000.0001) %MON dynstat_wvel_mean            =  -4.6974818064942E-23
(PID.TID 0000.0001) %MON dynstat_wvel_sd              =   3.2017251640396E-05
(PID.TID 0000.0001) %MON dynstat_wvel_del2            =   3.4113834238133E-07
(PID.TID 0000.0001) %MON dynstat_theta_max            =   2.9547989109845E+01
(PID.TID 0000.0001) %MON dynstat_theta_min            =  -2.1415409210799E+00
(PID.TID 0000.0001) %MON dynstat_theta_mean           =   3.5986379959901E+00
(PID.TID 0000.0001) %MON dynstat_theta_sd             =   4.3674386935647E+00
(PID.TID 0000.0001) %MON dynstat_theta_del2           =   5.0751759025055E-03
(PID.TID 0000.0001) %MON dynstat_salt_max             =   3.7428422845825E+01
(PID.TID 0000.0001) %MON dynstat_salt_min             =   2.9787903820131E+01
(PID.TID 0000.0001) %MON dynstat_salt_mean            =   3.4716339952828E+01
(PID.TID 0000.0001) %MON dynstat_salt_sd              =   2.9602391877573E-01
(PID.TID 0000.0001) %MON dynstat_salt_del2            =   1.0039741301451E-03
(PID.TID 0000.0001) %MON forcing_qnet_max             =   4.3299143145161E+02
(PID.TID 0000.0001) %MON forcing_qnet_min             =  -1.8386233545119E+02
(PID.TID 0000.0001) %MON forcing_qnet_mean            =  -1.6615446927976E+01
(PID.TID 0000.0001) %MON forcing_qnet_sd              =   1.1143561430599E+02
(PID.TID 0000.0001) %MON forcing_qnet_del2            =   1.0012745124846E+00
(PID.TID 0000.0001) %MON forcing_qsw_max              =   0.0000000000000E+00
(PID.TID 0000.0001) %MON forcing_qsw_min              =   0.0000000000000E+00
(PID.TID 0000.0001) %MON forcing_qsw_mean             =   0.0000000000000E+00
(PID.TID 0000.0001) %MON forcing_qsw_sd               =   0.0000000000000E+00
(PID.TID 0000.0001) %MON forcing_qsw_del2             =   0.0000000000000E+00
(PID.TID 0000.0001) %MON forcing_empmr_max            =   0.0000000000000E+00
(PID.TID 0000.0001) %MON forcing_empmr_min            =   0.0000000000000E+00
(PID.TID 0000.0001) %MON forcing_empmr_mean           =   0.0000000000000E+00
(PID.TID 0000.0001) %MON forcing_empmr_sd             =   0.0000000000000E+00
(PID.TID 0000.0001) %MON forcing_empmr_del2           =   0.0000000000000E+00
(PID.TID 0000.0001) %MON forcing_fu_max               =   2.6883951443878E-01
(PID.TID 0000.0001) %MON forcing_fu_min               =  -1.6237054559432E-01
(PID.TID 0000.0001) %MON forcing_fu_mean              =   1.6114981881696E-02
(PID.TID 0000.0001) %MON forcing_fu_sd                =   8.9919065804849E-02
(PID.TID 0000.0001) %MON forcing_fu_del2              =   6.4840438813367E-04
(PID.TID 0000.0001) %MON forcing_fv_max               =   2.0987680955084E-01
(PID.TID 0000.0001) %MON forcing_fv_min               =  -1.6103830859403E-01
(PID.TID 0000.0001) %MON forcing_fv_mean              =  -5.7163375007736E-03
(PID.TID 0000.0001) %MON forcing_fv_sd                =   4.4685786012176E-02
(PID.TID 0000.0001) %MON forcing_fv_del2              =   3.4999651046455E-04
(PID.TID 0000.0001) %MON trAdv_CFL_u_max              =   2.4558755376686E-02
(PID.TID 0000.0001) %MON trAdv_CFL_v_max              =   1.1253570081552E-02
(PID.TID 0000.0001) %MON trAdv_CFL_w_max              =   7.6864133750216E-02
(PID.TID 0000.0001) %MON advcfl_uvel_max              =   2.5422243661237E-02
(PID.TID 0000.0001) %MON advcfl_vvel_max              =   1.2881883340405E-02
(PID.TID 0000.0001) %MON advcfl_wvel_max              =   1.4843172836436E-01
(PID.TID 0000.0001) %MON advcfl_W_hf_max              =   6.7070093022705E-02
(PID.TID 0000.0001) %MON pe_b_mean                    =   1.5710853800736E-04
(PID.TID 0000.0001) %MON ke_max                       =   1.0180712019176E-02
(PID.TID 0000.0001) %MON ke_mean                      =   2.5010314001167E-04
(PID.TID 0000.0001) %MON ke_vol                       =   1.3226782436723E+18
(PID.TID 0000.0001) %MON vort_r_min                   =  -3.5018286120688E-07
(PID.TID 0000.0001) %MON vort_r_max                   =   5.5352286948897E-07
(PID.TID 0000.0001) %MON vort_a_mean                  =  -2.5205769749788E-05
(PID.TID 0000.0001) %MON vort_a_sd                    =   7.3401339691635E-05
(PID.TID 0000.0001) %MON vort_p_mean                  =  -3.1758670006460E-05
(PID.TID 0000.0001) %MON vort_p_sd                    =   1.3126009479344E-04
(PID.TID 0000.0001) %MON surfExpan_theta_mean         =   9.7183670276652E-05
(PID.TID 0000.0001) %MON surfExpan_salt_mean          =   5.6902420187060E-06
(PID.TID 0000.0001) // =======================================================
(PID.TID 0000.0001) // End MONITOR dynamic field statistics
(PID.TID 0000.0001) // =======================================================
(PID.TID 0000.0001) // =======================================================
(PID.TID 0000.0001) // Begin MONITOR EXF statistics
(PID.TID 0000.0001) // =======================================================
(PID.TID 0000.0001) %MON exf_tsnumber                 =                    15
(PID.TID 0000.0001) %MON exf_time_sec                 =   6.4800000000000E+05
(PID.TID 0000.0001) %MON exf_ustress_max              =   2.7230525833945E-01
(PID.TID 0000.0001) %MON exf_ustress_min              =  -1.6280282643293E-01
(PID.TID 0000.0001) %MON exf_ustress_mean             =   1.5063211794371E-02
(PID.TID 0000.0001) %MON exf_ustress_sd               =   8.8724914933386E-02
(PID.TID 0000.0001) %MON exf_ustress_del2             =   6.8196689115662E-04
(PID.TID 0000.0001) %MON exf_vstress_max              =   2.1361274966189E-01
(PID.TID 0000.0001) %MON exf_vstress_min              =  -1.6468495121526E-01
(PID.TID 0000.0001) %MON exf_vstress_mean             =  -5.9971571262578E-03
(PID.TID 0000.0001) %MON exf_vstress_sd               =   4.5810425783452E-02
(PID.TID 0000.0001) %MON exf_vstress_del2             =   4.2614974317975E-04
(PID.TID 0000.0001) %MON exf_hflux_max                =   4.3349861883348E+02
(PID.TID 0000.0001) %MON exf_hflux_min                =  -1.8363628904281E+02
(PID.TID 0000.0001) %MON exf_hflux_mean               =  -1.6609392755803E+01
(PID.TID 0000.0001) %MON exf_hflux_sd                 =   1.1133868089886E+02
(PID.TID 0000.0001) %MON exf_hflux_del2               =   1.2225989083158E+00
(PID.TID 0000.0001) %MON exf_climsst_max              =   2.9473320007324E+01
(PID.TID 0000.0001) %MON exf_climsst_min              =  -1.9000000000000E+00
(PID.TID 0000.0001) %MON exf_climsst_mean             =   1.8422727746994E+01
(PID.TID 0000.0001) %MON exf_climsst_sd               =   9.1894922105341E+00
(PID.TID 0000.0001) %MON exf_climsst_del2             =   2.4705441763507E-02
(PID.TID 0000.0001) %MON exf_climsss_max              =   3.7463068439114E+01
(PID.TID 0000.0001) %MON exf_climsss_min              =   2.9705626210859E+01
(PID.TID 0000.0001) %MON exf_climsss_mean             =   3.4848288113251E+01
(PID.TID 0000.0001) %MON exf_climsss_sd               =   9.6380590978516E-01
(PID.TID 0000.0001) %MON exf_climsss_del2             =   7.2221068229136E-03
(PID.TID 0000.0001) // =======================================================
(PID.TID 0000.0001) // End MONITOR EXF statistics
(PID.TID 0000.0001) // =======================================================
 cg2d: Sum(rhs),rhsMax =  -8.51763104492420E-13  9.79844530601814E+00
(PID.TID 0000.0001)      cg2d_init_res =   8.30580839889103E-01
(PID.TID 0000.0001)      cg2d_iters(min,last) =      -1      25
(PID.TID 0000.0001)      cg2d_last_res =   4.44759809095918E-14
(PID.TID 0000.0001) // =======================================================
(PID.TID 0000.0001) // Begin MONITOR dynamic field statistics
(PID.TID 0000.0001) // =======================================================
(PID.TID 0000.0001) %MON time_tsnumber                =                    16
(PID.TID 0000.0001) %MON time_secondsf                =   6.9120000000000E+05
(PID.TID 0000.0001) %MON dynstat_eta_max              =   1.1814522839859E+00
(PID.TID 0000.0001) %MON dynstat_eta_min              =  -1.1369221096882E+00
(PID.TID 0000.0001) %MON dynstat_eta_mean             =   4.9266592199263E-16
(PID.TID 0000.0001) %MON dynstat_eta_sd               =   3.5870401131338E-01
(PID.TID 0000.0001) %MON dynstat_eta_del2             =   2.0850998291148E-03
(PID.TID 0000.0001) %MON dynstat_uvel_max             =   1.5001751069352E-01
(PID.TID 0000.0001) %MON dynstat_uvel_min             =  -1.2682132990408E-01
(PID.TID 0000.0001) %MON dynstat_uvel_mean            =  -1.0111881667430E-02
(PID.TID 0000.0001) %MON dynstat_uvel_sd              =   1.6362770089698E-02
(PID.TID 0000.0001) %MON dynstat_uvel_del2            =   1.0906768563122E-04
(PID.TID 0000.0001) %MON dynstat_vvel_max             =   1.4210725311013E-01
(PID.TID 0000.0001) %MON dynstat_vvel_min             =  -1.0243137848753E-01
(PID.TID 0000.0001) %MON dynstat_vvel_mean            =   3.2812363736775E-03
(PID.TID 0000.0001) %MON dynstat_vvel_sd              =   1.3493121216573E-02
(PID.TID 0000.0001) %MON dynstat_vvel_del2            =   1.1374635740449E-04
(PID.TID 0000.0001) %MON dynstat_wvel_max             =   2.5164132848837E-04
(PID.TID 0000.0001) %MON dynstat_wvel_min             =  -3.3469578295045E-04
(PID.TID 0000.0001) %MON dynstat_wvel_mean            =  -1.6793497458217E-21
(PID.TID 0000.0001) %MON dynstat_wvel_sd              =   3.0900154034557E-05
(PID.TID 0000.0001) %MON dynstat_wvel_del2            =   3.2535325154790E-07
(PID.TID 0000.0001) %MON dynstat_theta_max            =   2.9525452972367E+01
(PID.TID 0000.0001) %MON dynstat_theta_min            =  -2.1312243969289E+00
(PID.TID 0000.0001) %MON dynstat_theta_mean           =   3.5976725028998E+00
(PID.TID 0000.0001) %MON dynstat_theta_sd             =   4.3642139253288E+00
(PID.TID 0000.0001) %MON dynstat_theta_del2           =   5.0496583879343E-03
(PID.TID 0000.0001) %MON dynstat_salt_max             =   3.7426808925933E+01
(PID.TID 0000.0001) %MON dynstat_salt_min             =   2.9788161132819E+01
(PID.TID 0000.0001) %MON dynstat_salt_mean            =   3.4716284936076E+01
(PID.TID 0000.0001) %MON dynstat_salt_sd              =   2.9599027247175E-01
(PID.TID 0000.0001) %MON dynstat_salt_del2            =   1.0037410220946E-03
(PID.TID 0000.0001) %MON forcing_qnet_max             =   4.3349861883348E+02
(PID.TID 0000.0001) %MON forcing_qnet_min             =  -1.8363628904281E+02
(PID.TID 0000.0001) %MON forcing_qnet_mean            =  -1.6609392755803E+01
(PID.TID 0000.0001) %MON forcing_qnet_sd              =   1.1133868089886E+02
(PID.TID 0000.0001) %MON forcing_qnet_del2            =   1.0023289164570E+00
(PID.TID 0000.0001) %MON forcing_qsw_max              =   0.0000000000000E+00
(PID.TID 0000.0001) %MON forcing_qsw_min              =   0.0000000000000E+00
(PID.TID 0000.0001) %MON forcing_qsw_mean             =   0.0000000000000E+00
(PID.TID 0000.0001) %MON forcing_qsw_sd               =   0.0000000000000E+00
(PID.TID 0000.0001) %MON forcing_qsw_del2             =   0.0000000000000E+00
(PID.TID 0000.0001) %MON forcing_empmr_max            =   0.0000000000000E+00
(PID.TID 0000.0001) %MON forcing_empmr_min            =   0.0000000000000E+00
(PID.TID 0000.0001) %MON forcing_empmr_mean           =   0.0000000000000E+00
(PID.TID 0000.0001) %MON forcing_empmr_sd             =   0.0000000000000E+00
(PID.TID 0000.0001) %MON forcing_empmr_del2           =   0.0000000000000E+00
(PID.TID 0000.0001) %MON forcing_fu_max               =   2.6892279743427E-01
(PID.TID 0000.0001) %MON forcing_fu_min               =  -1.6279028411654E-01
(PID.TID 0000.0001) %MON forcing_fu_mean              =   1.6111019085463E-02
(PID.TID 0000.0001) %MON forcing_fu_sd                =   8.9945135138249E-02
(PID.TID 0000.0001) %MON forcing_fu_del2              =   6.5041157001633E-04
(PID.TID 0000.0001) %MON forcing_fv_max               =   2.1082133448292E-01
(PID.TID 0000.0001) %MON forcing_fv_min               =  -1.6159651390157E-01
(PID.TID 0000.0001) %MON forcing_fv_mean              =  -5.6818849968097E-03
(PID.TID 0000.0001) %MON forcing_fv_sd                =   4.4779971617430E-02
(PID.TID 0000.0001) %MON forcing_fv_del2              =   3.5110278813082E-04
(PID.TID 0000.0001) %MON trAdv_CFL_u_max              =   2.5427407100748E-02
(PID.TID 0000.0001) %MON trAdv_CFL_v_max              =   1.2256806736583E-02
(PID.TID 0000.0001) %MON trAdv_CFL_w_max              =   7.4215864182180E-02
(PID.TID 0000.0001) %MON advcfl_uvel_max              =   2.4886765681368E-02
(PID.TID 0000.0001) %MON advcfl_vvel_max              =   1.3804580076484E-02
(PID.TID 0000.0001) %MON advcfl_wvel_max              =   1.6028210977235E-01
(PID.TID 0000.0001) %MON advcfl_W_hf_max              =   6.5698370408681E-02
(PID.TID 0000.0001) %MON pe_b_mean                    =   1.6464694120020E-04
(PID.TID 0000.0001) %MON ke_max                       =   1.0949776111102E-02
(PID.TID 0000.0001) %MON ke_mean                      =   2.5466244997222E-04
(PID.TID 0000.0001) %MON ke_vol                       =   1.3226782436723E+18
(PID.TID 0000.0001) %MON vort_r_min                   =  -3.6909907993300E-07
(PID.TID 0000.0001) %MON vort_r_max                   =   5.2297337505865E-07
(PID.TID 0000.0001) %MON vort_a_mean                  =  -2.5205769712401E-05
(PID.TID 0000.0001) %MON vort_a_sd                    =   7.3401318332322E-05
(PID.TID 0000.0001) %MON vort_p_mean                  =  -3.1758669959353E-05
(PID.TID 0000.0001) %MON vort_p_sd                    =   1.3125999931082E-04
(PID.TID 0000.0001) %MON surfExpan_theta_mean         =   8.3610598377592E-05
(PID.TID 0000.0001) %MON surfExpan_salt_mean          =   4.3787800012336E-06
(PID.TID 0000.0001) // =======================================================
(PID.TID 0000.0001) // End MONITOR dynamic field statistics
(PID.TID 0000.0001) // =======================================================
(PID.TID 0000.0001) // =======================================================
(PID.TID 0000.0001) // Begin MONITOR EXF statistics
(PID.TID 0000.0001) // =======================================================
(PID.TID 0000.0001) %MON exf_tsnumber                 =                    16
(PID.TID 0000.0001) %MON exf_time_sec                 =   6.9120000000000E+05
(PID.TID 0000.0001) %MON exf_ustress_max              =   2.7212244479526E-01
(PID.TID 0000.0001) %MON exf_ustress_min              =  -1.6332385466704E-01
(PID.TID 0000.0001) %MON exf_ustress_mean             =   1.5060795371127E-02
(PID.TID 0000.0001) %MON exf_ustress_sd               =   8.8754137143979E-02
(PID.TID 0000.0001) %MON exf_ustress_del2             =   6.8402505527422E-04
(PID.TID 0000.0001) %MON exf_vstress_max              =   2.1429394213333E-01
(PID.TID 0000.0001) %MON exf_vstress_min              =  -1.6559096388218E-01
(PID.TID 0000.0001) %MON exf_vstress_mean             =  -5.9643223771020E-03
(PID.TID 0000.0001) %MON exf_vstress_sd               =   4.5907032113577E-02
(PID.TID 0000.0001) %MON exf_vstress_del2             =   4.2720070532486E-04
(PID.TID 0000.0001) %MON exf_hflux_max                =   4.3400580621535E+02
(PID.TID 0000.0001) %MON exf_hflux_min                =  -1.8341024263443E+02
(PID.TID 0000.0001) %MON exf_hflux_mean               =  -1.6603338583631E+01
(PID.TID 0000.0001) %MON exf_hflux_sd                 =   1.1124236555132E+02
(PID.TID 0000.0001) %MON exf_hflux_del2               =   1.2233436547359E+00
(PID.TID 0000.0001) %MON exf_climsst_max              =   2.9471471786499E+01
(PID.TID 0000.0001) %MON exf_climsst_min              =  -1.9000000000000E+00
(PID.TID 0000.0001) %MON exf_climsst_mean             =   1.8426590870872E+01
(PID.TID 0000.0001) %MON exf_climsst_sd               =   9.1884504554686E+00
(PID.TID 0000.0001) %MON exf_climsst_del2             =   2.4803452547448E-02
(PID.TID 0000.0001) %MON exf_climsss_max              =   3.7463853405368E+01
(PID.TID 0000.0001) %MON exf_climsss_min              =   2.9708572664568E+01
(PID.TID 0000.0001) %MON exf_climsss_mean             =   3.4848390435873E+01
(PID.TID 0000.0001) %MON exf_climsss_sd               =   9.6362590648410E-01
(PID.TID 0000.0001) %MON exf_climsss_del2             =   7.2561999637252E-03
(PID.TID 0000.0001) // =======================================================
(PID.TID 0000.0001) // End MONITOR EXF statistics
(PID.TID 0000.0001) // =======================================================
 cg2d: Sum(rhs),rhsMax =  -7.50510764646606E-13  9.86911550766398E+00
(PID.TID 0000.0001)      cg2d_init_res =   8.05963332532348E-01
(PID.TID 0000.0001)      cg2d_iters(min,last) =      -1      25
(PID.TID 0000.0001)      cg2d_last_res =   3.50722427125278E-14
(PID.TID 0000.0001) // =======================================================
(PID.TID 0000.0001) // Begin MONITOR dynamic field statistics
(PID.TID 0000.0001) // =======================================================
(PID.TID 0000.0001) %MON time_tsnumber                =                    17
(PID.TID 0000.0001) %MON time_secondsf                =   7.3440000000000E+05
(PID.TID 0000.0001) %MON dynstat_eta_max              =   1.1899184858174E+00
(PID.TID 0000.0001) %MON dynstat_eta_min              =  -1.1012229467347E+00
(PID.TID 0000.0001) %MON dynstat_eta_mean             =   3.8670652332877E-16
(PID.TID 0000.0001) %MON dynstat_eta_sd               =   3.6496683595637E-01
(PID.TID 0000.0001) %MON dynstat_eta_del2             =   2.0530244918446E-03
(PID.TID 0000.0001) %MON dynstat_uvel_max             =   1.5714371346518E-01
(PID.TID 0000.0001) %MON dynstat_uvel_min             =  -1.2521286159643E-01
(PID.TID 0000.0001) %MON dynstat_uvel_mean            =  -1.0042573559923E-02
(PID.TID 0000.0001) %MON dynstat_uvel_sd              =   1.6823818161697E-02
(PID.TID 0000.0001) %MON dynstat_uvel_del2            =   1.1023700525718E-04
(PID.TID 0000.0001) %MON dynstat_vvel_max             =   1.4781305293959E-01
(PID.TID 0000.0001) %MON dynstat_vvel_min             =  -1.0246836731256E-01
(PID.TID 0000.0001) %MON dynstat_vvel_mean            =   2.9646214253891E-03
(PID.TID 0000.0001) %MON dynstat_vvel_sd              =   1.3284477984456E-02
(PID.TID 0000.0001) %MON dynstat_vvel_del2            =   1.1218885362434E-04
(PID.TID 0000.0001) %MON dynstat_wvel_max             =   2.5716962575905E-04
(PID.TID 0000.0001) %MON dynstat_wvel_min             =  -3.2541105069098E-04
(PID.TID 0000.0001) %MON dynstat_wvel_mean            =  -2.9212464984136E-22
(PID.TID 0000.0001) %MON dynstat_wvel_sd              =   2.9774241993689E-05
(PID.TID 0000.0001) %MON dynstat_wvel_del2            =   3.0966259577461E-07
(PID.TID 0000.0001) %MON dynstat_theta_max            =   2.9490349632647E+01
(PID.TID 0000.0001) %MON dynstat_theta_min            =  -2.1153892563503E+00
(PID.TID 0000.0001) %MON dynstat_theta_mean           =   3.5968609960849E+00
(PID.TID 0000.0001) %MON dynstat_theta_sd             =   4.3612723582376E+00
(PID.TID 0000.0001) %MON dynstat_theta_del2           =   5.0259289479403E-03
(PID.TID 0000.0001) %MON dynstat_salt_max             =   3.7425262240015E+01
(PID.TID 0000.0001) %MON dynstat_salt_min             =   2.9788220777904E+01
(PID.TID 0000.0001) %MON dynstat_salt_mean            =   3.4716244443300E+01
(PID.TID 0000.0001) %MON dynstat_salt_sd              =   2.9595750073580E-01
(PID.TID 0000.0001) %MON dynstat_salt_del2            =   1.0034870365968E-03
(PID.TID 0000.0001) %MON forcing_qnet_max             =   4.3400580621535E+02
(PID.TID 0000.0001) %MON forcing_qnet_min             =  -1.8341024263443E+02
(PID.TID 0000.0001) %MON forcing_qnet_mean            =  -1.6603338583631E+01
(PID.TID 0000.0001) %MON forcing_qnet_sd              =   1.1124236555132E+02
(PID.TID 0000.0001) %MON forcing_qnet_del2            =   1.0034235387878E+00
(PID.TID 0000.0001) %MON forcing_qsw_max              =   0.0000000000000E+00
(PID.TID 0000.0001) %MON forcing_qsw_min              =   0.0000000000000E+00
(PID.TID 0000.0001) %MON forcing_qsw_mean             =   0.0000000000000E+00
(PID.TID 0000.0001) %MON forcing_qsw_sd               =   0.0000000000000E+00
(PID.TID 0000.0001) %MON forcing_qsw_del2             =   0.0000000000000E+00
(PID.TID 0000.0001) %MON forcing_empmr_max            =   0.0000000000000E+00
(PID.TID 0000.0001) %MON forcing_empmr_min            =   0.0000000000000E+00
(PID.TID 0000.0001) %MON forcing_empmr_mean           =   0.0000000000000E+00
(PID.TID 0000.0001) %MON forcing_empmr_sd             =   0.0000000000000E+00
(PID.TID 0000.0001) %MON forcing_empmr_del2           =   0.0000000000000E+00
(PID.TID 0000.0001) %MON forcing_fu_max               =   2.6900608042976E-01
(PID.TID 0000.0001) %MON forcing_fu_min               =  -1.6321002263876E-01
(PID.TID 0000.0001) %MON forcing_fu_mean              =   1.6107056289231E-02
(PID.TID 0000.0001) %MON forcing_fu_sd                =   8.9973660037474E-02
(PID.TID 0000.0001) %MON forcing_fu_del2              =   6.5251762589461E-04
(PID.TID 0000.0001) %MON forcing_fv_max               =   2.1176585941500E-01
(PID.TID 0000.0001) %MON forcing_fv_min               =  -1.6215471920910E-01
(PID.TID 0000.0001) %MON forcing_fv_mean              =  -5.6474324928457E-03
(PID.TID 0000.0001) %MON forcing_fv_sd                =   4.4877259300108E-02
(PID.TID 0000.0001) %MON forcing_fv_del2              =   3.5228088435765E-04
(PID.TID 0000.0001) %MON trAdv_CFL_u_max              =   2.4891820361471E-02
(PID.TID 0000.0001) %MON trAdv_CFL_v_max              =   1.3141938486389E-02
(PID.TID 0000.0001) %MON trAdv_CFL_w_max              =   8.0141054886174E-02
(PID.TID 0000.0001) %MON advcfl_uvel_max              =   2.2881974915914E-02
(PID.TID 0000.0001) %MON advcfl_vvel_max              =   1.4358852774902E-02
(PID.TID 0000.0001) %MON advcfl_wvel_max              =   1.6783470107925E-01
(PID.TID 0000.0001) %MON advcfl_W_hf_max              =   6.9053655374737E-02
(PID.TID 0000.0001) %MON pe_b_mean                    =   1.7044646759823E-04
(PID.TID 0000.0001) %MON ke_max                       =   1.1643252346845E-02
(PID.TID 0000.0001) %MON ke_mean                      =   2.5758309762665E-04
(PID.TID 0000.0001) %MON ke_vol                       =   1.3226782436723E+18
(PID.TID 0000.0001) %MON vort_r_min                   =  -3.9809189462065E-07
(PID.TID 0000.0001) %MON vort_r_max                   =   4.8085698606346E-07
(PID.TID 0000.0001) %MON vort_a_mean                  =  -2.5205769663232E-05
(PID.TID 0000.0001) %MON vort_a_sd                    =   7.3401321386452E-05
(PID.TID 0000.0001) %MON vort_p_mean                  =  -3.1758669897402E-05
(PID.TID 0000.0001) %MON vort_p_sd                    =   1.3126000513204E-04
(PID.TID 0000.0001) %MON surfExpan_theta_mean         =   7.0243448922163E-05
(PID.TID 0000.0001) %MON surfExpan_salt_mean          =   3.1270498814996E-06
(PID.TID 0000.0001) // =======================================================
(PID.TID 0000.0001) // End MONITOR dynamic field statistics
(PID.TID 0000.0001) // =======================================================
(PID.TID 0000.0001) // =======================================================
(PID.TID 0000.0001) // Begin MONITOR EXF statistics
(PID.TID 0000.0001) // =======================================================
(PID.TID 0000.0001) %MON exf_tsnumber                 =                    17
(PID.TID 0000.0001) %MON exf_time_sec                 =   7.3440000000000E+05
(PID.TID 0000.0001) %MON exf_ustress_max              =   2.7193963125108E-01
(PID.TID 0000.0001) %MON exf_ustress_min              =  -1.6386996753394E-01
(PID.TID 0000.0001) %MON exf_ustress_mean             =   1.5058378947884E-02
(PID.TID 0000.0001) %MON exf_ustress_sd               =   8.8785837301427E-02
(PID.TID 0000.0001) %MON exf_ustress_del2             =   6.8618661102106E-04
(PID.TID 0000.0001) %MON exf_vstress_max              =   2.1497513460476E-01
(PID.TID 0000.0001) %MON exf_vstress_min              =  -1.6649697654911E-01
(PID.TID 0000.0001) %MON exf_vstress_mean             =  -5.9314876279461E-03
(PID.TID 0000.0001) %MON exf_vstress_sd               =   4.6006874331546E-02
(PID.TID 0000.0001) %MON exf_vstress_del2             =   4.2833427915331E-04
(PID.TID 0000.0001) %MON exf_hflux_max                =   4.3451299359722E+02
(PID.TID 0000.0001) %MON exf_hflux_min                =  -1.8318419622606E+02
(PID.TID 0000.0001) %MON exf_hflux_mean               =  -1.6597284411458E+01
(PID.TID 0000.0001) %MON exf_hflux_sd                 =   1.1114666987015E+02
(PID.TID 0000.0001) %MON exf_hflux_del2               =   1.2241228367806E+00
(PID.TID 0000.0001) %MON exf_climsst_max              =   2.9469623565674E+01
(PID.TID 0000.0001) %MON exf_climsst_min              =  -1.9000000000000E+00
(PID.TID 0000.0001) %MON exf_climsst_mean             =   1.8430458021528E+01
(PID.TID 0000.0001) %MON exf_climsst_sd               =   9.1874603458911E+00
(PID.TID 0000.0001) %MON exf_climsst_del2             =   2.4910285815413E-02
(PID.TID 0000.0001) %MON exf_climsss_max              =   3.7464638371621E+01
(PID.TID 0000.0001) %MON exf_climsss_min              =   2.9711519118278E+01
(PID.TID 0000.0001) %MON exf_climsss_mean             =   3.4848492758496E+01
(PID.TID 0000.0001) %MON exf_climsss_sd               =   9.6346690421423E-01
(PID.TID 0000.0001) %MON exf_climsss_del2             =   7.2928369580637E-03
(PID.TID 0000.0001) // =======================================================
(PID.TID 0000.0001) // End MONITOR EXF statistics
(PID.TID 0000.0001) // =======================================================
 cg2d: Sum(rhs),rhsMax =  -6.99884594723699E-13  9.74751656330691E+00
(PID.TID 0000.0001)      cg2d_init_res =   7.98641702086497E-01
(PID.TID 0000.0001)      cg2d_iters(min,last) =      -1      25
(PID.TID 0000.0001)      cg2d_last_res =   2.87951951588242E-14
(PID.TID 0000.0001) // =======================================================
(PID.TID 0000.0001) // Begin MONITOR dynamic field statistics
(PID.TID 0000.0001) // =======================================================
(PID.TID 0000.0001) %MON time_tsnumber                =                    18
(PID.TID 0000.0001) %MON time_secondsf                =   7.7760000000000E+05
(PID.TID 0000.0001) %MON dynstat_eta_max              =   1.1761117595363E+00
(PID.TID 0000.0001) %MON dynstat_eta_min              =  -1.1115913161330E+00
(PID.TID 0000.0001) %MON dynstat_eta_mean             =   4.4828976357785E-16
(PID.TID 0000.0001) %MON dynstat_eta_sd               =   3.6938961794926E-01
(PID.TID 0000.0001) %MON dynstat_eta_del2             =   2.0258888184662E-03
(PID.TID 0000.0001) %MON dynstat_uvel_max             =   1.6316090550658E-01
(PID.TID 0000.0001) %MON dynstat_uvel_min             =  -1.3116686114088E-01
(PID.TID 0000.0001) %MON dynstat_uvel_mean            =  -9.8538404936470E-03
(PID.TID 0000.0001) %MON dynstat_uvel_sd              =   1.7188259634294E-02
(PID.TID 0000.0001) %MON dynstat_uvel_del2            =   1.1110322567211E-04
(PID.TID 0000.0001) %MON dynstat_vvel_max             =   1.4915574147643E-01
(PID.TID 0000.0001) %MON dynstat_vvel_min             =  -1.1329939655191E-01
(PID.TID 0000.0001) %MON dynstat_vvel_mean            =   2.6848549519977E-03
(PID.TID 0000.0001) %MON dynstat_vvel_sd              =   1.3136167296099E-02
(PID.TID 0000.0001) %MON dynstat_vvel_del2            =   1.1068503006895E-04
(PID.TID 0000.0001) %MON dynstat_wvel_max             =   2.6061773607273E-04
(PID.TID 0000.0001) %MON dynstat_wvel_min             =  -3.1322934498735E-04
(PID.TID 0000.0001) %MON dynstat_wvel_mean            =   9.8647117936378E-22
(PID.TID 0000.0001) %MON dynstat_wvel_sd              =   2.8692887322254E-05
(PID.TID 0000.0001) %MON dynstat_wvel_del2            =   2.9511109208965E-07
(PID.TID 0000.0001) %MON dynstat_theta_max            =   2.9452075702075E+01
(PID.TID 0000.0001) %MON dynstat_theta_min            =  -2.0952529811636E+00
(PID.TID 0000.0001) %MON dynstat_theta_mean           =   3.5961990298500E+00
(PID.TID 0000.0001) %MON dynstat_theta_sd             =   4.3586393371845E+00
(PID.TID 0000.0001) %MON dynstat_theta_del2           =   5.0042191816545E-03
(PID.TID 0000.0001) %MON dynstat_salt_max             =   3.7423788083190E+01
(PID.TID 0000.0001) %MON dynstat_salt_min             =   2.9788166952309E+01
(PID.TID 0000.0001) %MON dynstat_salt_mean            =   3.4716217633553E+01
(PID.TID 0000.0001) %MON dynstat_salt_sd              =   2.9592653384395E-01
(PID.TID 0000.0001) %MON dynstat_salt_del2            =   1.0032938741214E-03
(PID.TID 0000.0001) %MON forcing_qnet_max             =   4.3451299359722E+02
(PID.TID 0000.0001) %MON forcing_qnet_min             =  -1.8318419622606E+02
(PID.TID 0000.0001) %MON forcing_qnet_mean            =  -1.6597284411458E+01
(PID.TID 0000.0001) %MON forcing_qnet_sd              =   1.1114666987015E+02
(PID.TID 0000.0001) %MON forcing_qnet_del2            =   1.0045582480047E+00
(PID.TID 0000.0001) %MON forcing_qsw_max              =   0.0000000000000E+00
(PID.TID 0000.0001) %MON forcing_qsw_min              =   0.0000000000000E+00
(PID.TID 0000.0001) %MON forcing_qsw_mean             =   0.0000000000000E+00
(PID.TID 0000.0001) %MON forcing_qsw_sd               =   0.0000000000000E+00
(PID.TID 0000.0001) %MON forcing_qsw_del2             =   0.0000000000000E+00
(PID.TID 0000.0001) %MON forcing_empmr_max            =   0.0000000000000E+00
(PID.TID 0000.0001) %MON forcing_empmr_min            =   0.0000000000000E+00
(PID.TID 0000.0001) %MON forcing_empmr_mean           =   0.0000000000000E+00
(PID.TID 0000.0001) %MON forcing_empmr_sd             =   0.0000000000000E+00
(PID.TID 0000.0001) %MON forcing_empmr_del2           =   0.0000000000000E+00
(PID.TID 0000.0001) %MON forcing_fu_max               =   2.6908936342525E-01
(PID.TID 0000.0001) %MON forcing_fu_min               =  -1.6362976116098E-01
(PID.TID 0000.0001) %MON forcing_fu_mean              =   1.6103093492999E-02
(PID.TID 0000.0001) %MON forcing_fu_sd                =   9.0004638167820E-02
(PID.TID 0000.0001) %MON forcing_fu_del2              =   6.5472160161944E-04
(PID.TID 0000.0001) %MON forcing_fv_max               =   2.1271038434709E-01
(PID.TID 0000.0001) %MON forcing_fv_min               =  -1.6271292451664E-01
(PID.TID 0000.0001) %MON forcing_fv_mean              =  -5.6129799888818E-03
(PID.TID 0000.0001) %MON forcing_fv_sd                =   4.4977628930615E-02
(PID.TID 0000.0001) %MON forcing_fv_del2              =   3.5353008116577E-04
(PID.TID 0000.0001) %MON trAdv_CFL_u_max              =   2.2886622408674E-02
(PID.TID 0000.0001) %MON trAdv_CFL_v_max              =   1.3661038426177E-02
(PID.TID 0000.0001) %MON trAdv_CFL_w_max              =   8.3917350539627E-02
(PID.TID 0000.0001) %MON advcfl_uvel_max              =   2.2816645204076E-02
(PID.TID 0000.0001) %MON advcfl_vvel_max              =   1.4489284199189E-02
(PID.TID 0000.0001) %MON advcfl_wvel_max              =   1.7028868562787E-01
(PID.TID 0000.0001) %MON advcfl_W_hf_max              =   6.9638568075488E-02
(PID.TID 0000.0001) %MON pe_b_mean                    =   1.7460254520827E-04
(PID.TID 0000.0001) %MON ke_max                       =   1.2259897686579E-02
(PID.TID 0000.0001) %MON ke_mean                      =   2.5903977550910E-04
(PID.TID 0000.0001) %MON ke_vol                       =   1.3226782436723E+18
(PID.TID 0000.0001) %MON vort_r_min                   =  -4.2791866108280E-07
(PID.TID 0000.0001) %MON vort_r_max                   =   4.2926029908148E-07
(PID.TID 0000.0001) %MON vort_a_mean                  =  -2.5205769609040E-05
(PID.TID 0000.0001) %MON vort_a_sd                    =   7.3401347182511E-05
(PID.TID 0000.0001) %MON vort_p_mean                  =  -3.1758669829120E-05
(PID.TID 0000.0001) %MON vort_p_sd                    =   1.3126010210991E-04
(PID.TID 0000.0001) %MON surfExpan_theta_mean         =   5.7377119012074E-05
(PID.TID 0000.0001) %MON surfExpan_salt_mean          =   1.9582204904372E-06
(PID.TID 0000.0001) // =======================================================
(PID.TID 0000.0001) // End MONITOR dynamic field statistics
(PID.TID 0000.0001) // =======================================================
(PID.TID 0000.0001) // =======================================================
(PID.TID 0000.0001) // Begin MONITOR EXF statistics
(PID.TID 0000.0001) // =======================================================
(PID.TID 0000.0001) %MON exf_tsnumber                 =                    18
(PID.TID 0000.0001) %MON exf_time_sec                 =   7.7760000000000E+05
(PID.TID 0000.0001) %MON exf_ustress_max              =   2.7175681770689E-01
(PID.TID 0000.0001) %MON exf_ustress_min              =  -1.6441608040083E-01
(PID.TID 0000.0001) %MON exf_ustress_mean             =   1.5055962524640E-02
(PID.TID 0000.0001) %MON exf_ustress_sd               =   8.8820012752568E-02
(PID.TID 0000.0001) %MON exf_ustress_del2             =   6.8845058452939E-04
(PID.TID 0000.0001) %MON exf_vstress_max              =   2.1565632707620E-01
(PID.TID 0000.0001) %MON exf_vstress_min              =  -1.6740298921603E-01
(PID.TID 0000.0001) %MON exf_vstress_mean             =  -5.8986528787903E-03
(PID.TID 0000.0001) %MON exf_vstress_sd               =   4.6109931417276E-02
(PID.TID 0000.0001) %MON exf_vstress_del2             =   4.2954981063361E-04
(PID.TID 0000.0001) %MON exf_hflux_max                =   4.3502018097908E+02
(PID.TID 0000.0001) %MON exf_hflux_min                =  -1.8295814981768E+02
(PID.TID 0000.0001) %MON exf_hflux_mean               =  -1.6591230239286E+01
(PID.TID 0000.0001) %MON exf_hflux_sd                 =   1.1105159545728E+02
(PID.TID 0000.0001) %MON exf_hflux_del2               =   1.2249363887365E+00
(PID.TID 0000.0001) %MON exf_climsst_max              =   2.9467775344849E+01
(PID.TID 0000.0001) %MON exf_climsst_min              =  -1.9000000000000E+00
(PID.TID 0000.0001) %MON exf_climsst_mean             =   1.8434328397312E+01
(PID.TID 0000.0001) %MON exf_climsst_sd               =   9.1865236651676E+00
(PID.TID 0000.0001) %MON exf_climsst_del2             =   2.5025225952218E-02
(PID.TID 0000.0001) %MON exf_climsss_max              =   3.7465423337875E+01
(PID.TID 0000.0001) %MON exf_climsss_min              =   2.9714465571988E+01
(PID.TID 0000.0001) %MON exf_climsss_mean             =   3.4848595081118E+01
(PID.TID 0000.0001) %MON exf_climsss_sd               =   9.6332891337453E-01
(PID.TID 0000.0001) %MON exf_climsss_del2             =   7.3319796720651E-03
(PID.TID 0000.0001) // =======================================================
(PID.TID 0000.0001) // End MONITOR EXF statistics
(PID.TID 0000.0001) // =======================================================
 cg2d: Sum(rhs),rhsMax =  -8.41993141875719E-13  9.45671682273163E+00
(PID.TID 0000.0001)      cg2d_init_res =   8.05540325446376E-01
(PID.TID 0000.0001)      cg2d_iters(min,last) =      -1      25
(PID.TID 0000.0001)      cg2d_last_res =   2.84076366795413E-14
(PID.TID 0000.0001) // =======================================================
(PID.TID 0000.0001) // Begin MONITOR dynamic field statistics
(PID.TID 0000.0001) // =======================================================
(PID.TID 0000.0001) %MON time_tsnumber                =                    19
(PID.TID 0000.0001) %MON time_secondsf                =   8.2080000000000E+05
(PID.TID 0000.0001) %MON dynstat_eta_max              =   1.1427599451979E+00
(PID.TID 0000.0001) %MON dynstat_eta_min              =  -1.0925061864928E+00
(PID.TID 0000.0001) %MON dynstat_eta_mean             =   5.5696606989975E-16
(PID.TID 0000.0001) %MON dynstat_eta_sd               =   3.7220491181367E-01
(PID.TID 0000.0001) %MON dynstat_eta_del2             =   2.0028009051202E-03
(PID.TID 0000.0001) %MON dynstat_uvel_max             =   1.6797127637441E-01
(PID.TID 0000.0001) %MON dynstat_uvel_min             =  -1.3666225921277E-01
(PID.TID 0000.0001) %MON dynstat_uvel_mean            =  -9.5597668753451E-03
(PID.TID 0000.0001) %MON dynstat_uvel_sd              =   1.7464749435637E-02
(PID.TID 0000.0001) %MON dynstat_uvel_del2            =   1.1174889762198E-04
(PID.TID 0000.0001) %MON dynstat_vvel_max             =   1.4578537648680E-01
(PID.TID 0000.0001) %MON dynstat_vvel_min             =  -1.2602892733662E-01
(PID.TID 0000.0001) %MON dynstat_vvel_mean            =   2.4544131737446E-03
(PID.TID 0000.0001) %MON dynstat_vvel_sd              =   1.3045601762031E-02
(PID.TID 0000.0001) %MON dynstat_vvel_del2            =   1.0942649654597E-04
(PID.TID 0000.0001) %MON dynstat_wvel_max             =   2.6211500178640E-04
(PID.TID 0000.0001) %MON dynstat_wvel_min             =  -2.9871548934907E-04
(PID.TID 0000.0001) %MON dynstat_wvel_mean            =   1.0099585883962E-21
(PID.TID 0000.0001) %MON dynstat_wvel_sd              =   2.7701744201946E-05
(PID.TID 0000.0001) %MON dynstat_wvel_del2            =   2.8259249209447E-07
(PID.TID 0000.0001) %MON dynstat_theta_max            =   2.9443247770655E+01
(PID.TID 0000.0001) %MON dynstat_theta_min            =  -2.0722429004859E+00
(PID.TID 0000.0001) %MON dynstat_theta_mean           =   3.5956789377885E+00
(PID.TID 0000.0001) %MON dynstat_theta_sd             =   4.3563340054091E+00
(PID.TID 0000.0001) %MON dynstat_theta_del2           =   4.9845967569424E-03
(PID.TID 0000.0001) %MON dynstat_salt_max             =   3.7422382852925E+01
(PID.TID 0000.0001) %MON dynstat_salt_min             =   2.9788086367062E+01
(PID.TID 0000.0001) %MON dynstat_salt_mean            =   3.4716203412660E+01
(PID.TID 0000.0001) %MON dynstat_salt_sd              =   2.9589813876400E-01
(PID.TID 0000.0001) %MON dynstat_salt_del2            =   1.0031653955157E-03
(PID.TID 0000.0001) %MON forcing_qnet_max             =   4.3502018097908E+02
(PID.TID 0000.0001) %MON forcing_qnet_min             =  -1.8295814981768E+02
(PID.TID 0000.0001) %MON forcing_qnet_mean            =  -1.6591230239286E+01
(PID.TID 0000.0001) %MON forcing_qnet_sd              =   1.1105159545728E+02
(PID.TID 0000.0001) %MON forcing_qnet_del2            =   1.0057329084247E+00
(PID.TID 0000.0001) %MON forcing_qsw_max              =   0.0000000000000E+00
(PID.TID 0000.0001) %MON forcing_qsw_min              =   0.0000000000000E+00
(PID.TID 0000.0001) %MON forcing_qsw_mean             =   0.0000000000000E+00
(PID.TID 0000.0001) %MON forcing_qsw_sd               =   0.0000000000000E+00
(PID.TID 0000.0001) %MON forcing_qsw_del2             =   0.0000000000000E+00
(PID.TID 0000.0001) %MON forcing_empmr_max            =   0.0000000000000E+00
(PID.TID 0000.0001) %MON forcing_empmr_min            =   0.0000000000000E+00
(PID.TID 0000.0001) %MON forcing_empmr_mean           =   0.0000000000000E+00
(PID.TID 0000.0001) %MON forcing_empmr_sd             =   0.0000000000000E+00
(PID.TID 0000.0001) %MON forcing_empmr_del2           =   0.0000000000000E+00
(PID.TID 0000.0001) %MON forcing_fu_max               =   2.6917264642074E-01
(PID.TID 0000.0001) %MON forcing_fu_min               =  -1.6404949968320E-01
(PID.TID 0000.0001) %MON forcing_fu_mean              =   1.6099130696766E-02
(PID.TID 0000.0001) %MON forcing_fu_sd                =   9.0038066997141E-02
(PID.TID 0000.0001) %MON forcing_fu_del2              =   6.5702251177798E-04
(PID.TID 0000.0001) %MON forcing_fv_max               =   2.1365490927917E-01
(PID.TID 0000.0001) %MON forcing_fv_min               =  -1.6327112982418E-01
(PID.TID 0000.0001) %MON forcing_fv_mean              =  -5.5785274849178E-03
(PID.TID 0000.0001) %MON forcing_fv_sd                =   4.5081059923769E-02
(PID.TID 0000.0001) %MON forcing_fv_del2              =   3.5484962765802E-04
(PID.TID 0000.0001) %MON trAdv_CFL_u_max              =   2.2821279427904E-02
(PID.TID 0000.0001) %MON trAdv_CFL_v_max              =   1.3758242199576E-02
(PID.TID 0000.0001) %MON trAdv_CFL_w_max              =   8.5144342813935E-02
(PID.TID 0000.0001) %MON advcfl_uvel_max              =   2.3489334075534E-02
(PID.TID 0000.0001) %MON advcfl_vvel_max              =   1.4161880267524E-02
(PID.TID 0000.0001) %MON advcfl_wvel_max              =   1.6708120274986E-01
(PID.TID 0000.0001) %MON advcfl_W_hf_max              =   6.8974515358691E-02
(PID.TID 0000.0001) %MON pe_b_mean                    =   1.7727414531203E-04
(PID.TID 0000.0001) %MON ke_max                       =   1.2811495654405E-02
(PID.TID 0000.0001) %MON ke_mean                      =   2.5920275721406E-04
(PID.TID 0000.0001) %MON ke_vol                       =   1.3226782436723E+18
(PID.TID 0000.0001) %MON vort_r_min                   =  -4.4696356121512E-07
(PID.TID 0000.0001) %MON vort_r_max                   =   3.7948700419831E-07
(PID.TID 0000.0001) %MON vort_a_mean                  =  -2.5205769556105E-05
(PID.TID 0000.0001) %MON vort_a_sd                    =   7.3401393485819E-05
(PID.TID 0000.0001) %MON vort_p_mean                  =  -3.1758669762424E-05
(PID.TID 0000.0001) %MON vort_p_sd                    =   1.3126027629527E-04
(PID.TID 0000.0001) %MON surfExpan_theta_mean         =   4.5271357750373E-05
(PID.TID 0000.0001) %MON surfExpan_salt_mean          =   8.9093254686695E-07
(PID.TID 0000.0001) // =======================================================
(PID.TID 0000.0001) // End MONITOR dynamic field statistics
(PID.TID 0000.0001) // =======================================================
(PID.TID 0000.0001) // =======================================================
(PID.TID 0000.0001) // Begin MONITOR EXF statistics
(PID.TID 0000.0001) // =======================================================
(PID.TID 0000.0001) %MON exf_tsnumber                 =                    19
(PID.TID 0000.0001) %MON exf_time_sec                 =   8.2080000000000E+05
(PID.TID 0000.0001) %MON exf_ustress_max              =   2.7157400416270E-01
(PID.TID 0000.0001) %MON exf_ustress_min              =  -1.6496219326772E-01
(PID.TID 0000.0001) %MON exf_ustress_mean             =   1.5053546101397E-02
(PID.TID 0000.0001) %MON exf_ustress_sd               =   8.8856660641309E-02
(PID.TID 0000.0001) %MON exf_ustress_del2             =   6.9081596885549E-04
(PID.TID 0000.0001) %MON exf_vstress_max              =   2.1633751954763E-01
(PID.TID 0000.0001) %MON exf_vstress_min              =  -1.6830900188295E-01
(PID.TID 0000.0001) %MON exf_vstress_mean             =  -5.8658181296344E-03
(PID.TID 0000.0001) %MON exf_vstress_sd               =   4.6216181864353E-02
(PID.TID 0000.0001) %MON exf_vstress_del2             =   4.3084660609409E-04
(PID.TID 0000.0001) %MON exf_hflux_max                =   4.3552736836095E+02
(PID.TID 0000.0001) %MON exf_hflux_min                =  -1.8273210340931E+02
(PID.TID 0000.0001) %MON exf_hflux_mean               =  -1.6585176067113E+01
(PID.TID 0000.0001) %MON exf_hflux_sd                 =   1.1095714390972E+02
(PID.TID 0000.0001) %MON exf_hflux_del2               =   1.2257842421696E+00
(PID.TID 0000.0001) %MON exf_climsst_max              =   2.9465927124023E+01
(PID.TID 0000.0001) %MON exf_climsst_min              =  -1.9000000000000E+00
(PID.TID 0000.0001) %MON exf_climsst_mean             =   1.8438200457355E+01
(PID.TID 0000.0001) %MON exf_climsst_sd               =   9.1856438469627E+00
(PID.TID 0000.0001) %MON exf_climsst_del2             =   2.5148271139989E-02
(PID.TID 0000.0001) %MON exf_climsss_max              =   3.7466208304128E+01
(PID.TID 0000.0001) %MON exf_climsss_min              =   2.9717412025698E+01
(PID.TID 0000.0001) %MON exf_climsss_mean             =   3.4848697403740E+01
(PID.TID 0000.0001) %MON exf_climsss_sd               =   9.6321194299536E-01
(PID.TID 0000.0001) %MON exf_climsss_del2             =   7.3735882009776E-03
(PID.TID 0000.0001) // =======================================================
(PID.TID 0000.0001) // End MONITOR EXF statistics
(PID.TID 0000.0001) // =======================================================
 cg2d: Sum(rhs),rhsMax =  -8.67750316047022E-13  9.19868094587284E+00
(PID.TID 0000.0001)      cg2d_init_res =   8.09173639131817E-01
(PID.TID 0000.0001)      cg2d_iters(min,last) =      -1      25
(PID.TID 0000.0001)      cg2d_last_res =   3.17521291182263E-14
(PID.TID 0000.0001) // =======================================================
(PID.TID 0000.0001) // Begin MONITOR dynamic field statistics
(PID.TID 0000.0001) // =======================================================
(PID.TID 0000.0001) %MON time_tsnumber                =                    20
(PID.TID 0000.0001) %MON time_secondsf                =   8.6400000000000E+05
(PID.TID 0000.0001) %MON dynstat_eta_max              =   1.1037018095990E+00
(PID.TID 0000.0001) %MON dynstat_eta_min              =  -1.0465230584224E+00
(PID.TID 0000.0001) %MON dynstat_eta_mean             =   4.5644048655199E-16
(PID.TID 0000.0001) %MON dynstat_eta_sd               =   3.7365830134074E-01
(PID.TID 0000.0001) %MON dynstat_eta_del2             =   1.9830424973385E-03
(PID.TID 0000.0001) %MON dynstat_uvel_max             =   1.7150301122524E-01
(PID.TID 0000.0001) %MON dynstat_uvel_min             =  -1.4167676914528E-01
(PID.TID 0000.0001) %MON dynstat_uvel_mean            =  -9.1763880784038E-03
(PID.TID 0000.0001) %MON dynstat_uvel_sd              =   1.7661986646618E-02
(PID.TID 0000.0001) %MON dynstat_uvel_del2            =   1.1224876451718E-04
(PID.TID 0000.0001) %MON dynstat_vvel_max             =   1.3760110334499E-01
(PID.TID 0000.0001) %MON dynstat_vvel_min             =  -1.3633007764642E-01
(PID.TID 0000.0001) %MON dynstat_vvel_mean            =   2.2818876475598E-03
(PID.TID 0000.0001) %MON dynstat_vvel_sd              =   1.3004700011121E-02
(PID.TID 0000.0001) %MON dynstat_vvel_del2            =   1.0854117925637E-04
(PID.TID 0000.0001) %MON dynstat_wvel_max             =   2.6188935799381E-04
(PID.TID 0000.0001) %MON dynstat_wvel_min             =  -2.8226672431934E-04
(PID.TID 0000.0001) %MON dynstat_wvel_mean            =  -1.2918074967859E-21
(PID.TID 0000.0001) %MON dynstat_wvel_sd              =   2.6835614958558E-05
(PID.TID 0000.0001) %MON dynstat_wvel_del2            =   2.7275942459363E-07
(PID.TID 0000.0001) %MON dynstat_theta_max            =   2.9431483733933E+01
(PID.TID 0000.0001) %MON dynstat_theta_min            =  -2.0679655829040E+00
(PID.TID 0000.0001) %MON dynstat_theta_mean           =   3.5952903685023E+00
(PID.TID 0000.0001) %MON dynstat_theta_sd             =   4.3543685569768E+00
(PID.TID 0000.0001) %MON dynstat_theta_del2           =   4.9671565554562E-03
(PID.TID 0000.0001) %MON dynstat_salt_max             =   3.7421198020469E+01
(PID.TID 0000.0001) %MON dynstat_salt_min             =   2.9788063815979E+01
(PID.TID 0000.0001) %MON dynstat_salt_mean            =   3.4716200508422E+01
(PID.TID 0000.0001) %MON dynstat_salt_sd              =   2.9587270033114E-01
(PID.TID 0000.0001) %MON dynstat_salt_del2            =   1.0031199906846E-03
(PID.TID 0000.0001) %MON forcing_qnet_max             =   4.3552736836095E+02
(PID.TID 0000.0001) %MON forcing_qnet_min             =  -1.8273210340931E+02
(PID.TID 0000.0001) %MON forcing_qnet_mean            =  -1.6585176067113E+01
(PID.TID 0000.0001) %MON forcing_qnet_sd              =   1.1095714390972E+02
(PID.TID 0000.0001) %MON forcing_qnet_del2            =   1.0069473802317E+00
(PID.TID 0000.0001) %MON forcing_qsw_max              =   0.0000000000000E+00
(PID.TID 0000.0001) %MON forcing_qsw_min              =   0.0000000000000E+00
(PID.TID 0000.0001) %MON forcing_qsw_mean             =   0.0000000000000E+00
(PID.TID 0000.0001) %MON forcing_qsw_sd               =   0.0000000000000E+00
(PID.TID 0000.0001) %MON forcing_qsw_del2             =   0.0000000000000E+00
(PID.TID 0000.0001) %MON forcing_empmr_max            =   0.0000000000000E+00
(PID.TID 0000.0001) %MON forcing_empmr_min            =   0.0000000000000E+00
(PID.TID 0000.0001) %MON forcing_empmr_mean           =   0.0000000000000E+00
(PID.TID 0000.0001) %MON forcing_empmr_sd             =   0.0000000000000E+00
(PID.TID 0000.0001) %MON forcing_empmr_del2           =   0.0000000000000E+00
(PID.TID 0000.0001) %MON forcing_fu_max               =   2.6925592941623E-01
(PID.TID 0000.0001) %MON forcing_fu_min               =  -1.6446923820542E-01
(PID.TID 0000.0001) %MON forcing_fu_mean              =   1.6095167900534E-02
(PID.TID 0000.0001) %MON forcing_fu_sd                =   9.0073943796878E-02
(PID.TID 0000.0001) %MON forcing_fu_del2              =   6.5941934167183E-04
(PID.TID 0000.0001) %MON forcing_fv_max               =   2.1459943421125E-01
(PID.TID 0000.0001) %MON forcing_fv_min               =  -1.6382933513171E-01
(PID.TID 0000.0001) %MON forcing_fv_mean              =  -5.5440749809539E-03
(PID.TID 0000.0001) %MON forcing_fv_sd                =   4.5187531257864E-02
(PID.TID 0000.0001) %MON forcing_fv_del2              =   3.5623874208695E-04
(PID.TID 0000.0001) %MON trAdv_CFL_u_max              =   2.3494104927283E-02
(PID.TID 0000.0001) %MON trAdv_CFL_v_max              =   1.3399116364360E-02
(PID.TID 0000.0001) %MON trAdv_CFL_w_max              =   8.3540601374929E-02
(PID.TID 0000.0001) %MON advcfl_uvel_max              =   2.3983216729569E-02
(PID.TID 0000.0001) %MON advcfl_vvel_max              =   1.3366843761777E-02
(PID.TID 0000.0001) %MON advcfl_wvel_max              =   1.5793371814992E-01
(PID.TID 0000.0001) %MON advcfl_W_hf_max              =   6.6199356724312E-02
(PID.TID 0000.0001) %MON pe_b_mean                    =   1.7866129208008E-04
(PID.TID 0000.0001) %MON ke_max                       =   1.3469978475814E-02
(PID.TID 0000.0001) %MON ke_mean                      =   2.5824182494031E-04
(PID.TID 0000.0001) %MON ke_vol                       =   1.3226782436723E+18
(PID.TID 0000.0001) %MON vort_r_min                   =  -4.5417884950621E-07
(PID.TID 0000.0001) %MON vort_r_max                   =   3.8744560737065E-07
(PID.TID 0000.0001) %MON vort_a_mean                  =  -2.5205769509551E-05
(PID.TID 0000.0001) %MON vort_a_sd                    =   7.3401457668341E-05
(PID.TID 0000.0001) %MON vort_p_mean                  =  -3.1758669703767E-05
(PID.TID 0000.0001) %MON vort_p_sd                    =   1.3126051169346E-04
(PID.TID 0000.0001) %MON surfExpan_theta_mean         =   3.4154331788850E-05
(PID.TID 0000.0001) %MON surfExpan_salt_mean          =  -5.8452414825142E-08
(PID.TID 0000.0001) // =======================================================
(PID.TID 0000.0001) // End MONITOR dynamic field statistics
(PID.TID 0000.0001) // =======================================================
(PID.TID 0000.0001) // Time-average data written, t-step        20
(PID.TID 0000.0001) 
(PID.TID 0000.0001) %CHECKPOINT        20 ckptA
(PID.TID 0000.0001) 
(PID.TID 0000.0001) == cost_profiles: begin ==
(PID.TID 0000.0001)  cost_profiles( 1, 1)=  0.49713D+05 0.11549D+05
(PID.TID 0000.0001)  cost_profiles( 1, 2)=  0.39605D+05 0.11548D+05
(PID.TID 0000.0001) == cost_profiles: end   ==
(PID.TID 0000.0001) 
(PID.TID 0000.0001)   Seconds in section "ALL                    [THE_MODEL_MAIN]":
(PID.TID 0000.0001)           User time:   11.430212253704667
(PID.TID 0000.0001)         System time:  0.19748299755156040
(PID.TID 0000.0001)     Wall clock time:   11.915766954421997
(PID.TID 0000.0001)          No. starts:           1
(PID.TID 0000.0001)           No. stops:           1
(PID.TID 0000.0001)   Seconds in section "INITIALISE_FIXED       [THE_MODEL_MAIN]":
(PID.TID 0000.0001)           User time:  0.25956199737265706
(PID.TID 0000.0001)         System time:  0.10859600128605962
(PID.TID 0000.0001)     Wall clock time:  0.45576596260070801
(PID.TID 0000.0001)          No. starts:           1
(PID.TID 0000.0001)           No. stops:           1
(PID.TID 0000.0001)   Seconds in section "THE_MAIN_LOOP          [THE_MODEL_MAIN]":
(PID.TID 0000.0001)           User time:   11.170615673065186
(PID.TID 0000.0001)         System time:   8.8865995407104492E-002
(PID.TID 0000.0001)     Wall clock time:   11.459963083267212
(PID.TID 0000.0001)          No. starts:           1
(PID.TID 0000.0001)           No. stops:           1
(PID.TID 0000.0001)   Seconds in section "INITIALISE_VARIA    [THE_MAIN_LOOP]":
(PID.TID 0000.0001)           User time:  0.16500800848007202
(PID.TID 0000.0001)         System time:   2.1803006529808044E-002
(PID.TID 0000.0001)     Wall clock time:  0.18774700164794922
(PID.TID 0000.0001)          No. starts:           1
(PID.TID 0000.0001)           No. stops:           1
(PID.TID 0000.0001)   Seconds in section "MAIN LOOP           [THE_MAIN_LOOP]":
(PID.TID 0000.0001)           User time:   11.005582183599472
(PID.TID 0000.0001)         System time:   6.7057996988296509E-002
(PID.TID 0000.0001)     Wall clock time:   11.272188901901245
(PID.TID 0000.0001)          No. starts:           1
(PID.TID 0000.0001)           No. stops:           1
(PID.TID 0000.0001)   Seconds in section "PROFILES_INLOOP    [MAIN_DO_LOOP]":
(PID.TID 0000.0001)           User time:  0.14492425322532654
(PID.TID 0000.0001)         System time:   3.7290006875991821E-003
(PID.TID 0000.0001)     Wall clock time:  0.14868211746215820
(PID.TID 0000.0001)          No. starts:          20
(PID.TID 0000.0001)           No. stops:          20
(PID.TID 0000.0001)   Seconds in section "MAIN_DO_LOOP        [THE_MAIN_LOOP]":
(PID.TID 0000.0001)           User time:   10.841752827167511
(PID.TID 0000.0001)         System time:   6.3325002789497375E-002
(PID.TID 0000.0001)     Wall clock time:   11.104300022125244
(PID.TID 0000.0001)          No. starts:          20
(PID.TID 0000.0001)           No. stops:          20
(PID.TID 0000.0001)   Seconds in section "FORWARD_STEP        [MAIN_DO_LOOP]":
(PID.TID 0000.0001)           User time:   10.841391593217850
(PID.TID 0000.0001)         System time:   6.3322991132736206E-002
(PID.TID 0000.0001)     Wall clock time:   11.103941917419434
(PID.TID 0000.0001)          No. starts:          20
(PID.TID 0000.0001)           No. stops:          20
(PID.TID 0000.0001)   Seconds in section "DO_STATEVARS_DIAGS  [FORWARD_STEP]":
(PID.TID 0000.0001)           User time:   3.9513111114501953E-003
(PID.TID 0000.0001)         System time:   7.0035457611083984E-006
(PID.TID 0000.0001)     Wall clock time:   3.9675235748291016E-003
(PID.TID 0000.0001)          No. starts:          40
(PID.TID 0000.0001)           No. stops:          40
(PID.TID 0000.0001)   Seconds in section "LOAD_FIELDS_DRIVER  [FORWARD_STEP]":
(PID.TID 0000.0001)           User time:  0.13999643921852112
(PID.TID 0000.0001)         System time:   4.2010098695755005E-003
(PID.TID 0000.0001)     Wall clock time:  0.34227108955383301
(PID.TID 0000.0001)          No. starts:          20
(PID.TID 0000.0001)           No. stops:          20
(PID.TID 0000.0001)   Seconds in section "EXF_GETFORCING     [LOAD_FLDS_DRIVER]":
(PID.TID 0000.0001)           User time:  0.13927900791168213
(PID.TID 0000.0001)         System time:   4.1920095682144165E-003
(PID.TID 0000.0001)     Wall clock time:  0.34157943725585938
(PID.TID 0000.0001)          No. starts:          20
(PID.TID 0000.0001)           No. stops:          20
(PID.TID 0000.0001)   Seconds in section "EXTERNAL_FLDS_LOAD [LOAD_FLDS_DRIVER]":
(PID.TID 0000.0001)           User time:   1.8420815467834473E-004
(PID.TID 0000.0001)         System time:   1.9967555999755859E-006
(PID.TID 0000.0001)     Wall clock time:   1.8739700317382812E-004
(PID.TID 0000.0001)          No. starts:          20
(PID.TID 0000.0001)           No. stops:          20
(PID.TID 0000.0001)   Seconds in section "DO_ATMOSPHERIC_PHYS [FORWARD_STEP]":
(PID.TID 0000.0001)           User time:   1.7017126083374023E-004
(PID.TID 0000.0001)         System time:   3.9935111999511719E-006
(PID.TID 0000.0001)     Wall clock time:   1.7189979553222656E-004
(PID.TID 0000.0001)          No. starts:          20
(PID.TID 0000.0001)           No. stops:          20
(PID.TID 0000.0001)   Seconds in section "DO_OCEANIC_PHYS     [FORWARD_STEP]":
(PID.TID 0000.0001)           User time:   1.0925661325454712
(PID.TID 0000.0001)         System time:   0.0000000000000000
(PID.TID 0000.0001)     Wall clock time:   1.0926458835601807
(PID.TID 0000.0001)          No. starts:          20
(PID.TID 0000.0001)           No. stops:          20
(PID.TID 0000.0001)   Seconds in section "THERMODYNAMICS      [FORWARD_STEP]":
(PID.TID 0000.0001)           User time:   2.9976343512535095
(PID.TID 0000.0001)         System time:   0.0000000000000000
(PID.TID 0000.0001)     Wall clock time:   2.9986901283264160
(PID.TID 0000.0001)          No. starts:          20
(PID.TID 0000.0001)           No. stops:          20
(PID.TID 0000.0001)   Seconds in section "DYNAMICS            [FORWARD_STEP]":
(PID.TID 0000.0001)           User time:   3.7419272065162659
(PID.TID 0000.0001)         System time:   3.8819909095764160E-003
(PID.TID 0000.0001)     Wall clock time:   3.7459869384765625
(PID.TID 0000.0001)          No. starts:          20
(PID.TID 0000.0001)           No. stops:          20
(PID.TID 0000.0001)   Seconds in section "SOLVE_FOR_PRESSURE  [FORWARD_STEP]":
(PID.TID 0000.0001)           User time:  0.64518958330154419
(PID.TID 0000.0001)         System time:   0.0000000000000000
(PID.TID 0000.0001)     Wall clock time:  0.64524793624877930
(PID.TID 0000.0001)          No. starts:          20
(PID.TID 0000.0001)           No. stops:          20
(PID.TID 0000.0001)   Seconds in section "MOM_CORRECTION_STEP [FORWARD_STEP]":
(PID.TID 0000.0001)           User time:  0.10347026586532593
(PID.TID 0000.0001)         System time:   9.9837779998779297E-007
(PID.TID 0000.0001)     Wall clock time:  0.10352134704589844
(PID.TID 0000.0001)          No. starts:          20
(PID.TID 0000.0001)           No. stops:          20
(PID.TID 0000.0001)   Seconds in section "INTEGR_CONTINUITY   [FORWARD_STEP]":
(PID.TID 0000.0001)           User time:  0.12919831275939941
(PID.TID 0000.0001)         System time:   3.1009316444396973E-005
(PID.TID 0000.0001)     Wall clock time:  0.12925934791564941
(PID.TID 0000.0001)          No. starts:          20
(PID.TID 0000.0001)           No. stops:          20
(PID.TID 0000.0001)   Seconds in section "TRC_CORRECTION_STEP [FORWARD_STEP]":
(PID.TID 0000.0001)           User time:   1.6957521438598633E-004
(PID.TID 0000.0001)         System time:   0.0000000000000000
(PID.TID 0000.0001)     Wall clock time:   1.7380714416503906E-004
(PID.TID 0000.0001)          No. starts:          20
(PID.TID 0000.0001)           No. stops:          20
(PID.TID 0000.0001)   Seconds in section "BLOCKING_EXCHANGES  [FORWARD_STEP]":
(PID.TID 0000.0001)           User time:   9.3290686607360840E-002
(PID.TID 0000.0001)         System time:   2.9951333999633789E-006
(PID.TID 0000.0001)     Wall clock time:   9.3332767486572266E-002
(PID.TID 0000.0001)          No. starts:          20
(PID.TID 0000.0001)           No. stops:          20
(PID.TID 0000.0001)   Seconds in section "DO_STATEVARS_TAVE   [FORWARD_STEP]":
(PID.TID 0000.0001)           User time:  0.53263950347900391
(PID.TID 0000.0001)         System time:   0.0000000000000000
(PID.TID 0000.0001)     Wall clock time:  0.53271937370300293
(PID.TID 0000.0001)          No. starts:          20
(PID.TID 0000.0001)           No. stops:          20
(PID.TID 0000.0001)   Seconds in section "MONITOR             [FORWARD_STEP]":
(PID.TID 0000.0001)           User time:   1.1725811958312988
(PID.TID 0000.0001)         System time:   0.0000000000000000
(PID.TID 0000.0001)     Wall clock time:   1.1726682186126709
(PID.TID 0000.0001)          No. starts:          20
(PID.TID 0000.0001)           No. stops:          20
(PID.TID 0000.0001)   Seconds in section "DO_THE_MODEL_IO     [FORWARD_STEP]":
(PID.TID 0000.0001)           User time:  0.13972419500350952
(PID.TID 0000.0001)         System time:   3.9183020591735840E-002
(PID.TID 0000.0001)     Wall clock time:  0.17891097068786621
(PID.TID 0000.0001)          No. starts:          20
(PID.TID 0000.0001)           No. stops:          20
(PID.TID 0000.0001)   Seconds in section "DO_WRITE_PICKUP     [FORWARD_STEP]":
(PID.TID 0000.0001)           User time:   4.5323371887207031E-002
(PID.TID 0000.0001)         System time:   1.5957996249198914E-002
(PID.TID 0000.0001)     Wall clock time:   6.1288356781005859E-002
(PID.TID 0000.0001)          No. starts:          20
(PID.TID 0000.0001)           No. stops:          20
(PID.TID 0000.0001)   Seconds in section "PROFILES_INLOOP    [THE_MAIN_LOOP]":
(PID.TID 0000.0001)           User time:   7.3413848876953125E-003
(PID.TID 0000.0001)         System time:   0.0000000000000000
(PID.TID 0000.0001)     Wall clock time:   7.3428153991699219E-003
(PID.TID 0000.0001)          No. starts:           1
(PID.TID 0000.0001)           No. stops:           1
(PID.TID 0000.0001) // ======================================================
(PID.TID 0000.0001) // Tile <-> Tile communication statistics
(PID.TID 0000.0001) // ======================================================
(PID.TID 0000.0001) // o Tile number: 000001
(PID.TID 0000.0001) //         No. X exchanges =              0
(PID.TID 0000.0001) //            Max. X spins =              0
(PID.TID 0000.0001) //            Min. X spins =     1000000000
(PID.TID 0000.0001) //          Total. X spins =              0
(PID.TID 0000.0001) //            Avg. X spins =       0.00E+00
(PID.TID 0000.0001) //         No. Y exchanges =              0
(PID.TID 0000.0001) //            Max. Y spins =              0
(PID.TID 0000.0001) //            Min. Y spins =     1000000000
(PID.TID 0000.0001) //          Total. Y spins =              0
(PID.TID 0000.0001) //            Avg. Y spins =       0.00E+00
(PID.TID 0000.0001) // o Tile number: 000002
(PID.TID 0000.0001) //         No. X exchanges =              0
(PID.TID 0000.0001) //            Max. X spins =              0
(PID.TID 0000.0001) //            Min. X spins =     1000000000
(PID.TID 0000.0001) //          Total. X spins =              0
(PID.TID 0000.0001) //            Avg. X spins =       0.00E+00
(PID.TID 0000.0001) //         No. Y exchanges =              0
(PID.TID 0000.0001) //            Max. Y spins =              0
(PID.TID 0000.0001) //            Min. Y spins =     1000000000
(PID.TID 0000.0001) //          Total. Y spins =              0
(PID.TID 0000.0001) //            Avg. Y spins =       0.00E+00
(PID.TID 0000.0001) // o Tile number: 000003
(PID.TID 0000.0001) //         No. X exchanges =              0
(PID.TID 0000.0001) //            Max. X spins =              0
(PID.TID 0000.0001) //            Min. X spins =     1000000000
(PID.TID 0000.0001) //          Total. X spins =              0
(PID.TID 0000.0001) //            Avg. X spins =       0.00E+00
(PID.TID 0000.0001) //         No. Y exchanges =              0
(PID.TID 0000.0001) //            Max. Y spins =              0
(PID.TID 0000.0001) //            Min. Y spins =     1000000000
(PID.TID 0000.0001) //          Total. Y spins =              0
(PID.TID 0000.0001) //            Avg. Y spins =       0.00E+00
(PID.TID 0000.0001) // o Tile number: 000004
(PID.TID 0000.0001) //         No. X exchanges =              0
(PID.TID 0000.0001) //            Max. X spins =              0
(PID.TID 0000.0001) //            Min. X spins =     1000000000
(PID.TID 0000.0001) //          Total. X spins =              0
(PID.TID 0000.0001) //            Avg. X spins =       0.00E+00
(PID.TID 0000.0001) //         No. Y exchanges =              0
(PID.TID 0000.0001) //            Max. Y spins =              0
(PID.TID 0000.0001) //            Min. Y spins =     1000000000
(PID.TID 0000.0001) //          Total. Y spins =              0
(PID.TID 0000.0001) //            Avg. Y spins =       0.00E+00
(PID.TID 0000.0001) // o Tile number: 000005
(PID.TID 0000.0001) //         No. X exchanges =              0
(PID.TID 0000.0001) //            Max. X spins =              0
(PID.TID 0000.0001) //            Min. X spins =     1000000000
(PID.TID 0000.0001) //          Total. X spins =              0
(PID.TID 0000.0001) //            Avg. X spins =       0.00E+00
(PID.TID 0000.0001) //         No. Y exchanges =              0
(PID.TID 0000.0001) //            Max. Y spins =              0
(PID.TID 0000.0001) //            Min. Y spins =     1000000000
(PID.TID 0000.0001) //          Total. Y spins =              0
(PID.TID 0000.0001) //            Avg. Y spins =       0.00E+00
(PID.TID 0000.0001) // o Tile number: 000006
(PID.TID 0000.0001) //         No. X exchanges =              0
(PID.TID 0000.0001) //            Max. X spins =              0
(PID.TID 0000.0001) //            Min. X spins =     1000000000
(PID.TID 0000.0001) //          Total. X spins =              0
(PID.TID 0000.0001) //            Avg. X spins =       0.00E+00
(PID.TID 0000.0001) //         No. Y exchanges =              0
(PID.TID 0000.0001) //            Max. Y spins =              0
(PID.TID 0000.0001) //            Min. Y spins =     1000000000
(PID.TID 0000.0001) //          Total. Y spins =              0
(PID.TID 0000.0001) //            Avg. Y spins =       0.00E+00
(PID.TID 0000.0001) // o Thread number: 000001
(PID.TID 0000.0001) //            No. barriers =          11516
(PID.TID 0000.0001) //      Max. barrier spins =              1
(PID.TID 0000.0001) //      Min. barrier spins =              1
(PID.TID 0000.0001) //     Total barrier spins =          11516
(PID.TID 0000.0001) //      Avg. barrier spins =       1.00E+00
PROGRAM MAIN: Execution ended Normally
