(PID.TID 0000.0001) 
(PID.TID 0000.0001) // ======================================================
(PID.TID 0000.0001) //                      MITgcm UV
(PID.TID 0000.0001) //                      =========
(PID.TID 0000.0001) // ======================================================
(PID.TID 0000.0001) // execution environment starting up...
(PID.TID 0000.0001) 
(PID.TID 0000.0001) // MITgcmUV version:  checkpoint67i
(PID.TID 0000.0001) // Build user:        jmc
(PID.TID 0000.0001) // Build host:        baudelaire
(PID.TID 0000.0001) // Build date:        Thu May 30 17:35:30 EDT 2019
(PID.TID 0000.0001) 
(PID.TID 0000.0001) // =======================================================
(PID.TID 0000.0001) // Execution Environment parameter file "eedata"
(PID.TID 0000.0001) // =======================================================
(PID.TID 0000.0001) ># Example "eedata" file
(PID.TID 0000.0001) ># Lines beginning "#" are comments
(PID.TID 0000.0001) ># nTx - No. threads per process in X
(PID.TID 0000.0001) ># nTy - No. threads per process in Y
(PID.TID 0000.0001) > &EEPARMS
(PID.TID 0000.0001) > nTx=1,
(PID.TID 0000.0001) > nTy=1,
(PID.TID 0000.0001) > /
(PID.TID 0000.0001) ># Note: Some systems use & as the namelist terminator (as shown here).
(PID.TID 0000.0001) >#       Other systems use a / character.
(PID.TID 0000.0001) 
(PID.TID 0000.0001) // =======================================================
(PID.TID 0000.0001) // Computational Grid Specification ( see files "SIZE.h" )
(PID.TID 0000.0001) //                                  ( and "eedata"       )
(PID.TID 0000.0001) // =======================================================
(PID.TID 0000.0001)      nPx =    1 ; /* No. processes in X */
(PID.TID 0000.0001)      nPy =    1 ; /* No. processes in Y */
(PID.TID 0000.0001)      nSx =    2 ; /* No. tiles in X per process */
(PID.TID 0000.0001)      nSy =    4 ; /* No. tiles in Y per process */
(PID.TID 0000.0001)      sNx =   50 ; /* Tile size in X */
(PID.TID 0000.0001)      sNy =   25 ; /* Tile size in Y */
(PID.TID 0000.0001)      OLx =    3 ; /* Tile overlap distance in X */
(PID.TID 0000.0001)      OLy =    3 ; /* Tile overlap distance in Y */
(PID.TID 0000.0001)      nTx =    1 ; /* No. threads in X per process */
(PID.TID 0000.0001)      nTy =    1 ; /* No. threads in Y per process */
(PID.TID 0000.0001)       Nr =    1 ; /* No. levels in the vertical   */
(PID.TID 0000.0001)       Nx =  100 ; /* Total domain size in X ( = nPx*nSx*sNx ) */
(PID.TID 0000.0001)       Ny =  100 ; /* Total domain size in Y ( = nPy*nSy*sNy ) */
(PID.TID 0000.0001)   nTiles =    8 ; /* Total no. tiles per process ( = nSx*nSy ) */
(PID.TID 0000.0001)   nProcs =    1 ; /* Total no. processes ( = nPx*nPy ) */
(PID.TID 0000.0001) nThreads =    1 ; /* Total no. threads per process ( = nTx*nTy ) */
(PID.TID 0000.0001) usingMPI =    F ; /* Flag used to control whether MPI is in use */
(PID.TID 0000.0001)                   /*  note: To execute a program with MPI calls */
(PID.TID 0000.0001)                   /*  it must be launched appropriately e.g     */
(PID.TID 0000.0001)                   /*  "mpirun -np 64 ......"                    */
(PID.TID 0000.0001) useCoupler=    F ;/* Flag used to control communications with   */
(PID.TID 0000.0001)                   /*  other model components, through a coupler */
(PID.TID 0000.0001) useNest2W_parent =    F ;/* Control 2-W Nesting comm */
(PID.TID 0000.0001) useNest2W_child  =    F ;/* Control 2-W Nesting comm */
(PID.TID 0000.0001) debugMode =    F ; /* print debug msg. (sequence of S/R calls)  */
(PID.TID 0000.0001) printMapIncludesZeros=    F ; /* print zeros in Std.Output maps */
(PID.TID 0000.0001) maxLengthPrt1D=   65 /* maxLength of 1D array printed to StdOut */
(PID.TID 0000.0001) 
(PID.TID 0000.0001) // ======================================================
(PID.TID 0000.0001) // Mapping of tiles to threads
(PID.TID 0000.0001) // ======================================================
(PID.TID 0000.0001) // -o- Thread   1, tiles (   1:   2,   1:   4)
(PID.TID 0000.0001) 
(PID.TID 0000.0001) // ======================================================
(PID.TID 0000.0001) // Tile <-> Tile connectvity table
(PID.TID 0000.0001) // ======================================================
(PID.TID 0000.0001) // Tile number: 000001 (process no. = 000000)
(PID.TID 0000.0001) //        WEST: Tile = 000002, Process = 000000, Comm = put
(PID.TID 0000.0001) //                bi = 000002, bj = 000001
(PID.TID 0000.0001) //        EAST: Tile = 000002, Process = 000000, Comm = put
(PID.TID 0000.0001) //                bi = 000002, bj = 000001
(PID.TID 0000.0001) //       SOUTH: Tile = 000007, Process = 000000, Comm = put
(PID.TID 0000.0001) //                bi = 000001, bj = 000004
(PID.TID 0000.0001) //       NORTH: Tile = 000003, Process = 000000, Comm = put
(PID.TID 0000.0001) //                bi = 000001, bj = 000002
(PID.TID 0000.0001) // Tile number: 000002 (process no. = 000000)
(PID.TID 0000.0001) //        WEST: Tile = 000001, Process = 000000, Comm = put
(PID.TID 0000.0001) //                bi = 000001, bj = 000001
(PID.TID 0000.0001) //        EAST: Tile = 000001, Process = 000000, Comm = put
(PID.TID 0000.0001) //                bi = 000001, bj = 000001
(PID.TID 0000.0001) //       SOUTH: Tile = 000008, Process = 000000, Comm = put
(PID.TID 0000.0001) //                bi = 000002, bj = 000004
(PID.TID 0000.0001) //       NORTH: Tile = 000004, Process = 000000, Comm = put
(PID.TID 0000.0001) //                bi = 000002, bj = 000002
(PID.TID 0000.0001) // Tile number: 000003 (process no. = 000000)
(PID.TID 0000.0001) //        WEST: Tile = 000004, Process = 000000, Comm = put
(PID.TID 0000.0001) //                bi = 000002, bj = 000002
(PID.TID 0000.0001) //        EAST: Tile = 000004, Process = 000000, Comm = put
(PID.TID 0000.0001) //                bi = 000002, bj = 000002
(PID.TID 0000.0001) //       SOUTH: Tile = 000001, Process = 000000, Comm = put
(PID.TID 0000.0001) //                bi = 000001, bj = 000001
(PID.TID 0000.0001) //       NORTH: Tile = 000005, Process = 000000, Comm = put
(PID.TID 0000.0001) //                bi = 000001, bj = 000003
(PID.TID 0000.0001) // Tile number: 000004 (process no. = 000000)
(PID.TID 0000.0001) //        WEST: Tile = 000003, Process = 000000, Comm = put
(PID.TID 0000.0001) //                bi = 000001, bj = 000002
(PID.TID 0000.0001) //        EAST: Tile = 000003, Process = 000000, Comm = put
(PID.TID 0000.0001) //                bi = 000001, bj = 000002
(PID.TID 0000.0001) //       SOUTH: Tile = 000002, Process = 000000, Comm = put
(PID.TID 0000.0001) //                bi = 000002, bj = 000001
(PID.TID 0000.0001) //       NORTH: Tile = 000006, Process = 000000, Comm = put
(PID.TID 0000.0001) //                bi = 000002, bj = 000003
(PID.TID 0000.0001) // Tile number: 000005 (process no. = 000000)
(PID.TID 0000.0001) //        WEST: Tile = 000006, Process = 000000, Comm = put
(PID.TID 0000.0001) //                bi = 000002, bj = 000003
(PID.TID 0000.0001) //        EAST: Tile = 000006, Process = 000000, Comm = put
(PID.TID 0000.0001) //                bi = 000002, bj = 000003
(PID.TID 0000.0001) //       SOUTH: Tile = 000003, Process = 000000, Comm = put
(PID.TID 0000.0001) //                bi = 000001, bj = 000002
(PID.TID 0000.0001) //       NORTH: Tile = 000007, Process = 000000, Comm = put
(PID.TID 0000.0001) //                bi = 000001, bj = 000004
(PID.TID 0000.0001) // Tile number: 000006 (process no. = 000000)
(PID.TID 0000.0001) //        WEST: Tile = 000005, Process = 000000, Comm = put
(PID.TID 0000.0001) //                bi = 000001, bj = 000003
(PID.TID 0000.0001) //        EAST: Tile = 000005, Process = 000000, Comm = put
(PID.TID 0000.0001) //                bi = 000001, bj = 000003
(PID.TID 0000.0001) //       SOUTH: Tile = 000004, Process = 000000, Comm = put
(PID.TID 0000.0001) //                bi = 000002, bj = 000002
(PID.TID 0000.0001) //       NORTH: Tile = 000008, Process = 000000, Comm = put
(PID.TID 0000.0001) //                bi = 000002, bj = 000004
(PID.TID 0000.0001) // Tile number: 000007 (process no. = 000000)
(PID.TID 0000.0001) //        WEST: Tile = 000008, Process = 000000, Comm = put
(PID.TID 0000.0001) //                bi = 000002, bj = 000004
(PID.TID 0000.0001) //        EAST: Tile = 000008, Process = 000000, Comm = put
(PID.TID 0000.0001) //                bi = 000002, bj = 000004
(PID.TID 0000.0001) //       SOUTH: Tile = 000005, Process = 000000, Comm = put
(PID.TID 0000.0001) //                bi = 000001, bj = 000003
(PID.TID 0000.0001) //       NORTH: Tile = 000001, Process = 000000, Comm = put
(PID.TID 0000.0001) //                bi = 000001, bj = 000001
(PID.TID 0000.0001) // Tile number: 000008 (process no. = 000000)
(PID.TID 0000.0001) //        WEST: Tile = 000007, Process = 000000, Comm = put
(PID.TID 0000.0001) //                bi = 000001, bj = 000004
(PID.TID 0000.0001) //        EAST: Tile = 000007, Process = 000000, Comm = put
(PID.TID 0000.0001) //                bi = 000001, bj = 000004
(PID.TID 0000.0001) //       SOUTH: Tile = 000006, Process = 000000, Comm = put
(PID.TID 0000.0001) //                bi = 000002, bj = 000003
(PID.TID 0000.0001) //       NORTH: Tile = 000002, Process = 000000, Comm = put
(PID.TID 0000.0001) //                bi = 000002, bj = 000001
(PID.TID 0000.0001) 
(PID.TID 0000.0001)  INI_PARMS: opening model parameter file "data"
(PID.TID 0000.0001)  OPEN_COPY_DATA_FILE: opening file data
(PID.TID 0000.0001) // =======================================================
(PID.TID 0000.0001) // Parameter file "data"
(PID.TID 0000.0001) // =======================================================
(PID.TID 0000.0001) ># ====================
(PID.TID 0000.0001) ># | Model parameters |
(PID.TID 0000.0001) ># ====================
(PID.TID 0000.0001) >#
(PID.TID 0000.0001) ># Continuous equation parameters
(PID.TID 0000.0001) > &PARM01
(PID.TID 0000.0001) > tRef=20.,
(PID.TID 0000.0001) > sRef=35.,
(PID.TID 0000.0001) > viscAh=500.,
(PID.TID 0000.0001) > diffKhT=200.,
(PID.TID 0000.0001) > diffKhS=200.,
(PID.TID 0000.0001) > tempAdvScheme=33,
(PID.TID 0000.0001) > staggerTimeStep=.TRUE.,
(PID.TID 0000.0001) > eosType='LINEAR',
(PID.TID 0000.0001) > celsius2K=273.16,
(PID.TID 0000.0001) > readBinaryPrec=64,
(PID.TID 0000.0001) >#debugLevel=5,
(PID.TID 0000.0001) > /
(PID.TID 0000.0001) >
(PID.TID 0000.0001) ># Elliptic solver parameters
(PID.TID 0000.0001) > &PARM02
(PID.TID 0000.0001) > /
(PID.TID 0000.0001) >
(PID.TID 0000.0001) ># Time stepping parameters
(PID.TID 0000.0001) > &PARM03
(PID.TID 0000.0001) > nIter0  = 0,
(PID.TID 0000.0001) > deltaT  = 1200.,
(PID.TID 0000.0001) > endTime = 28800.,
(PID.TID 0000.0001) > dumpFreq= 14400.,
(PID.TID 0000.0001) > monitorFreq=3600.,
(PID.TID 0000.0001) > /
(PID.TID 0000.0001) >
(PID.TID 0000.0001) ># Grid parameters
(PID.TID 0000.0001) > &PARM04
(PID.TID 0000.0001) > usingSphericalPolarGrid=.TRUE.,
(PID.TID 0000.0001) > ygOrigin=30.,
(PID.TID 0000.0001) > dxSpacing=0.25,
(PID.TID 0000.0001) > dySpacing=0.25,
(PID.TID 0000.0001) > delR=1000.,
(PID.TID 0000.0001) > /
(PID.TID 0000.0001) >
(PID.TID 0000.0001) ># Input datasets
(PID.TID 0000.0001) > &PARM05
(PID.TID 0000.0001) > bathyFile='topog.box',
(PID.TID 0000.0001) > /
(PID.TID 0000.0001) 
(PID.TID 0000.0001)  INI_PARMS ; starts to read PARM01
(PID.TID 0000.0001)  INI_PARMS ; read PARM01 : OK
(PID.TID 0000.0001) S/R INI_PARMS: No request for barotropic solver
(PID.TID 0000.0001) S/R INI_PARMS: => Use implicitFreeSurface as default
(PID.TID 0000.0001)  INI_PARMS ; starts to read PARM02
(PID.TID 0000.0001)  INI_PARMS ; read PARM02 : OK
(PID.TID 0000.0001)  INI_PARMS ; starts to read PARM03
(PID.TID 0000.0001)  INI_PARMS ; read PARM03 : OK
(PID.TID 0000.0001)  INI_PARMS ; starts to read PARM04
(PID.TID 0000.0001)  INI_PARMS ; read PARM04 : OK
(PID.TID 0000.0001)  INI_PARMS ; starts to read PARM05
(PID.TID 0000.0001)  INI_PARMS ; read PARM05 : OK
(PID.TID 0000.0001)  INI_PARMS: finished reading file "data"
(PID.TID 0000.0001)  PACKAGES_BOOT: opening data.pkg
(PID.TID 0000.0001)  OPEN_COPY_DATA_FILE: opening file data.pkg
(PID.TID 0000.0001) // =======================================================
(PID.TID 0000.0001) // Parameter file "data.pkg"
(PID.TID 0000.0001) // =======================================================
(PID.TID 0000.0001) ># Packages
(PID.TID 0000.0001) > &PACKAGES
(PID.TID 0000.0001) >  useCheapAML=.TRUE.,
(PID.TID 0000.0001) >  useDiagnostics=.TRUE.,
(PID.TID 0000.0001) >  useMNC=.TRUE.,
(PID.TID 0000.0001) > /
(PID.TID 0000.0001) 
(PID.TID 0000.0001)  PACKAGES_BOOT: finished reading data.pkg
(PID.TID 0000.0001)  PACKAGES_BOOT: On/Off package Summary
 --------  pkgs with a standard "usePKG" On/Off switch in "data.pkg":  --------
 pkg/cheapaml             compiled   and   used ( useCheapAML              = T )
 pkg/diagnostics          compiled   and   used ( useDiagnostics           = T )
 pkg/mnc                  compiled   and   used ( useMNC                   = T )
 -------- pkgs without standard "usePKG" On/Off switch in "data.pkg":  --------
 pkg/generic_advdiff      compiled   and   used ( useGAD                   = T )
 pkg/mom_common           compiled   and   used ( momStepping              = T )
 pkg/mom_vecinv           compiled but not used ( +vectorInvariantMomentum = F )
 pkg/mom_fluxform         compiled   and   used ( & not vectorInvariantMom = T )
 pkg/monitor              compiled   and   used ( monitorFreq > 0.         = T )
 pkg/debug                compiled but not used ( debugMode                = F )
 pkg/rw                   compiled   and   used
 pkg/mdsio                compiled   and   used
(PID.TID 0000.0001)  PACKAGES_BOOT: End of package Summary
(PID.TID 0000.0001) 
(PID.TID 0000.0001)  MNC_READPARMS: opening file 'data.mnc'
(PID.TID 0000.0001)  OPEN_COPY_DATA_FILE: opening file data.mnc
(PID.TID 0000.0001) // =======================================================
(PID.TID 0000.0001) // Parameter file "data.mnc"
(PID.TID 0000.0001) // =======================================================
(PID.TID 0000.0001) ># Example "data.mnc" file
(PID.TID 0000.0001) ># Lines beginning "#" are comments
(PID.TID 0000.0001) > &MNC_01
(PID.TID 0000.0001) ># mnc_echo_gvtypes=.FALSE.,
(PID.TID 0000.0001) >  mnc_use_indir=.TRUE.,
(PID.TID 0000.0001) >  mnc_indir_str='start/',
(PID.TID 0000.0001) >  mnc_use_outdir=.TRUE.,
(PID.TID 0000.0001) >  mnc_outdir_str='mnc_test_',
(PID.TID 0000.0001) >  mnc_outdir_date=.FALSE.,
(PID.TID 0000.0001) >  monitor_mnc=.FALSE.,
(PID.TID 0000.0001) ># snapshot_mnc=.FALSE.,
(PID.TID 0000.0001) ># timeave_mnc=.FALSE.,
(PID.TID 0000.0001) >  pickup_write_mnc=.FALSE.,
(PID.TID 0000.0001) >  pickup_read_mnc=.FALSE.,
(PID.TID 0000.0001) > /
(PID.TID 0000.0001) 
(PID.TID 0000.0001)  MNC_READPARMS: finished reading data.mnc
(PID.TID 0000.0001)  BULKF_READPARMS: opening data.cheapaml
(PID.TID 0000.0001)  OPEN_COPY_DATA_FILE: opening file data.cheapaml
(PID.TID 0000.0001) // =======================================================
(PID.TID 0000.0001) // Parameter file "data.cheapaml"
(PID.TID 0000.0001) // =======================================================
(PID.TID 0000.0001) ># Package CheapAML parameters
(PID.TID 0000.0001) >#--------------------
(PID.TID 0000.0001) > &CHEAPAML_CONST
(PID.TID 0000.0001) >  cheapaml_ntim = 5,
(PID.TID 0000.0001) >  cheapaml_mask_width=4,
(PID.TID 0000.0001) >  cheapaml_h = 1000.,
(PID.TID 0000.0001) > /
(PID.TID 0000.0001) >
(PID.TID 0000.0001) > &CHEAPAML_PARM01
(PID.TID 0000.0001) > /
(PID.TID 0000.0001) >
(PID.TID 0000.0001) > &CHEAPAML_PARM02
(PID.TID 0000.0001) >  useFreshWaterFlux=.TRUE.,
(PID.TID 0000.0001) >  useFluxLimit=.TRUE.,
(PID.TID 0000.0001) >  FluxFormula='COARE3',
(PID.TID 0000.0001) >  useRelativeWind=.TRUE.,
(PID.TID 0000.0001) > /
(PID.TID 0000.0001) 
(PID.TID 0000.0001)  CHEAPAML_READPARMS: read CHEAPAML_CONST
(PID.TID 0000.0001)  CHEAPAML_READPARMS: read CHEAPAML_PARM01
(PID.TID 0000.0001)  CHEAPAML_READPARMS: read CHEAPAML_PARM02
 Caml: ntim     =           5
 Caml: mask_w   =           4
 Caml: h        =   1000.0000000000000     
 Caml: kdiff    =   10000.000000000000     
 Caml: tauRelax =   8640.0000000000000       (s)
 Caml: tRelaxOce=   0.0000000000000000       (s)
 Caml: rhoa     =   1.3000000000000000     
 Caml: cpair    =   1004.0000000000000     
 Caml: stefan   =  5.66999999999999982E-008
 Caml: cheapamlXperiodic  = F
 Caml: cheapamlYperiodic  = F
 Caml: useFreshWaterFlux  = T
 Caml: useFluxLimit       = T
 Caml: useStressOption    = F
 Caml: useCheapTracer     = F
 Caml: useTimeVarBLH      = F
 Caml: useClouds          = F
 Caml: useDlongwave       = F
 Caml: usePrecip          = F
(PID.TID 0000.0001)  DIAGNOSTICS_READPARMS: opening data.diagnostics
(PID.TID 0000.0001)  OPEN_COPY_DATA_FILE: opening file data.diagnostics
(PID.TID 0000.0001) // =======================================================
(PID.TID 0000.0001) // Parameter file "data.diagnostics"
(PID.TID 0000.0001) // =======================================================
(PID.TID 0000.0001) ># Diagnostic Package Choices
(PID.TID 0000.0001) >#--------------------
(PID.TID 0000.0001) >#  dumpAtLast (logical): always write output at the end of simulation (default=F)
(PID.TID 0000.0001) >#  diag_mnc   (logical): write to NetCDF files (default=useMNC)
(PID.TID 0000.0001) >#--for each output-stream:
(PID.TID 0000.0001) >#  fileName(n) : prefix of the output file name (max 80c long) for outp.stream n
(PID.TID 0000.0001) >#  frequency(n):< 0 : write snap-shot output every |frequency| seconds
(PID.TID 0000.0001) >#               > 0 : write time-average output every frequency seconds
(PID.TID 0000.0001) >#  timePhase(n)     : write at time = timePhase + multiple of |frequency|
(PID.TID 0000.0001) >#    averagingFreq  : frequency (in s) for periodic averaging interval
(PID.TID 0000.0001) >#    averagingPhase : phase     (in s) for periodic averaging interval
(PID.TID 0000.0001) >#    repeatCycle    : number of averaging intervals in 1 cycle
(PID.TID 0000.0001) >#  levels(:,n) : list of levels to write to file (Notes: declared as REAL)
(PID.TID 0000.0001) >#                when this entry is missing, select all common levels of this list
(PID.TID 0000.0001) >#  fields(:,n) : list of selected diagnostics fields (8.c) in outp.stream n
(PID.TID 0000.0001) >#                (see "available_diagnostics.log" file for the full list of diags)
(PID.TID 0000.0001) >#  missing_value(n) : missing value for real-type fields in output file "n"
(PID.TID 0000.0001) >#  fileFlags(n)     : specific code (8c string) for output file "n"
(PID.TID 0000.0001) >#--------------------
(PID.TID 0000.0001) > &DIAGNOSTICS_LIST
(PID.TID 0000.0001) ># diag_mnc     = .FALSE.,
(PID.TID 0000.0001) ># dumpAtLast   = .TRUE.,
(PID.TID 0000.0001) >#--
(PID.TID 0000.0001) >  fields(1:6,1)  = 'CH_TAIR ','CH_QAIR ','CH_QNET ','CH_EmP  ','CH_Uwind','CH_Vwind',
(PID.TID 0000.0001) >   fileName(1) = 'cheapAML',
(PID.TID 0000.0001) >  frequency(1) = 14400.,
(PID.TID 0000.0001) > /
(PID.TID 0000.0001) >
(PID.TID 0000.0001) >#--------------------
(PID.TID 0000.0001) ># Parameter for Diagnostics of per level statistics:
(PID.TID 0000.0001) >#--------------------
(PID.TID 0000.0001) >#  diagSt_mnc (logical): write stat-diags to NetCDF files (default=diag_mnc)
(PID.TID 0000.0001) >#  diagSt_regMaskFile : file containing the region-mask to read-in
(PID.TID 0000.0001) >#  nSetRegMskFile   : number of region-mask sets within the region-mask file
(PID.TID 0000.0001) >#  set_regMask(i)   : region-mask set-index that identifies the region "i"
(PID.TID 0000.0001) >#  val_regMask(i)   : region "i" identifier value in the region mask
(PID.TID 0000.0001) >#--for each output-stream:
(PID.TID 0000.0001) >#  stat_fName(n) : prefix of the output file name (max 80c long) for outp.stream n
(PID.TID 0000.0001) >#  stat_freq(n):< 0 : write snap-shot output every |stat_freq| seconds
(PID.TID 0000.0001) >#               > 0 : write time-average output every stat_freq seconds
(PID.TID 0000.0001) >#  stat_phase(n)    : write at time = stat_phase + multiple of |stat_freq|
(PID.TID 0000.0001) >#  stat_region(:,n) : list of "regions" (default: 1 region only=global)
(PID.TID 0000.0001) >#  stat_fields(:,n) : list of selected diagnostics fields (8.c) in outp.stream n
(PID.TID 0000.0001) >#                (see "available_diagnostics.log" file for the full list of diags)
(PID.TID 0000.0001) >#--------------------
(PID.TID 0000.0001) > &DIAG_STATIS_PARMS
(PID.TID 0000.0001) >#---
(PID.TID 0000.0001) >#stat_fields(1:5,1) = 'ETAN    ','UVEL    ','VVEL    ','WVEL    ',
(PID.TID 0000.0001) >#                     'THETA   ',
(PID.TID 0000.0001) ># stat_fName(1) = 'dynStDiag',
(PID.TID 0000.0001) >#  stat_freq(1) = 1800.,
(PID.TID 0000.0001) > /
(PID.TID 0000.0001) 
(PID.TID 0000.0001) S/R DIAGNOSTICS_READPARMS, read namelist "diagnostics_list": start
(PID.TID 0000.0001) S/R DIAGNOSTICS_READPARMS, read namelist "diagnostics_list": OK
(PID.TID 0000.0001) S/R DIAGNOSTICS_READPARMS, read namelist "DIAG_STATIS_PARMS": start
(PID.TID 0000.0001) S/R DIAGNOSTICS_READPARMS, read namelist "DIAG_STATIS_PARMS": OK
(PID.TID 0000.0001)  DIAGNOSTICS_READPARMS: global parameter summary:
(PID.TID 0000.0001)  dumpAtLast = /* always write time-ave diags at the end */
(PID.TID 0000.0001)                   F
(PID.TID 0000.0001)     ;
(PID.TID 0000.0001)  diag_mnc =   /* write NetCDF output files */
(PID.TID 0000.0001)                   T
(PID.TID 0000.0001)     ;
(PID.TID 0000.0001)  useMissingValue = /* put MissingValue where mask = 0 */
(PID.TID 0000.0001)                   F
(PID.TID 0000.0001)     ;
(PID.TID 0000.0001)  diagCG_maxIters = /* max number of iters in diag_cg2d */
(PID.TID 0000.0001)                     150
(PID.TID 0000.0001)     ;
(PID.TID 0000.0001)  diagCG_resTarget = /* residual target for diag_cg2d */
(PID.TID 0000.0001)                 1.000000000000000E-07
(PID.TID 0000.0001)     ;
(PID.TID 0000.0001)  diagCG_pcOffDFac = /* preconditioner off-diagonal factor */
(PID.TID 0000.0001)                 9.611687812379854E-01
(PID.TID 0000.0001)     ;
(PID.TID 0000.0001) -----------------------------------------------------
(PID.TID 0000.0001)  DIAGNOSTICS_READPARMS: active diagnostics summary:
(PID.TID 0000.0001) -----------------------------------------------------
(PID.TID 0000.0001) Creating Output Stream: cheapAML
(PID.TID 0000.0001) Output Frequency:      14400.000000 ; Phase:           0.000000
(PID.TID 0000.0001)  Averaging Freq.:      14400.000000 , Phase:           0.000000 , Cycle:   1
(PID.TID 0000.0001)  missing value: -9.990000000000E+02
(PID.TID 0000.0001)  Levels:    will be set later
(PID.TID 0000.0001)  Fields:    CH_TAIR  CH_QAIR  CH_QNET  CH_EmP   CH_Uwind CH_Vwind
(PID.TID 0000.0001) -----------------------------------------------------
(PID.TID 0000.0001)  DIAGNOSTICS_READPARMS: statistics diags. summary:
(PID.TID 0000.0001) -----------------------------------------------------
(PID.TID 0000.0001) 
(PID.TID 0000.0001) SET_PARMS: done
(PID.TID 0000.0001) Enter INI_VERTICAL_GRID: setInterFDr=    T ; setCenterDr=    F
(PID.TID 0000.0001) %MON XC_max                       =   2.4875000000000E+01
(PID.TID 0000.0001) %MON XC_min                       =   1.2500000000000E-01
(PID.TID 0000.0001) %MON XC_mean                      =   1.2500000000000E+01
(PID.TID 0000.0001) %MON XC_sd                        =   7.2165175119305E+00
(PID.TID 0000.0001) %MON XG_max                       =   2.4750000000000E+01
(PID.TID 0000.0001) %MON XG_min                       =   0.0000000000000E+00
(PID.TID 0000.0001) %MON XG_mean                      =   1.2375000000000E+01
(PID.TID 0000.0001) %MON XG_sd                        =   7.2165175119305E+00
(PID.TID 0000.0001) %MON DXC_max                      =   2.4040252850518E+04
(PID.TID 0000.0001) %MON DXC_min                      =   1.5991828426890E+04
(PID.TID 0000.0001) %MON DXC_mean                     =   2.0330001348477E+04
(PID.TID 0000.0001) %MON DXC_sd                       =   2.3583001248505E+03
(PID.TID 0000.0001) %MON DXF_max                      =   2.4040252850518E+04
(PID.TID 0000.0001) %MON DXF_min                      =   1.5991828426890E+04
(PID.TID 0000.0001) %MON DXF_mean                     =   2.0330001348477E+04
(PID.TID 0000.0001) %MON DXF_sd                       =   2.3583001248505E+03
(PID.TID 0000.0001) %MON DXG_max                      =   2.4070629062858E+04
(PID.TID 0000.0001) %MON DXG_min                      =   1.6041385996405E+04
(PID.TID 0000.0001) %MON DXG_mean                     =   2.0370595138284E+04
(PID.TID 0000.0001) %MON DXG_sd                       =   2.3527187837990E+03
(PID.TID 0000.0001) %MON DXV_max                      =   2.4070629062858E+04
(PID.TID 0000.0001) %MON DXV_min                      =   1.6041385996405E+04
(PID.TID 0000.0001) %MON DXV_mean                     =   2.0370595138284E+04
(PID.TID 0000.0001) %MON DXV_sd                       =   2.3527187837990E+03
(PID.TID 0000.0001) %MON YC_max                       =   5.4875000000000E+01
(PID.TID 0000.0001) %MON YC_min                       =   3.0125000000000E+01
(PID.TID 0000.0001) %MON YC_mean                      =   4.2500000000000E+01
(PID.TID 0000.0001) %MON YC_sd                        =   7.2165175119305E+00
(PID.TID 0000.0001) %MON YG_max                       =   5.4750000000000E+01
(PID.TID 0000.0001) %MON YG_min                       =   3.0000000000000E+01
(PID.TID 0000.0001) %MON YG_mean                      =   4.2375000000000E+01
(PID.TID 0000.0001) %MON YG_sd                        =   7.2165175119305E+00
(PID.TID 0000.0001) %MON DYC_max                      =   2.7794368338010E+04
(PID.TID 0000.0001) %MON DYC_min                      =   2.7794368338010E+04
(PID.TID 0000.0001) %MON DYC_mean                     =   2.7794368338010E+04
(PID.TID 0000.0001) %MON DYC_sd                       =   6.6211214289069E-10
(PID.TID 0000.0001) %MON DYF_max                      =   2.7794368338010E+04
(PID.TID 0000.0001) %MON DYF_min                      =   2.7794368338010E+04
(PID.TID 0000.0001) %MON DYF_mean                     =   2.7794368338010E+04
(PID.TID 0000.0001) %MON DYF_sd                       =   6.6211214289069E-10
(PID.TID 0000.0001) %MON DYG_max                      =   2.7794368338010E+04
(PID.TID 0000.0001) %MON DYG_min                      =   2.7794368338010E+04
(PID.TID 0000.0001) %MON DYG_mean                     =   2.7794368338010E+04
(PID.TID 0000.0001) %MON DYG_sd                       =   6.6211214289069E-10
(PID.TID 0000.0001) %MON DYU_max                      =   2.7794368338010E+04
(PID.TID 0000.0001) %MON DYU_min                      =   2.7794368338010E+04
(PID.TID 0000.0001) %MON DYU_mean                     =   2.7794368338010E+04
(PID.TID 0000.0001) %MON DYU_sd                       =   6.6211214289069E-10
(PID.TID 0000.0001) %MON RA_max                       =   6.6818311261326E+08
(PID.TID 0000.0001) %MON RA_min                       =   4.4448241709847E+08
(PID.TID 0000.0001) %MON RA_mean                      =   5.6505909754457E+08
(PID.TID 0000.0001) %MON RA_sd                        =   6.5547410324550E+07
(PID.TID 0000.0001) %MON RAW_max                      =   6.6818311261326E+08
(PID.TID 0000.0001) %MON RAW_min                      =   4.4448241709847E+08
(PID.TID 0000.0001) %MON RAW_mean                     =   5.6505909754457E+08
(PID.TID 0000.0001) %MON RAW_sd                       =   6.5547410324550E+07
(PID.TID 0000.0001) %MON RAS_max                      =   6.6902739957799E+08
(PID.TID 0000.0001) %MON RAS_min                      =   4.4585983734684E+08
(PID.TID 0000.0001) %MON RAS_mean                     =   5.6618737539566E+08
(PID.TID 0000.0001) %MON RAS_sd                       =   6.5392280598603E+07
(PID.TID 0000.0001) %MON RAZ_max                      =   6.6902739957799E+08
(PID.TID 0000.0001) %MON RAZ_min                      =   4.4585983734684E+08
(PID.TID 0000.0001) %MON RAZ_mean                     =   5.6618737539566E+08
(PID.TID 0000.0001) %MON RAZ_sd                       =   6.5392280598603E+07
(PID.TID 0000.0001) %MON AngleCS_max                  =   1.0000000000000E+00
(PID.TID 0000.0001) %MON AngleCS_min                  =   1.0000000000000E+00
(PID.TID 0000.0001) %MON AngleCS_mean                 =   1.0000000000000E+00
(PID.TID 0000.0001) %MON AngleCS_sd                   =   0.0000000000000E+00
(PID.TID 0000.0001) %MON AngleSN_max                  =   0.0000000000000E+00
(PID.TID 0000.0001) %MON AngleSN_min                  =   0.0000000000000E+00
(PID.TID 0000.0001) %MON AngleSN_mean                 =   0.0000000000000E+00
(PID.TID 0000.0001) %MON AngleSN_sd                   =   0.0000000000000E+00
(PID.TID 0000.0001)  MDS_READ_FIELD: opening global file: topog.box
(PID.TID 0000.0001) // =======================================================
(PID.TID 0000.0001) // Field Model R_low (ini_masks_etc)
(PID.TID 0000.0001) // CMIN =         -1.000000000000000E+03
(PID.TID 0000.0001) // CMAX =         -1.000000000000000E+03
(PID.TID 0000.0001) // CINT =          0.000000000000000E+00
(PID.TID 0000.0001) // SYMBOLS (CMIN->CMAX): -abcdefghijklmnopqrstuvwxyz+
(PID.TID 0000.0001) //                  0.0: .
(PID.TID 0000.0001) // RANGE I (Lo:Hi:Step):(    -2:   103:     1)
(PID.TID 0000.0001) // RANGE J (Lo:Hi:Step):(   103:    -2:    -1)
(PID.TID 0000.0001) // RANGE K (Lo:Hi:Step):(   1:   1:   1)
(PID.TID 0000.0001) // =======================================================
(PID.TID 0000.0001) // =======================================================
(PID.TID 0000.0001) // END OF FIELD                                          =
(PID.TID 0000.0001) // =======================================================
(PID.TID 0000.0001) 
(PID.TID 0000.0001) // =======================================================
(PID.TID 0000.0001) // Field Model Ro_surf (ini_masks_etc)
(PID.TID 0000.0001) // CMIN =          1.000000000000000E+32
(PID.TID 0000.0001) // CMAX =         -1.000000000000000E+32
(PID.TID 0000.0001) // CINT =          0.000000000000000E+00
(PID.TID 0000.0001) // SYMBOLS (CMIN->CMAX): -abcdefghijklmnopqrstuvwxyz+
(PID.TID 0000.0001) //                  0.0: .
(PID.TID 0000.0001) // RANGE I (Lo:Hi:Step):(    -2:   103:     1)
(PID.TID 0000.0001) // RANGE J (Lo:Hi:Step):(   103:    -2:    -1)
(PID.TID 0000.0001) // RANGE K (Lo:Hi:Step):(   1:   1:   1)
(PID.TID 0000.0001) // =======================================================
(PID.TID 0000.0001) // =======================================================
(PID.TID 0000.0001) // END OF FIELD                                          =
(PID.TID 0000.0001) // =======================================================
(PID.TID 0000.0001) 
(PID.TID 0000.0001) // =======================================================
(PID.TID 0000.0001) // Field hFacC at iteration          0
(PID.TID 0000.0001) // CMIN =          1.000000000000000E+00
(PID.TID 0000.0001) // CMAX =          1.000000000000000E+00
(PID.TID 0000.0001) // CINT =          0.000000000000000E+00
(PID.TID 0000.0001) // SYMBOLS (CMIN->CMAX): -abcdefghijklmnopqrstuvwxyz+
(PID.TID 0000.0001) //                  0.0: .
(PID.TID 0000.0001) // RANGE I (Lo:Hi:Step):(    -2:   103:     1)
(PID.TID 0000.0001) // RANGE J (Lo:Hi:Step):(   103:    -2:    -1)
(PID.TID 0000.0001) // RANGE K (Lo:Hi:Step):(   1:   1:   1)
(PID.TID 0000.0001) // =======================================================
(PID.TID 0000.0001) // =======================================================
(PID.TID 0000.0001) // END OF FIELD                                          =
(PID.TID 0000.0001) // =======================================================
(PID.TID 0000.0001) 
(PID.TID 0000.0001) // =======================================================
(PID.TID 0000.0001) // Field hFacW at iteration          0
(PID.TID 0000.0001) // CMIN =          1.000000000000000E+00
(PID.TID 0000.0001) // CMAX =          1.000000000000000E+00
(PID.TID 0000.0001) // CINT =          0.000000000000000E+00
(PID.TID 0000.0001) // SYMBOLS (CMIN->CMAX): -abcdefghijklmnopqrstuvwxyz+
(PID.TID 0000.0001) //                  0.0: .
(PID.TID 0000.0001) // RANGE I (Lo:Hi:Step):(    -2:   103:     1)
(PID.TID 0000.0001) // RANGE J (Lo:Hi:Step):(   103:    -2:    -1)
(PID.TID 0000.0001) // RANGE K (Lo:Hi:Step):(   1:   1:   1)
(PID.TID 0000.0001) // =======================================================
(PID.TID 0000.0001) // =======================================================
(PID.TID 0000.0001) // END OF FIELD                                          =
(PID.TID 0000.0001) // =======================================================
(PID.TID 0000.0001) 
(PID.TID 0000.0001) // =======================================================
(PID.TID 0000.0001) // Field hFacS at iteration          0
(PID.TID 0000.0001) // CMIN =          1.000000000000000E+00
(PID.TID 0000.0001) // CMAX =          1.000000000000000E+00
(PID.TID 0000.0001) // CINT =          0.000000000000000E+00
(PID.TID 0000.0001) // SYMBOLS (CMIN->CMAX): -abcdefghijklmnopqrstuvwxyz+
(PID.TID 0000.0001) //                  0.0: .
(PID.TID 0000.0001) // RANGE I (Lo:Hi:Step):(    -2:   103:     1)
(PID.TID 0000.0001) // RANGE J (Lo:Hi:Step):(   103:    -2:    -1)
(PID.TID 0000.0001) // RANGE K (Lo:Hi:Step):(   1:   1:   1)
(PID.TID 0000.0001) // =======================================================
(PID.TID 0000.0001) // =======================================================
(PID.TID 0000.0001) // END OF FIELD                                          =
(PID.TID 0000.0001) // =======================================================
(PID.TID 0000.0001) 
(PID.TID 0000.0001) GAD_INIT_FIXED: GAD_OlMinSize=  2  0  1
(PID.TID 0000.0001) 
(PID.TID 0000.0001) // ===================================
(PID.TID 0000.0001) // GAD parameters :
(PID.TID 0000.0001) // ===================================
(PID.TID 0000.0001) tempAdvScheme =   /* Temp. Horiz.Advection scheme selector */
(PID.TID 0000.0001)                      33
(PID.TID 0000.0001)     ;
(PID.TID 0000.0001) tempVertAdvScheme =   /* Temp. Vert. Advection scheme selector */
(PID.TID 0000.0001)                      33
(PID.TID 0000.0001)     ;
(PID.TID 0000.0001) tempMultiDimAdvec =   /* use Muti-Dim Advec method for Temp */
(PID.TID 0000.0001)                   T
(PID.TID 0000.0001)     ;
(PID.TID 0000.0001) tempSOM_Advection = /* use 2nd Order Moment Advection for Temp */
(PID.TID 0000.0001)                   F
(PID.TID 0000.0001)     ;
(PID.TID 0000.0001) AdamsBashforthGt = /* apply Adams-Bashforth extrapolation on Gt */
(PID.TID 0000.0001)                   F
(PID.TID 0000.0001)     ;
(PID.TID 0000.0001) AdamsBashforth_T = /* apply Adams-Bashforth extrapolation on Temp */
(PID.TID 0000.0001)                   F
(PID.TID 0000.0001)     ;
(PID.TID 0000.0001) saltAdvScheme =   /* Salt. Horiz.advection scheme selector */
(PID.TID 0000.0001)                       2
(PID.TID 0000.0001)     ;
(PID.TID 0000.0001) saltVertAdvScheme =   /* Salt. Vert. Advection scheme selector */
(PID.TID 0000.0001)                       2
(PID.TID 0000.0001)     ;
(PID.TID 0000.0001) saltMultiDimAdvec =   /* use Muti-Dim Advec method for Salt */
(PID.TID 0000.0001)                   F
(PID.TID 0000.0001)     ;
(PID.TID 0000.0001) saltSOM_Advection = /* use 2nd Order Moment Advection for Salt */
(PID.TID 0000.0001)                   F
(PID.TID 0000.0001)     ;
(PID.TID 0000.0001) AdamsBashforthGs = /* apply Adams-Bashforth extrapolation on Gs */
(PID.TID 0000.0001)                   T
(PID.TID 0000.0001)     ;
(PID.TID 0000.0001) AdamsBashforth_S = /* apply Adams-Bashforth extrapolation on Salt */
(PID.TID 0000.0001)                   F
(PID.TID 0000.0001)     ;
(PID.TID 0000.0001) // ===================================
(PID.TID 0000.0001) CHEAPAML_INIT_VARIA: Generate Cheapaml mask
(PID.TID 0000.0001) ------------------------------------------------------------
(PID.TID 0000.0001) DIAGNOSTICS_SET_LEVELS: done
(PID.TID 0000.0001)  Total Nb of available Diagnostics: ndiagt=   201
(PID.TID 0000.0001)  write list of available Diagnostics to file: available_diagnostics.log
(PID.TID 0000.0001) SETDIAG: Allocate  1 x  1 Levels for Diagnostic #   190 CH_TAIR
(PID.TID 0000.0001) SETDIAG: Allocate  1 x  1 Levels for Diagnostic #   192 CH_QAIR
(PID.TID 0000.0001) SETDIAG: Allocate  1 x  1 Levels for Diagnostic #   191 CH_QNET
(PID.TID 0000.0001) SETDIAG: Allocate  1 x  1 Levels for Diagnostic #   193 CH_EmP
(PID.TID 0000.0001) SETDIAG: Allocate  1 x  1 Levels for Diagnostic #   195 CH_Uwind
(PID.TID 0000.0001) SETDIAG: Allocate  1 x  1 Levels for Diagnostic #   196 CH_Vwind
(PID.TID 0000.0001)   space allocated for all diagnostics:       6 levels
(PID.TID 0000.0001)   set mate pointer for diag #   195  CH_Uwind , Parms: UU      L1 , mate:   196
(PID.TID 0000.0001)   set mate pointer for diag #   196  CH_Vwind , Parms: VV      L1 , mate:   195
(PID.TID 0000.0001) DIAGNOSTICS_SET_POINTERS: Set levels for Outp.Stream: cheapAML
(PID.TID 0000.0001)  Levels:       1.
(PID.TID 0000.0001) DIAGNOSTICS_SET_POINTERS: done
(PID.TID 0000.0001) ------------------------------------------------------------
(PID.TID 0000.0001) DIAGSTATS_SET_REGIONS: define no region
(PID.TID 0000.0001) ------------------------------------------------------------
(PID.TID 0000.0001)   space allocated for all stats-diags:       0 levels
(PID.TID 0000.0001) DIAGSTATS_SET_POINTERS: done
(PID.TID 0000.0001) ------------------------------------------------------------
(PID.TID 0000.0001) Empty tile bi,bj=     1     4
(PID.TID 0000.0001) 
(PID.TID 0000.0001) %MON fCori_max                    =   1.1928437363062E-04
(PID.TID 0000.0001) %MON fCori_min                    =   7.3196612432522E-05
(PID.TID 0000.0001) %MON fCori_mean                   =   9.7750068978508E-05
(PID.TID 0000.0001) %MON fCori_sd                     =   1.3496836407130E-05
(PID.TID 0000.0001) %MON fCoriG_max                   =   1.1910102178692E-04
(PID.TID 0000.0001) %MON fCoriG_min                   =   7.2921235169904E-05
(PID.TID 0000.0001) %MON fCoriG_mean                  =   9.7517106737915E-05
(PID.TID 0000.0001) %MON fCoriG_sd                    =   1.3523629015123E-05
(PID.TID 0000.0001) %MON fCoriCos_max                 =   1.2614389435569E-04
(PID.TID 0000.0001) %MON fCoriCos_min                 =   8.3912242029208E-05
(PID.TID 0000.0001) %MON fCoriCos_mean                =   1.0667548125635E-04
(PID.TID 0000.0001) %MON fCoriCos_sd                  =   1.2374460603968E-05
(PID.TID 0000.0001) INI_CG2D: CG2D normalisation factor =  5.8247769686780204E-04
(PID.TID 0000.0001) 
(PID.TID 0000.0001) // =======================================================
(PID.TID 0000.0001) // Model configuration
(PID.TID 0000.0001) // =======================================================
(PID.TID 0000.0001) //
(PID.TID 0000.0001) // "Physical" paramters ( PARM01 in namelist )
(PID.TID 0000.0001) //
(PID.TID 0000.0001) buoyancyRelation = /* Type of relation to get Buoyancy */
(PID.TID 0000.0001)               'OCEANIC'
(PID.TID 0000.0001)     ;
(PID.TID 0000.0001) fluidIsAir   =  /* fluid major constituent is Air */
(PID.TID 0000.0001)                   F
(PID.TID 0000.0001)     ;
(PID.TID 0000.0001) fluidIsWater =  /* fluid major constituent is Water */
(PID.TID 0000.0001)                   T
(PID.TID 0000.0001)     ;
(PID.TID 0000.0001) usingPCoords =  /* use p (or p*) vertical coordinate */
(PID.TID 0000.0001)                   F
(PID.TID 0000.0001)     ;
(PID.TID 0000.0001) usingZCoords =  /* use z (or z*) vertical coordinate */
(PID.TID 0000.0001)                   T
(PID.TID 0000.0001)     ;
(PID.TID 0000.0001) tRef =   /* Reference temperature profile ( oC or K ) */
(PID.TID 0000.0001)                 2.000000000000000E+01       /* K =  1 */
(PID.TID 0000.0001)     ;
(PID.TID 0000.0001) sRef =   /* Reference salinity profile ( psu ) */
(PID.TID 0000.0001)                 3.500000000000000E+01       /* K =  1 */
(PID.TID 0000.0001)     ;
(PID.TID 0000.0001) useStrainTensionVisc= /* Use StrainTension Form of Viscous Operator */
(PID.TID 0000.0001)                   F
(PID.TID 0000.0001)     ;
(PID.TID 0000.0001) useVariableVisc = /* Use variable horizontal viscosity */
(PID.TID 0000.0001)                   F
(PID.TID 0000.0001)     ;
(PID.TID 0000.0001) useHarmonicVisc = /* Use harmonic horizontal viscosity */
(PID.TID 0000.0001)                   T
(PID.TID 0000.0001)     ;
(PID.TID 0000.0001) useBiharmonicVisc= /* Use biharmonic horiz.  viscosity */
(PID.TID 0000.0001)                   F
(PID.TID 0000.0001)     ;
(PID.TID 0000.0001) useSmag3D = /* Use isotropic 3-D Smagorinsky viscosity */
(PID.TID 0000.0001)                   F
(PID.TID 0000.0001)     ;
(PID.TID 0000.0001) viscAh  =   /* Lateral harmonic viscosity ( m^2/s ) */
(PID.TID 0000.0001)                 5.000000000000000E+02
(PID.TID 0000.0001)     ;
(PID.TID 0000.0001) viscA4  =   /* Lateral biharmonic viscosity ( m^4/s ) */
(PID.TID 0000.0001)                 0.000000000000000E+00
(PID.TID 0000.0001)     ;
(PID.TID 0000.0001) no_slip_sides =  /* Viscous BCs: No-slip sides */
(PID.TID 0000.0001)                   T
(PID.TID 0000.0001)     ;
(PID.TID 0000.0001) sideDragFactor = /* side-drag scaling factor (non-dim) */
(PID.TID 0000.0001)                 2.000000000000000E+00
(PID.TID 0000.0001)     ;
(PID.TID 0000.0001) viscArNr = /* vertical profile of vertical viscosity ( m^2/s )*/
(PID.TID 0000.0001)                 0.000000000000000E+00       /* K =  1 */
(PID.TID 0000.0001)     ;
(PID.TID 0000.0001) no_slip_bottom =  /* Viscous BCs: No-slip bottom */
(PID.TID 0000.0001)                   T
(PID.TID 0000.0001)     ;
(PID.TID 0000.0001) bottomVisc_pCell = /* Partial-cell in bottom Visc. BC */
(PID.TID 0000.0001)                   F
(PID.TID 0000.0001)     ;
(PID.TID 0000.0001) bottomDragLinear = /* linear bottom-drag coefficient ( m/s ) */
(PID.TID 0000.0001)                 0.000000000000000E+00
(PID.TID 0000.0001)     ;
(PID.TID 0000.0001) bottomDragQuadratic = /* quadratic bottom-drag coefficient (-) */
(PID.TID 0000.0001)                 0.000000000000000E+00
(PID.TID 0000.0001)     ;
(PID.TID 0000.0001) selectBotDragQuadr = /* select quadratic bottom drag options */
(PID.TID 0000.0001)                      -1
(PID.TID 0000.0001)     ;
(PID.TID 0000.0001) diffKhT =   /* Laplacian diffusion of heat laterally ( m^2/s ) */
(PID.TID 0000.0001)                 2.000000000000000E+02
(PID.TID 0000.0001)     ;
(PID.TID 0000.0001) diffK4T =   /* Biharmonic diffusion of heat laterally ( m^4/s ) */
(PID.TID 0000.0001)                 0.000000000000000E+00
(PID.TID 0000.0001)     ;
(PID.TID 0000.0001) diffKhS =   /* Laplacian diffusion of salt laterally ( m^2/s ) */
(PID.TID 0000.0001)                 2.000000000000000E+02
(PID.TID 0000.0001)     ;
(PID.TID 0000.0001) diffK4S =   /* Biharmonic diffusion of salt laterally ( m^4/s ) */
(PID.TID 0000.0001)                 0.000000000000000E+00
(PID.TID 0000.0001)     ;
(PID.TID 0000.0001) diffKrNrT = /* vertical profile of vertical diffusion of Temp ( m^2/s )*/
(PID.TID 0000.0001)                 0.000000000000000E+00       /* K =  1 */
(PID.TID 0000.0001)     ;
(PID.TID 0000.0001) diffKrNrS = /* vertical profile of vertical diffusion of Salt ( m^2/s )*/
(PID.TID 0000.0001)                 0.000000000000000E+00       /* K =  1 */
(PID.TID 0000.0001)     ;
(PID.TID 0000.0001) diffKrBL79surf = /* Surface diffusion for Bryan and Lewis 79 ( m^2/s ) */
(PID.TID 0000.0001)                 0.000000000000000E+00
(PID.TID 0000.0001)     ;
(PID.TID 0000.0001) diffKrBL79deep = /* Deep diffusion for Bryan and Lewis 1979 ( m^2/s ) */
(PID.TID 0000.0001)                 0.000000000000000E+00
(PID.TID 0000.0001)     ;
(PID.TID 0000.0001) diffKrBL79scl = /* Depth scale for Bryan and Lewis 1979 ( m ) */
(PID.TID 0000.0001)                 2.000000000000000E+02
(PID.TID 0000.0001)     ;
(PID.TID 0000.0001) diffKrBL79Ho = /* Turning depth for Bryan and Lewis 1979 ( m ) */
(PID.TID 0000.0001)                -2.000000000000000E+03
(PID.TID 0000.0001)     ;
(PID.TID 0000.0001) ivdc_kappa = /* Implicit Vertical Diffusivity for Convection ( m^2/s) */
(PID.TID 0000.0001)                 0.000000000000000E+00
(PID.TID 0000.0001)     ;
(PID.TID 0000.0001) hMixCriteria=  /* Criteria for mixed-layer diagnostic */
(PID.TID 0000.0001)                -8.000000000000000E-01
(PID.TID 0000.0001)     ;
(PID.TID 0000.0001) dRhoSmall =  /* Parameter for mixed-layer diagnostic */
(PID.TID 0000.0001)                 1.000000000000000E-06
(PID.TID 0000.0001)     ;
(PID.TID 0000.0001) hMixSmooth=  /* Smoothing parameter for mixed-layer diagnostic */
(PID.TID 0000.0001)                 0.000000000000000E+00
(PID.TID 0000.0001)     ;
(PID.TID 0000.0001) eosType =  /* Type of Equation of State */
(PID.TID 0000.0001)               'LINEAR'
(PID.TID 0000.0001)     ;
(PID.TID 0000.0001) tAlpha = /* Linear EOS thermal expansion coefficient ( 1/oC ) */
(PID.TID 0000.0001)                 2.000000000000000E-04
(PID.TID 0000.0001)     ;
(PID.TID 0000.0001) sBeta  = /* Linear EOS haline contraction coefficient ( 1/psu ) */
(PID.TID 0000.0001)                 7.400000000000000E-04
(PID.TID 0000.0001)     ;
(PID.TID 0000.0001) rhoNil    = /* Reference density for Linear EOS ( kg/m^3 ) */
(PID.TID 0000.0001)                 9.998000000000000E+02
(PID.TID 0000.0001)     ;
(PID.TID 0000.0001) selectP_inEOS_Zc = /* select pressure to use in EOS (0,1,2,3) */
(PID.TID 0000.0001)                       0
(PID.TID 0000.0001)     0= -g*rhoConst*z ; 1= pRef (from tRef,sRef); 2= Hyd P ; 3= Hyd+NH P
(PID.TID 0000.0001)     ;
(PID.TID 0000.0001) HeatCapacity_Cp =  /* Specific heat capacity ( J/kg/K ) */
(PID.TID 0000.0001)                 3.994000000000000E+03
(PID.TID 0000.0001)     ;
(PID.TID 0000.0001) celsius2K = /* 0 degree Celsius converted to Kelvin ( K ) */
(PID.TID 0000.0001)                 2.731600000000000E+02
(PID.TID 0000.0001)     ;
(PID.TID 0000.0001) rhoConst  = /* Reference density (Boussinesq)  ( kg/m^3 ) */
(PID.TID 0000.0001)                 9.998000000000000E+02
(PID.TID 0000.0001)     ;
(PID.TID 0000.0001) rhoFacC = /* normalized Reference density @ cell-Center (-) */
(PID.TID 0000.0001)                 1.000000000000000E+00       /* K =  1 */
(PID.TID 0000.0001)     ;
(PID.TID 0000.0001) rhoFacF = /* normalized Reference density @ W-Interface (-) */
(PID.TID 0000.0001)     2 @  1.000000000000000E+00              /* K =  1:  2 */
(PID.TID 0000.0001)     ;
(PID.TID 0000.0001) rhoConstFresh = /* Fresh-water reference density ( kg/m^3 ) */
(PID.TID 0000.0001)                 9.998000000000000E+02
(PID.TID 0000.0001)     ;
(PID.TID 0000.0001) gravity =   /* Gravitational acceleration ( m/s^2 ) */
(PID.TID 0000.0001)                 9.810000000000000E+00
(PID.TID 0000.0001)     ;
(PID.TID 0000.0001) gBaro =   /* Barotropic gravity ( m/s^2 ) */
(PID.TID 0000.0001)                 9.810000000000000E+00
(PID.TID 0000.0001)     ;
(PID.TID 0000.0001) gravFacC = /* gravity factor (vs surf.) @ cell-Center (-) */
(PID.TID 0000.0001)                 1.000000000000000E+00       /* K =  1 */
(PID.TID 0000.0001)     ;
(PID.TID 0000.0001) gravFacF = /* gravity factor (vs surf.) @ W-Interface (-) */
(PID.TID 0000.0001)     2 @  1.000000000000000E+00              /* K =  1:  2 */
(PID.TID 0000.0001)     ;
(PID.TID 0000.0001) rotationPeriod =   /* Rotation Period ( s ) */
(PID.TID 0000.0001)                 8.616400000000000E+04
(PID.TID 0000.0001)     ;
(PID.TID 0000.0001) omega =   /* Angular velocity ( rad/s ) */
(PID.TID 0000.0001)                 7.292123516990375E-05
(PID.TID 0000.0001)     ;
(PID.TID 0000.0001) f0 =   /* Reference coriolis parameter ( 1/s ) */
(PID.TID 0000.0001)                 1.000000000000000E-04
(PID.TID 0000.0001)     ;
(PID.TID 0000.0001) beta =   /* Beta ( 1/(m.s) ) */
(PID.TID 0000.0001)                 9.999999999999999E-12
(PID.TID 0000.0001)     ;
(PID.TID 0000.0001) fPrime =   /* Second coriolis parameter ( 1/s ) */
(PID.TID 0000.0001)                 0.000000000000000E+00
(PID.TID 0000.0001)     ;
(PID.TID 0000.0001) rigidLid =   /* Rigid lid on/off flag */
(PID.TID 0000.0001)                   F
(PID.TID 0000.0001)     ;
(PID.TID 0000.0001) implicitFreeSurface =   /* Implicit free surface on/off flag */
(PID.TID 0000.0001)                   T
(PID.TID 0000.0001)     ;
(PID.TID 0000.0001) freeSurfFac =   /* Implicit free surface factor */
(PID.TID 0000.0001)                 1.000000000000000E+00
(PID.TID 0000.0001)     ;
(PID.TID 0000.0001) implicSurfPress =  /* Surface Pressure implicit factor (0-1)*/
(PID.TID 0000.0001)                 1.000000000000000E+00
(PID.TID 0000.0001)     ;
(PID.TID 0000.0001) implicDiv2DFlow =  /* Barot. Flow Div. implicit factor (0-1)*/
(PID.TID 0000.0001)                 1.000000000000000E+00
(PID.TID 0000.0001)     ;
(PID.TID 0000.0001) uniformLin_PhiSurf = /* use uniform Bo_surf on/off flag*/
(PID.TID 0000.0001)                   T
(PID.TID 0000.0001)     ;
(PID.TID 0000.0001) uniformFreeSurfLev = /* free-surface level-index is uniform */
(PID.TID 0000.0001)                   T
(PID.TID 0000.0001)     ;
(PID.TID 0000.0001) hFacMin =   /* minimum partial cell factor (hFac) */
(PID.TID 0000.0001)                 1.000000000000000E+00
(PID.TID 0000.0001)     ;
(PID.TID 0000.0001) hFacMinDr = /* minimum partial cell thickness ( m) */
(PID.TID 0000.0001)                 0.000000000000000E+00
(PID.TID 0000.0001)     ;
(PID.TID 0000.0001) exactConserv =  /* Exact Volume Conservation on/off flag*/
(PID.TID 0000.0001)                   F
(PID.TID 0000.0001)     ;
(PID.TID 0000.0001) linFSConserveTr = /* Tracer correction for Lin Free Surface on/off flag*/
(PID.TID 0000.0001)                   F
(PID.TID 0000.0001)     ;
(PID.TID 0000.0001) nonlinFreeSurf = /* Non-linear Free Surf. options (-1,0,1,2,3)*/
(PID.TID 0000.0001)                       0
(PID.TID 0000.0001)      -1,0= Off ; 1,2,3= On, 2=+rescale gU,gV, 3=+update cg2d solv.
(PID.TID 0000.0001)     ;
(PID.TID 0000.0001) hFacInf =   /* lower threshold for hFac (nonlinFreeSurf only)*/
(PID.TID 0000.0001)                 2.000000000000000E-01
(PID.TID 0000.0001)     ;
(PID.TID 0000.0001) hFacSup =   /* upper threshold for hFac (nonlinFreeSurf only)*/
(PID.TID 0000.0001)                 2.000000000000000E+00
(PID.TID 0000.0001)     ;
(PID.TID 0000.0001) select_rStar = /* r* Vertical coord. options (=0 r coord.; >0 uses r*)*/
(PID.TID 0000.0001)                       0
(PID.TID 0000.0001)     ;
(PID.TID 0000.0001) useRealFreshWaterFlux = /* Real Fresh Water Flux on/off flag*/
(PID.TID 0000.0001)                   F
(PID.TID 0000.0001)     ;
(PID.TID 0000.0001) temp_EvPrRn = /* Temp. of Evap/Prec/R (UNSET=use local T)(oC)*/
(PID.TID 0000.0001)                 1.234567000000000E+05
(PID.TID 0000.0001)     ;
(PID.TID 0000.0001) salt_EvPrRn = /* Salin. of Evap/Prec/R (UNSET=use local S)(psu)*/
(PID.TID 0000.0001)                 0.000000000000000E+00
(PID.TID 0000.0001)     ;
(PID.TID 0000.0001) selectAddFluid = /* option for mass source/sink of fluid (=0: off) */
(PID.TID 0000.0001)                       0
(PID.TID 0000.0001)     ;
(PID.TID 0000.0001) temp_addMass = /* Temp. of addMass array (UNSET=use local T)(oC)*/
(PID.TID 0000.0001)                 1.234567000000000E+05
(PID.TID 0000.0001)     ;
(PID.TID 0000.0001) salt_addMass = /* Salin. of addMass array (UNSET=use local S)(psu)*/
(PID.TID 0000.0001)                 0.000000000000000E+00
(PID.TID 0000.0001)     ;
(PID.TID 0000.0001) convertFW2Salt = /* convert F.W. Flux to Salt Flux (-1=use local S)(psu)*/
(PID.TID 0000.0001)                 3.500000000000000E+01
(PID.TID 0000.0001)     ;
(PID.TID 0000.0001) use3Dsolver = /* use 3-D pressure solver on/off flag */
(PID.TID 0000.0001)                   F
(PID.TID 0000.0001)     ;
(PID.TID 0000.0001) nonHydrostatic =  /* Non-Hydrostatic on/off flag */
(PID.TID 0000.0001)                   F
(PID.TID 0000.0001)     ;
(PID.TID 0000.0001) nh_Am2 = /* Non-Hydrostatic terms scaling factor */
(PID.TID 0000.0001)                 1.000000000000000E+00
(PID.TID 0000.0001)     ;
(PID.TID 0000.0001) implicitNHPress = /* Non-Hyd Pressure implicit factor (0-1)*/
(PID.TID 0000.0001)                 1.000000000000000E+00
(PID.TID 0000.0001)     ;
(PID.TID 0000.0001) selectNHfreeSurf = /* Non-Hyd (free-)Surface option */
(PID.TID 0000.0001)                       0
(PID.TID 0000.0001)     ;
(PID.TID 0000.0001) quasiHydrostatic = /* Quasi-Hydrostatic on/off flag */
(PID.TID 0000.0001)                   F
(PID.TID 0000.0001)     ;
(PID.TID 0000.0001) calc_wVelocity = /* vertical velocity calculation on/off flag */
(PID.TID 0000.0001)                   T
(PID.TID 0000.0001)     ;
(PID.TID 0000.0001) momStepping =  /* Momentum equation on/off flag */
(PID.TID 0000.0001)                   T
(PID.TID 0000.0001)     ;
(PID.TID 0000.0001) vectorInvariantMomentum= /* Vector-Invariant Momentum on/off */
(PID.TID 0000.0001)                   F
(PID.TID 0000.0001)     ;
(PID.TID 0000.0001) momAdvection =  /* Momentum advection on/off flag */
(PID.TID 0000.0001)                   T
(PID.TID 0000.0001)     ;
(PID.TID 0000.0001) momViscosity =  /* Momentum viscosity on/off flag */
(PID.TID 0000.0001)                   T
(PID.TID 0000.0001)     ;
(PID.TID 0000.0001) momImplVertAdv= /* Momentum implicit vert. advection on/off*/
(PID.TID 0000.0001)                   F
(PID.TID 0000.0001)     ;
(PID.TID 0000.0001) implicitViscosity = /* Implicit viscosity on/off flag */
(PID.TID 0000.0001)                   F
(PID.TID 0000.0001)     ;
(PID.TID 0000.0001) selectImplicitDrag= /* Implicit bot Drag options (0,1,2)*/
(PID.TID 0000.0001)                       0
(PID.TID 0000.0001)     0= Expl. ; 1= Impl. on provis. Vel ; 2= Fully Impl (with surf.P)
(PID.TID 0000.0001)     ;
(PID.TID 0000.0001) metricTerms =  /* metric-Terms on/off flag */
(PID.TID 0000.0001)                   T
(PID.TID 0000.0001)     ;
(PID.TID 0000.0001) useNHMTerms = /* Non-Hydrostatic Metric-Terms on/off */
(PID.TID 0000.0001)                   F
(PID.TID 0000.0001)     ;
(PID.TID 0000.0001) selectCoriMap = /* Coriolis Map options (0,1,2,3)*/
(PID.TID 0000.0001)                       2
(PID.TID 0000.0001)     0= f-Plane ; 1= Beta-Plane ; 2= Spherical ; 3= read from file
(PID.TID 0000.0001)     ;
(PID.TID 0000.0001) use3dCoriolis = /* 3-D Coriolis on/off flag */
(PID.TID 0000.0001)                   F
(PID.TID 0000.0001)     ;
(PID.TID 0000.0001) useCoriolis =  /* Coriolis on/off flag */
(PID.TID 0000.0001)                   T
(PID.TID 0000.0001)     ;
(PID.TID 0000.0001) useCDscheme =  /* CD scheme on/off flag */
(PID.TID 0000.0001)                   F
(PID.TID 0000.0001)     ;
(PID.TID 0000.0001) useEnergyConservingCoriolis= /* Flx-Form Coriolis scheme flag */
(PID.TID 0000.0001)                   F
(PID.TID 0000.0001)     ;
(PID.TID 0000.0001) useJamartWetPoints= /* Coriolis WetPoints method flag */
(PID.TID 0000.0001)                   F
(PID.TID 0000.0001)     ;
(PID.TID 0000.0001) useJamartMomAdv= /* V.I Non-linear terms Jamart flag */
(PID.TID 0000.0001)                   F
(PID.TID 0000.0001)     ;
(PID.TID 0000.0001) useAbsVorticity= /* V.I Works with f+zeta in Coriolis */
(PID.TID 0000.0001)                   F
(PID.TID 0000.0001)     ;
(PID.TID 0000.0001) selectVortScheme= /* V.I Scheme selector for Vorticity-Term */
(PID.TID 0000.0001)               123456789
(PID.TID 0000.0001)    = 0 : enstrophy (Shallow-Water Eq.) conserving scheme by Sadourny, JAS 75
(PID.TID 0000.0001)    = 1 : same as 0 with modified hFac
(PID.TID 0000.0001)    = 2 : energy conserving scheme (used by Sadourny in JAS 75 paper)
(PID.TID 0000.0001)    = 3 : energy (general) and enstrophy (2D, nonDiv.) conserving scheme
(PID.TID 0000.0001)          from Sadourny (Burridge & Haseler, ECMWF Rep.4, 1977)
(PID.TID 0000.0001)     ;
(PID.TID 0000.0001) upwindVorticity= /* V.I Upwind bias vorticity flag */
(PID.TID 0000.0001)                   F
(PID.TID 0000.0001)     ;
(PID.TID 0000.0001) highOrderVorticity= /* V.I High order vort. advect. flag */
(PID.TID 0000.0001)                   F
(PID.TID 0000.0001)     ;
(PID.TID 0000.0001) upwindShear= /* V.I Upwind vertical Shear advection flag */
(PID.TID 0000.0001)                   F
(PID.TID 0000.0001)     ;
(PID.TID 0000.0001) selectKEscheme= /* V.I Kinetic Energy scheme selector */
(PID.TID 0000.0001)                       0
(PID.TID 0000.0001)     ;
(PID.TID 0000.0001) momForcing =  /* Momentum forcing on/off flag */
(PID.TID 0000.0001)                   T
(PID.TID 0000.0001)     ;
(PID.TID 0000.0001) momTidalForcing = /* Momentum Tidal forcing on/off flag */
(PID.TID 0000.0001)                   T
(PID.TID 0000.0001)     ;
(PID.TID 0000.0001) momPressureForcing =  /* Momentum pressure term on/off flag */
(PID.TID 0000.0001)                   T
(PID.TID 0000.0001)     ;
(PID.TID 0000.0001) implicitIntGravWave= /* Implicit Internal Gravity Wave flag */
(PID.TID 0000.0001)                   F
(PID.TID 0000.0001)     ;
(PID.TID 0000.0001) staggerTimeStep =    /* Stagger time stepping on/off flag */
(PID.TID 0000.0001)                   T
(PID.TID 0000.0001)     ;
(PID.TID 0000.0001) doResetHFactors = /* reset thickness factors @ each time-step */
(PID.TID 0000.0001)                   F
(PID.TID 0000.0001)     ;
(PID.TID 0000.0001) multiDimAdvection =  /* enable/disable Multi-Dim Advection */
(PID.TID 0000.0001)                   T
(PID.TID 0000.0001)     ;
(PID.TID 0000.0001) useMultiDimAdvec =   /* Multi-Dim Advection is/is-not used */
(PID.TID 0000.0001)                   T
(PID.TID 0000.0001)     ;
(PID.TID 0000.0001) implicitDiffusion = /* Implicit Diffusion on/off flag */
(PID.TID 0000.0001)                   F
(PID.TID 0000.0001)     ;
(PID.TID 0000.0001) tempStepping =  /* Temperature equation on/off flag */
(PID.TID 0000.0001)                   T
(PID.TID 0000.0001)     ;
(PID.TID 0000.0001) tempAdvection = /* Temperature advection on/off flag */
(PID.TID 0000.0001)                   T
(PID.TID 0000.0001)     ;
(PID.TID 0000.0001) tempImplVertAdv = /* Temp. implicit vert. advection on/off */
(PID.TID 0000.0001)                   F
(PID.TID 0000.0001)     ;
(PID.TID 0000.0001) tempForcing  =  /* Temperature forcing on/off flag */
(PID.TID 0000.0001)                   T
(PID.TID 0000.0001)     ;
(PID.TID 0000.0001) doThetaClimRelax = /* apply SST relaxation on/off flag */
(PID.TID 0000.0001)                   F
(PID.TID 0000.0001)     ;
(PID.TID 0000.0001) tempIsActiveTr = /* Temp. is a dynamically Active Tracer */
(PID.TID 0000.0001)                   T
(PID.TID 0000.0001)     ;
(PID.TID 0000.0001) saltStepping =  /* Salinity equation on/off flag */
(PID.TID 0000.0001)                   T
(PID.TID 0000.0001)     ;
(PID.TID 0000.0001) saltAdvection = /* Salinity advection on/off flag */
(PID.TID 0000.0001)                   T
(PID.TID 0000.0001)     ;
(PID.TID 0000.0001) saltImplVertAdv = /* Sali. implicit vert. advection on/off */
(PID.TID 0000.0001)                   F
(PID.TID 0000.0001)     ;
(PID.TID 0000.0001) saltForcing  =  /* Salinity forcing on/off flag */
(PID.TID 0000.0001)                   T
(PID.TID 0000.0001)     ;
(PID.TID 0000.0001) doSaltClimRelax = /* apply SSS relaxation on/off flag */
(PID.TID 0000.0001)                   F
(PID.TID 0000.0001)     ;
(PID.TID 0000.0001) saltIsActiveTr = /* Salt  is a dynamically Active Tracer */
(PID.TID 0000.0001)                   T
(PID.TID 0000.0001)     ;
(PID.TID 0000.0001)  readBinaryPrec = /* Precision used for reading binary files */
(PID.TID 0000.0001)                      64
(PID.TID 0000.0001)     ;
(PID.TID 0000.0001) writeBinaryPrec = /* Precision used for writing binary files */
(PID.TID 0000.0001)                      32
(PID.TID 0000.0001)     ;
(PID.TID 0000.0001)  rwSuffixType =   /* select format of mds file suffix */
(PID.TID 0000.0001)                       0
(PID.TID 0000.0001)    = 0 : myIter (I10.10) ;   = 1 : 100*myTime (100th sec) ;
(PID.TID 0000.0001)    = 2 : myTime (seconds);   = 3 : myTime/360 (10th of hr);
(PID.TID 0000.0001)    = 4 : myTime/3600 (hours)
(PID.TID 0000.0001)     ;
(PID.TID 0000.0001)  globalFiles = /* write "global" (=not per tile) files */
(PID.TID 0000.0001)                   F
(PID.TID 0000.0001)     ;
(PID.TID 0000.0001)  useSingleCpuIO = /* only master MPI process does I/O */
(PID.TID 0000.0001)                   F
(PID.TID 0000.0001)     ;
(PID.TID 0000.0001)  useSingleCpuInput = /* only master process reads input */
(PID.TID 0000.0001)                   F
(PID.TID 0000.0001)     ;
(PID.TID 0000.0001) /* debLev[*]  : level of debug & auxiliary message printing */
(PID.TID 0000.0001) debLevZero =  0 ; /* level of disabled aux. msg printing */
(PID.TID 0000.0001)    debLevA =  1 ; /* level of minimum  aux. msg printing */
(PID.TID 0000.0001)    debLevB =  2 ; /* level of low aux. print (report read-file opening)*/
(PID.TID 0000.0001)    debLevC =  3 ; /* level of moderate debug prt (most pkgs debug msg) */
(PID.TID 0000.0001)    debLevD =  4 ; /* level of enhanced debug prt (add DEBUG_STATS prt) */
(PID.TID 0000.0001)    debLevE =  5 ; /* level of extensive debug printing */
(PID.TID 0000.0001) debugLevel =  /* select debug printing level */
(PID.TID 0000.0001)                       2
(PID.TID 0000.0001)     ;
(PID.TID 0000.0001)  plotLevel =  /* select PLOT_FIELD printing level */
(PID.TID 0000.0001)                       2
(PID.TID 0000.0001)     ;
(PID.TID 0000.0001) //
(PID.TID 0000.0001) // Elliptic solver(s) paramters ( PARM02 in namelist )
(PID.TID 0000.0001) //
(PID.TID 0000.0001) cg2dMaxIters =   /* Upper limit on 2d con. grad iterations  */
(PID.TID 0000.0001)                     150
(PID.TID 0000.0001)     ;
(PID.TID 0000.0001) cg2dChkResFreq =   /* 2d con. grad convergence test frequency */
(PID.TID 0000.0001)                       1
(PID.TID 0000.0001)     ;
(PID.TID 0000.0001) cg2dUseMinResSol= /* use cg2d last-iter(=0) / min-resid.(=1) solution */
(PID.TID 0000.0001)                       0
(PID.TID 0000.0001)     ;
(PID.TID 0000.0001) cg2dTargetResidual =   /* 2d con. grad target residual  */
(PID.TID 0000.0001)                 1.000000000000000E-07
(PID.TID 0000.0001)     ;
(PID.TID 0000.0001) cg2dTargetResWunit =   /* CG2d target residual [W units] */
(PID.TID 0000.0001)                -1.000000000000000E+00
(PID.TID 0000.0001)     ;
(PID.TID 0000.0001) cg2dPreCondFreq =   /* Freq. for updating cg2d preconditioner */
(PID.TID 0000.0001)                       1
(PID.TID 0000.0001)     ;
(PID.TID 0000.0001) useSRCGSolver =  /* use single reduction CG solver(s) */
(PID.TID 0000.0001)                   F
(PID.TID 0000.0001)     ;
(PID.TID 0000.0001) printResidualFreq = /* Freq. for printing CG residual */
(PID.TID 0000.0001)                       0
(PID.TID 0000.0001)     ;
(PID.TID 0000.0001) //
(PID.TID 0000.0001) // Time stepping paramters ( PARM03 in namelist )
(PID.TID 0000.0001) //
(PID.TID 0000.0001) deltaTMom =   /* Momentum equation timestep ( s ) */
(PID.TID 0000.0001)                 1.200000000000000E+03
(PID.TID 0000.0001)     ;
(PID.TID 0000.0001) deltaTFreeSurf = /* FreeSurface equation timestep ( s ) */
(PID.TID 0000.0001)                 1.200000000000000E+03
(PID.TID 0000.0001)     ;
(PID.TID 0000.0001) dTtracerLev =  /* Tracer equation timestep ( s ) */
(PID.TID 0000.0001)                 1.200000000000000E+03       /* K =  1 */
(PID.TID 0000.0001)     ;
(PID.TID 0000.0001) deltaTClock  =   /* Model clock timestep ( s ) */
(PID.TID 0000.0001)                 1.200000000000000E+03
(PID.TID 0000.0001)     ;
(PID.TID 0000.0001) cAdjFreq =   /* Convective adjustment interval ( s ) */
(PID.TID 0000.0001)                 0.000000000000000E+00
(PID.TID 0000.0001)     ;
(PID.TID 0000.0001) momForcingOutAB = /* =1: take Momentum Forcing out of Adams-Bash. stepping */
(PID.TID 0000.0001)                       0
(PID.TID 0000.0001)     ;
(PID.TID 0000.0001) tracForcingOutAB = /* =1: take T,S,pTr Forcing out of Adams-Bash. stepping */
(PID.TID 0000.0001)                       0
(PID.TID 0000.0001)     ;
(PID.TID 0000.0001) momDissip_In_AB = /* put Dissipation Tendency in Adams-Bash. stepping */
(PID.TID 0000.0001)                   T
(PID.TID 0000.0001)     ;
(PID.TID 0000.0001) doAB_onGtGs = /* apply AB on Tendencies (rather than on T,S)*/
(PID.TID 0000.0001)                   T
(PID.TID 0000.0001)     ;
(PID.TID 0000.0001) abEps =   /* Adams-Bashforth-2 stabilizing weight */
(PID.TID 0000.0001)                 1.000000000000000E-02
(PID.TID 0000.0001)     ;
(PID.TID 0000.0001) applyExchUV_early = /* Apply EXCH to U,V earlier in time-step */
(PID.TID 0000.0001)                   F
(PID.TID 0000.0001)     ;
(PID.TID 0000.0001) pickupStrictlyMatch= /* stop if pickup do not strictly match */
(PID.TID 0000.0001)                   T
(PID.TID 0000.0001)     ;
(PID.TID 0000.0001) nIter0   =   /* Run starting timestep number */
(PID.TID 0000.0001)                       0
(PID.TID 0000.0001)     ;
(PID.TID 0000.0001) nTimeSteps = /* Number of timesteps */
(PID.TID 0000.0001)                      24
(PID.TID 0000.0001)     ;
(PID.TID 0000.0001) nEndIter =   /* Run ending timestep number */
(PID.TID 0000.0001)                      24
(PID.TID 0000.0001)     ;
(PID.TID 0000.0001) baseTime =   /* Model base time ( s ) */
(PID.TID 0000.0001)                 0.000000000000000E+00
(PID.TID 0000.0001)     ;
(PID.TID 0000.0001) startTime =  /* Run start time ( s ) */
(PID.TID 0000.0001)                 0.000000000000000E+00
(PID.TID 0000.0001)     ;
(PID.TID 0000.0001) endTime  =   /* Integration ending time ( s ) */
(PID.TID 0000.0001)                 2.880000000000000E+04
(PID.TID 0000.0001)     ;
(PID.TID 0000.0001) pChkPtFreq = /* Permanent restart/pickup file interval ( s ) */
(PID.TID 0000.0001)                 0.000000000000000E+00
(PID.TID 0000.0001)     ;
(PID.TID 0000.0001) chkPtFreq  = /* Rolling restart/pickup file interval ( s ) */
(PID.TID 0000.0001)                 0.000000000000000E+00
(PID.TID 0000.0001)     ;
(PID.TID 0000.0001) pickup_write_mdsio =   /* Model IO flag. */
(PID.TID 0000.0001)                   T
(PID.TID 0000.0001)     ;
(PID.TID 0000.0001) pickup_read_mdsio =   /* Model IO flag. */
(PID.TID 0000.0001)                   T
(PID.TID 0000.0001)     ;
(PID.TID 0000.0001) pickup_write_mnc =   /* Model IO flag. */
(PID.TID 0000.0001)                   F
(PID.TID 0000.0001)     ;
(PID.TID 0000.0001) pickup_read_mnc =   /* Model IO flag. */
(PID.TID 0000.0001)                   F
(PID.TID 0000.0001)     ;
(PID.TID 0000.0001) writePickupAtEnd =   /* Model IO flag. */
(PID.TID 0000.0001)                   T
(PID.TID 0000.0001)     ;
(PID.TID 0000.0001) dumpFreq =   /* Model state write out interval ( s ). */
(PID.TID 0000.0001)                 1.440000000000000E+04
(PID.TID 0000.0001)     ;
(PID.TID 0000.0001) dumpInitAndLast= /* write out Initial & Last iter. model state */
(PID.TID 0000.0001)                   T
(PID.TID 0000.0001)     ;
(PID.TID 0000.0001) snapshot_mdsio =   /* Model IO flag. */
(PID.TID 0000.0001)                   F
(PID.TID 0000.0001)     ;
(PID.TID 0000.0001) snapshot_mnc =   /* Model IO flag. */
(PID.TID 0000.0001)                   T
(PID.TID 0000.0001)     ;
(PID.TID 0000.0001) monitorFreq =   /* Monitor output interval ( s ). */
(PID.TID 0000.0001)                 3.600000000000000E+03
(PID.TID 0000.0001)     ;
(PID.TID 0000.0001) monitorSelect = /* select group of variables to monitor */
(PID.TID 0000.0001)                       3
(PID.TID 0000.0001)     ;
(PID.TID 0000.0001) monitor_stdio =   /* Model IO flag. */
(PID.TID 0000.0001)                   T
(PID.TID 0000.0001)     ;
(PID.TID 0000.0001) monitor_mnc =   /* Model IO flag. */
(PID.TID 0000.0001)                   F
(PID.TID 0000.0001)     ;
(PID.TID 0000.0001) externForcingPeriod =   /* forcing period (s) */
(PID.TID 0000.0001)                 0.000000000000000E+00
(PID.TID 0000.0001)     ;
(PID.TID 0000.0001) externForcingCycle =   /* period of the cyle (s). */
(PID.TID 0000.0001)                 0.000000000000000E+00
(PID.TID 0000.0001)     ;
(PID.TID 0000.0001) tauThetaClimRelax =   /* relaxation time scale (s) */
(PID.TID 0000.0001)                 0.000000000000000E+00
(PID.TID 0000.0001)     ;
(PID.TID 0000.0001) tauSaltClimRelax =   /* relaxation time scale (s) */
(PID.TID 0000.0001)                 0.000000000000000E+00
(PID.TID 0000.0001)     ;
(PID.TID 0000.0001) latBandClimRelax =   /* max. Lat. where relaxation */
(PID.TID 0000.0001)                 1.800000000000000E+02
(PID.TID 0000.0001)     ;
(PID.TID 0000.0001) //
(PID.TID 0000.0001) // Gridding paramters ( PARM04 in namelist )
(PID.TID 0000.0001) //
(PID.TID 0000.0001) usingCartesianGrid = /* Cartesian coordinates flag ( True/False ) */
(PID.TID 0000.0001)                   F
(PID.TID 0000.0001)     ;
(PID.TID 0000.0001) usingCylindricalGrid = /* Cylindrical coordinates flag ( True/False ) */
(PID.TID 0000.0001)                   F
(PID.TID 0000.0001)     ;
(PID.TID 0000.0001) usingSphericalPolarGrid = /* Spherical coordinates flag ( True/False ) */
(PID.TID 0000.0001)                   T
(PID.TID 0000.0001)     ;
(PID.TID 0000.0001) usingCurvilinearGrid = /* Curvilinear coordinates flag ( True/False ) */
(PID.TID 0000.0001)                   F
(PID.TID 0000.0001)     ;
(PID.TID 0000.0001) useMin4hFacEdges = /* set hFacW,S as minimum of adjacent hFacC factor */
(PID.TID 0000.0001)                   F
(PID.TID 0000.0001)     ;
(PID.TID 0000.0001) interViscAr_pCell = /* account for partial-cell in interior vert. viscosity */
(PID.TID 0000.0001)                   F
(PID.TID 0000.0001)     ;
(PID.TID 0000.0001) interDiffKr_pCell = /* account for partial-cell in interior vert. diffusion */
(PID.TID 0000.0001)                   F
(PID.TID 0000.0001)     ;
(PID.TID 0000.0001) pCellMix_select = /* option to enhance mixing near surface & bottom */
(PID.TID 0000.0001)                       0
(PID.TID 0000.0001)     ;
(PID.TID 0000.0001) selectSigmaCoord = /* Hybrid-Sigma Vert. Coordinate option */
(PID.TID 0000.0001)                       0
(PID.TID 0000.0001)     ;
(PID.TID 0000.0001) rSigmaBnd = /* r/sigma transition ( units of r ==  m ) */
(PID.TID 0000.0001)                 1.234567000000000E+05
(PID.TID 0000.0001)     ;
(PID.TID 0000.0001) rkSign =   /* index orientation relative to vertical coordinate */
(PID.TID 0000.0001)                -1.000000000000000E+00
(PID.TID 0000.0001)     ;
(PID.TID 0000.0001) gravitySign = /* gravity orientation relative to vertical coordinate */
(PID.TID 0000.0001)                -1.000000000000000E+00
(PID.TID 0000.0001)     ;
(PID.TID 0000.0001) seaLev_Z =  /* reference height of sea-level [m] */
(PID.TID 0000.0001)                 0.000000000000000E+00
(PID.TID 0000.0001)     ;
(PID.TID 0000.0001) top_Pres =  /* reference pressure at the top [Pa] */
(PID.TID 0000.0001)                 0.000000000000000E+00
(PID.TID 0000.0001)     ;
(PID.TID 0000.0001) mass2rUnit = /* convert mass per unit area [kg/m2] to r-units [m] */
(PID.TID 0000.0001)                 1.000200040008002E-03
(PID.TID 0000.0001)     ;
(PID.TID 0000.0001) rUnit2mass = /* convert r-units [m] to mass per unit area [kg/m2] */
(PID.TID 0000.0001)                 9.998000000000000E+02
(PID.TID 0000.0001)     ;
(PID.TID 0000.0001) drC =   /* C spacing ( units of r ) */
(PID.TID 0000.0001)     2 @  5.000000000000000E+02              /* K =  1:  2 */
(PID.TID 0000.0001)     ;
(PID.TID 0000.0001) drF =   /* W spacing ( units of r ) */
(PID.TID 0000.0001)                 1.000000000000000E+03       /* K =  1 */
(PID.TID 0000.0001)     ;
(PID.TID 0000.0001) delX = /* U spacing ( m - cartesian, degrees - spherical ) */
(PID.TID 0000.0001)   100 @  2.500000000000000E-01              /* I =  1:100 */
(PID.TID 0000.0001)     ;
(PID.TID 0000.0001) delY = /* V spacing ( m - cartesian, degrees - spherical ) */
(PID.TID 0000.0001)   100 @  2.500000000000000E-01              /* J =  1:100 */
(PID.TID 0000.0001)     ;
(PID.TID 0000.0001) xgOrigin = /* X-axis origin of West  edge (cartesian: m, lat-lon: deg) */
(PID.TID 0000.0001)                 0.000000000000000E+00
(PID.TID 0000.0001)     ;
(PID.TID 0000.0001) ygOrigin = /* Y-axis origin of South edge (cartesian: m, lat-lon: deg) */
(PID.TID 0000.0001)                 3.000000000000000E+01
(PID.TID 0000.0001)     ;
(PID.TID 0000.0001) rSphere =  /* Radius ( ignored - cartesian, m - spherical ) */
(PID.TID 0000.0001)                 6.370000000000000E+06
(PID.TID 0000.0001)     ;
(PID.TID 0000.0001) deepAtmosphere = /* Deep/Shallow Atmosphere flag (True/False) */
(PID.TID 0000.0001)                   F
(PID.TID 0000.0001)     ;
(PID.TID 0000.0001) xC =  /* xC(:,1,:,1) : P-point X coord ( deg. or m if cartesian) */
(PID.TID 0000.0001)                 1.250000000000000E-01,      /* I =  1 */
(PID.TID 0000.0001)                 3.750000000000000E-01,      /* I =  2 */
(PID.TID 0000.0001)                 6.250000000000000E-01,      /* I =  3 */
(PID.TID 0000.0001)      . . .
(PID.TID 0000.0001)                 5.625000000000000E+00,      /* I = 23 */
(PID.TID 0000.0001)                 5.875000000000000E+00,      /* I = 24 */
(PID.TID 0000.0001)                 6.125000000000000E+00,      /* I = 25 */
(PID.TID 0000.0001)                 6.375000000000000E+00,      /* I = 26 */
(PID.TID 0000.0001)                 6.625000000000000E+00,      /* I = 27 */
(PID.TID 0000.0001)                 6.875000000000000E+00,      /* I = 28 */
(PID.TID 0000.0001)      . . .
(PID.TID 0000.0001)                 1.187500000000000E+01,      /* I = 48 */
(PID.TID 0000.0001)                 1.212500000000000E+01,      /* I = 49 */
(PID.TID 0000.0001)                 1.237500000000000E+01,      /* I = 50 */
(PID.TID 0000.0001)                 1.262500000000000E+01,      /* I = 51 */
(PID.TID 0000.0001)                 1.287500000000000E+01,      /* I = 52 */
(PID.TID 0000.0001)                 1.312500000000000E+01,      /* I = 53 */
(PID.TID 0000.0001)      . . .
(PID.TID 0000.0001)                 1.812500000000000E+01,      /* I = 73 */
(PID.TID 0000.0001)                 1.837500000000000E+01,      /* I = 74 */
(PID.TID 0000.0001)                 1.862500000000000E+01,      /* I = 75 */
(PID.TID 0000.0001)                 1.887500000000000E+01,      /* I = 76 */
(PID.TID 0000.0001)                 1.912500000000000E+01,      /* I = 77 */
(PID.TID 0000.0001)                 1.937500000000000E+01,      /* I = 78 */
(PID.TID 0000.0001)      . . .
(PID.TID 0000.0001)                 2.437500000000000E+01,      /* I = 98 */
(PID.TID 0000.0001)                 2.462500000000000E+01,      /* I = 99 */
(PID.TID 0000.0001)                 2.487500000000000E+01       /* I =100 */
(PID.TID 0000.0001)     ;
(PID.TID 0000.0001) yC =  /* yC(1,:,1,:) : P-point Y coord ( deg. or m if cartesian) */
(PID.TID 0000.0001)                 3.012500000000000E+01,      /* J =  1 */
(PID.TID 0000.0001)                 3.037500000000000E+01,      /* J =  2 */
(PID.TID 0000.0001)                 3.062500000000000E+01,      /* J =  3 */
(PID.TID 0000.0001)      . . .
(PID.TID 0000.0001)                 3.562500000000000E+01,      /* J = 23 */
(PID.TID 0000.0001)                 3.587500000000000E+01,      /* J = 24 */
(PID.TID 0000.0001)                 3.612500000000000E+01,      /* J = 25 */
(PID.TID 0000.0001)                 3.637500000000000E+01,      /* J = 26 */
(PID.TID 0000.0001)                 3.662500000000000E+01,      /* J = 27 */
(PID.TID 0000.0001)                 3.687500000000000E+01,      /* J = 28 */
(PID.TID 0000.0001)      . . .
(PID.TID 0000.0001)                 4.187500000000000E+01,      /* J = 48 */
(PID.TID 0000.0001)                 4.212500000000000E+01,      /* J = 49 */
(PID.TID 0000.0001)                 4.237500000000000E+01,      /* J = 50 */
(PID.TID 0000.0001)                 4.262500000000000E+01,      /* J = 51 */
(PID.TID 0000.0001)                 4.287500000000000E+01,      /* J = 52 */
(PID.TID 0000.0001)                 4.312500000000000E+01,      /* J = 53 */
(PID.TID 0000.0001)      . . .
(PID.TID 0000.0001)                 4.812500000000000E+01,      /* J = 73 */
(PID.TID 0000.0001)                 4.837500000000000E+01,      /* J = 74 */
(PID.TID 0000.0001)                 4.862500000000000E+01,      /* J = 75 */
(PID.TID 0000.0001)                 4.887500000000000E+01,      /* J = 76 */
(PID.TID 0000.0001)                 4.912500000000000E+01,      /* J = 77 */
(PID.TID 0000.0001)                 4.937500000000000E+01,      /* J = 78 */
(PID.TID 0000.0001)      . . .
(PID.TID 0000.0001)                 5.437500000000000E+01,      /* J = 98 */
(PID.TID 0000.0001)                 5.462500000000000E+01,      /* J = 99 */
(PID.TID 0000.0001)                 5.487500000000000E+01       /* J =100 */
(PID.TID 0000.0001)     ;
(PID.TID 0000.0001) rcoord = /* P-point R coordinate (  units of r ) */
(PID.TID 0000.0001)                -5.000000000000000E+02       /* K =  1 */
(PID.TID 0000.0001)     ;
(PID.TID 0000.0001) rF =   /* W-Interf. R coordinate (  units of r ) */
(PID.TID 0000.0001)                 0.000000000000000E+00,      /* K =  1 */
(PID.TID 0000.0001)                -1.000000000000000E+03       /* K =  2 */
(PID.TID 0000.0001)     ;
(PID.TID 0000.0001) deepFacC = /* deep-model grid factor @ cell-Center (-) */
(PID.TID 0000.0001)                 1.000000000000000E+00       /* K =  1 */
(PID.TID 0000.0001)     ;
(PID.TID 0000.0001) deepFacF = /* deep-model grid factor @ W-Interface (-) */
(PID.TID 0000.0001)     2 @  1.000000000000000E+00              /* K =  1:  2 */
(PID.TID 0000.0001)     ;
(PID.TID 0000.0001) rVel2wUnit = /* convert units: rVel -> wSpeed (=1 if z-coord)*/
(PID.TID 0000.0001)     2 @  1.000000000000000E+00              /* K =  1:  2 */
(PID.TID 0000.0001)     ;
(PID.TID 0000.0001) wUnit2rVel = /* convert units: wSpeed -> rVel (=1 if z-coord)*/
(PID.TID 0000.0001)     2 @  1.000000000000000E+00              /* K =  1:  2 */
(PID.TID 0000.0001)     ;
(PID.TID 0000.0001) dBdrRef = /* Vertical grad. of reference buoyancy [(m/s/r)^2] */
(PID.TID 0000.0001)                 0.000000000000000E+00       /* K =  1 */
(PID.TID 0000.0001)     ;
(PID.TID 0000.0001) rotateGrid = /* use rotated grid ( True/False ) */
(PID.TID 0000.0001)                   F
(PID.TID 0000.0001)     ;
(PID.TID 0000.0001) phiEuler = /* Euler angle, rotation about original z-coordinate [rad] */
(PID.TID 0000.0001)                 0.000000000000000E+00
(PID.TID 0000.0001)     ;
(PID.TID 0000.0001) thetaEuler = /* Euler angle, rotation about new x-coordinate [rad] */
(PID.TID 0000.0001)                 0.000000000000000E+00
(PID.TID 0000.0001)     ;
(PID.TID 0000.0001) psiEuler = /* Euler angle, rotation about new z-coordinate [rad] */
(PID.TID 0000.0001)                 0.000000000000000E+00
(PID.TID 0000.0001)     ;
(PID.TID 0000.0001) dxF =  /* dxF(:,1,:,1) ( units: m ) */
(PID.TID 0000.0001)   100 @  2.404025285051817E+04              /* I =  1:100 */
(PID.TID 0000.0001)     ;
(PID.TID 0000.0001) dxF =  /* dxF(1,:,1,:) ( units: m ) */
(PID.TID 0000.0001)                 2.404025285051817E+04,      /* J =  1 */
(PID.TID 0000.0001)                 2.397915730173338E+04,      /* J =  2 */
(PID.TID 0000.0001)                 2.391760522435877E+04,      /* J =  3 */
(PID.TID 0000.0001)      . . .
(PID.TID 0000.0001)                 2.259256015386935E+04,      /* J = 23 */
(PID.TID 0000.0001)                 2.252170485848710E+04,      /* J = 24 */
(PID.TID 0000.0001)                 2.245042078230868E+04,      /* J = 25 */
(PID.TID 0000.0001)                 2.237870928248015E+04,      /* J = 26 */
(PID.TID 0000.0001)                 2.230657172428511E+04,      /* J = 27 */
(PID.TID 0000.0001)                 2.223400948111865E+04,      /* J = 28 */
(PID.TID 0000.0001)      . . .
(PID.TID 0000.0001)                 2.069576649803291E+04,      /* J = 48 */
(PID.TID 0000.0001)                 2.061461720595564E+04,      /* J = 49 */
(PID.TID 0000.0001)                 2.053307544128210E+04,      /* J = 50 */
(PID.TID 0000.0001)                 2.045114275644995E+04,      /* J = 51 */
(PID.TID 0000.0001)                 2.036882071133940E+04,      /* J = 52 */
(PID.TID 0000.0001)                 2.028611087324353E+04,      /* J = 53 */
(PID.TID 0000.0001)      . . .
(PID.TID 0000.0001)                 1.855295556960817E+04,      /* J = 73 */
(PID.TID 0000.0001)                 1.846247692872708E+04,      /* J = 74 */
(PID.TID 0000.0001)                 1.837164678889836E+04,      /* J = 75 */
(PID.TID 0000.0001)                 1.828046687939695E+04,      /* J = 76 */
(PID.TID 0000.0001)                 1.818893893615687E+04,      /* J = 77 */
(PID.TID 0000.0001)                 1.809706470173824E+04,      /* J = 78 */
(PID.TID 0000.0001)      . . .
(PID.TID 0000.0001)                 1.618959965541925E+04,      /* J = 98 */
(PID.TID 0000.0001)                 1.609086721461336E+04,      /* J = 99 */
(PID.TID 0000.0001)                 1.599182842689019E+04       /* J =100 */
(PID.TID 0000.0001)     ;
(PID.TID 0000.0001) dyF =  /* dyF(:,1,:,1) ( units: m ) */
(PID.TID 0000.0001)   100 @  2.779436833800970E+04              /* I =  1:100 */
(PID.TID 0000.0001)     ;
(PID.TID 0000.0001) dyF =  /* dyF(1,:,1,:) ( units: m ) */
(PID.TID 0000.0001)   100 @  2.779436833800970E+04              /* J =  1:100 */
(PID.TID 0000.0001)     ;
(PID.TID 0000.0001) dxG =  /* dxG(:,1,:,1) ( units: m ) */
(PID.TID 0000.0001)   100 @  2.407062906285827E+04              /* I =  1:100 */
(PID.TID 0000.0001)     ;
(PID.TID 0000.0001) dxG =  /* dxG(1,:,1,:) ( units: m ) */
(PID.TID 0000.0001)                 2.407062906285827E+04,      /* J =  1 */
(PID.TID 0000.0001)                 2.400976221510167E+04,      /* J =  2 */
(PID.TID 0000.0001)                 2.394843825608182E+04,      /* J =  3 */
(PID.TID 0000.0001)      . . .
(PID.TID 0000.0001)                 2.262782658688523E+04,      /* J = 23 */
(PID.TID 0000.0001)                 2.255718618828079E+04,      /* J = 24 */
(PID.TID 0000.0001)                 2.248611633336681E+04,      /* J = 25 */
(PID.TID 0000.0001)                 2.241461837521088E+04,      /* J = 26 */
(PID.TID 0000.0001)                 2.234269367503106E+04,      /* J = 27 */
(PID.TID 0000.0001)                 2.227034360216997E+04,      /* J = 28 */
(PID.TID 0000.0001)      . . .
(PID.TID 0000.0001)                 2.073619348375353E+04,      /* J = 48 */
(PID.TID 0000.0001)                 2.065524100780463E+04,      /* J = 49 */
(PID.TID 0000.0001)                 2.057389528584083E+04,      /* J = 50 */
(PID.TID 0000.0001)                 2.049215786656742E+04,      /* J = 51 */
(PID.TID 0000.0001)                 2.041003030614704E+04,      /* J = 52 */
(PID.TID 0000.0001)                 2.032751416817006E+04,      /* J = 53 */
(PID.TID 0000.0001)      . . .
(PID.TID 0000.0001)                 1.859806253937388E+04,      /* J = 73 */
(PID.TID 0000.0001)                 1.850776029435474E+04,      /* J = 74 */
(PID.TID 0000.0001)                 1.841710568825795E+04,      /* J = 75 */
(PID.TID 0000.0001)                 1.832610044701655E+04,      /* J = 76 */
(PID.TID 0000.0001)                 1.823474630323914E+04,      /* J = 77 */
(PID.TID 0000.0001)                 1.814304499617694E+04,      /* J = 78 */
(PID.TID 0000.0001)      . . .
(PID.TID 0000.0001)                 1.623885040808586E+04,      /* J = 98 */
(PID.TID 0000.0001)                 1.614027184600079E+04,      /* J = 99 */
(PID.TID 0000.0001)                 1.604138599640548E+04       /* J =100 */
(PID.TID 0000.0001)     ;
(PID.TID 0000.0001) dyG =  /* dyG(:,1,:,1) ( units: m ) */
(PID.TID 0000.0001)   100 @  2.779436833800970E+04              /* I =  1:100 */
(PID.TID 0000.0001)     ;
(PID.TID 0000.0001) dyG =  /* dyG(1,:,1,:) ( units: m ) */
(PID.TID 0000.0001)   100 @  2.779436833800970E+04              /* J =  1:100 */
(PID.TID 0000.0001)     ;
(PID.TID 0000.0001) dxC =  /* dxC(:,1,:,1) ( units: m ) */
(PID.TID 0000.0001)   100 @  2.404025285051817E+04              /* I =  1:100 */
(PID.TID 0000.0001)     ;
(PID.TID 0000.0001) dxC =  /* dxC(1,:,1,:) ( units: m ) */
(PID.TID 0000.0001)                 2.404025285051817E+04,      /* J =  1 */
(PID.TID 0000.0001)                 2.397915730173338E+04,      /* J =  2 */
(PID.TID 0000.0001)                 2.391760522435877E+04,      /* J =  3 */
(PID.TID 0000.0001)      . . .
(PID.TID 0000.0001)                 2.259256015386935E+04,      /* J = 23 */
(PID.TID 0000.0001)                 2.252170485848710E+04,      /* J = 24 */
(PID.TID 0000.0001)                 2.245042078230868E+04,      /* J = 25 */
(PID.TID 0000.0001)                 2.237870928248015E+04,      /* J = 26 */
(PID.TID 0000.0001)                 2.230657172428511E+04,      /* J = 27 */
(PID.TID 0000.0001)                 2.223400948111865E+04,      /* J = 28 */
(PID.TID 0000.0001)      . . .
(PID.TID 0000.0001)                 2.069576649803291E+04,      /* J = 48 */
(PID.TID 0000.0001)                 2.061461720595564E+04,      /* J = 49 */
(PID.TID 0000.0001)                 2.053307544128210E+04,      /* J = 50 */
(PID.TID 0000.0001)                 2.045114275644995E+04,      /* J = 51 */
(PID.TID 0000.0001)                 2.036882071133940E+04,      /* J = 52 */
(PID.TID 0000.0001)                 2.028611087324353E+04,      /* J = 53 */
(PID.TID 0000.0001)      . . .
(PID.TID 0000.0001)                 1.855295556960817E+04,      /* J = 73 */
(PID.TID 0000.0001)                 1.846247692872708E+04,      /* J = 74 */
(PID.TID 0000.0001)                 1.837164678889836E+04,      /* J = 75 */
(PID.TID 0000.0001)                 1.828046687939695E+04,      /* J = 76 */
(PID.TID 0000.0001)                 1.818893893615687E+04,      /* J = 77 */
(PID.TID 0000.0001)                 1.809706470173824E+04,      /* J = 78 */
(PID.TID 0000.0001)      . . .
(PID.TID 0000.0001)                 1.618959965541925E+04,      /* J = 98 */
(PID.TID 0000.0001)                 1.609086721461336E+04,      /* J = 99 */
(PID.TID 0000.0001)                 1.599182842689019E+04       /* J =100 */
(PID.TID 0000.0001)     ;
(PID.TID 0000.0001) dyC =  /* dyC(:,1,:,1) ( units: m ) */
(PID.TID 0000.0001)   100 @  2.779436833800970E+04              /* I =  1:100 */
(PID.TID 0000.0001)     ;
(PID.TID 0000.0001) dyC =  /* dyC(1,:,1,:) ( units: m ) */
(PID.TID 0000.0001)   100 @  2.779436833800970E+04              /* J =  1:100 */
(PID.TID 0000.0001)     ;
(PID.TID 0000.0001) dxV =  /* dxV(:,1,:,1) ( units: m ) */
(PID.TID 0000.0001)   100 @  2.407062906285827E+04              /* I =  1:100 */
(PID.TID 0000.0001)     ;
(PID.TID 0000.0001) dxV =  /* dxV(1,:,1,:) ( units: m ) */
(PID.TID 0000.0001)                 2.407062906285827E+04,      /* J =  1 */
(PID.TID 0000.0001)                 2.400976221510167E+04,      /* J =  2 */
(PID.TID 0000.0001)                 2.394843825608182E+04,      /* J =  3 */
(PID.TID 0000.0001)      . . .
(PID.TID 0000.0001)                 2.262782658688523E+04,      /* J = 23 */
(PID.TID 0000.0001)                 2.255718618828079E+04,      /* J = 24 */
(PID.TID 0000.0001)                 2.248611633336681E+04,      /* J = 25 */
(PID.TID 0000.0001)                 2.241461837521088E+04,      /* J = 26 */
(PID.TID 0000.0001)                 2.234269367503106E+04,      /* J = 27 */
(PID.TID 0000.0001)                 2.227034360216997E+04,      /* J = 28 */
(PID.TID 0000.0001)      . . .
(PID.TID 0000.0001)                 2.073619348375353E+04,      /* J = 48 */
(PID.TID 0000.0001)                 2.065524100780463E+04,      /* J = 49 */
(PID.TID 0000.0001)                 2.057389528584083E+04,      /* J = 50 */
(PID.TID 0000.0001)                 2.049215786656742E+04,      /* J = 51 */
(PID.TID 0000.0001)                 2.041003030614704E+04,      /* J = 52 */
(PID.TID 0000.0001)                 2.032751416817006E+04,      /* J = 53 */
(PID.TID 0000.0001)      . . .
(PID.TID 0000.0001)                 1.859806253937388E+04,      /* J = 73 */
(PID.TID 0000.0001)                 1.850776029435474E+04,      /* J = 74 */
(PID.TID 0000.0001)                 1.841710568825795E+04,      /* J = 75 */
(PID.TID 0000.0001)                 1.832610044701655E+04,      /* J = 76 */
(PID.TID 0000.0001)                 1.823474630323914E+04,      /* J = 77 */
(PID.TID 0000.0001)                 1.814304499617694E+04,      /* J = 78 */
(PID.TID 0000.0001)      . . .
(PID.TID 0000.0001)                 1.623885040808586E+04,      /* J = 98 */
(PID.TID 0000.0001)                 1.614027184600079E+04,      /* J = 99 */
(PID.TID 0000.0001)                 1.604138599640548E+04       /* J =100 */
(PID.TID 0000.0001)     ;
(PID.TID 0000.0001) dyU =  /* dyU(:,1,:,1) ( units: m ) */
(PID.TID 0000.0001)   100 @  2.779436833800970E+04              /* I =  1:100 */
(PID.TID 0000.0001)     ;
(PID.TID 0000.0001) dyU =  /* dyU(1,:,1,:) ( units: m ) */
(PID.TID 0000.0001)   100 @  2.779436833800970E+04              /* J =  1:100 */
(PID.TID 0000.0001)     ;
(PID.TID 0000.0001) rA  =  /* rA (:,1,:,1) ( units: m^2 ) */
(PID.TID 0000.0001)   100 @  6.681831126132613E+08              /* I =  1:100 */
(PID.TID 0000.0001)     ;
(PID.TID 0000.0001) rA  =  /* rA (1,:,1,:) ( units: m^2 ) */
(PID.TID 0000.0001)                 6.681831126132613E+08,      /* J =  1 */
(PID.TID 0000.0001)                 6.664850017735666E+08,      /* J =  2 */
(PID.TID 0000.0001)                 6.647742020202218E+08,      /* J =  3 */
(PID.TID 0000.0001)      . . .
(PID.TID 0000.0001)                 6.279454404818789E+08,      /* J = 23 */
(PID.TID 0000.0001)                 6.259760638655939E+08,      /* J = 24 */
(PID.TID 0000.0001)                 6.239947695673566E+08,      /* J = 25 */
(PID.TID 0000.0001)                 6.220015953081915E+08,      /* J = 26 */
(PID.TID 0000.0001)                 6.199965790352323E+08,      /* J = 27 */
(PID.TID 0000.0001)                 6.179797589211514E+08,      /* J = 28 */
(PID.TID 0000.0001)      . . .
(PID.TID 0000.0001)                 5.752253007719541E+08,      /* J = 48 */
(PID.TID 0000.0001)                 5.729698092467850E+08,      /* J = 49 */
(PID.TID 0000.0001)                 5.707034092024101E+08,      /* J = 50 */
(PID.TID 0000.0001)                 5.684261437877442E+08,      /* J = 51 */
(PID.TID 0000.0001)                 5.661380563587053E+08,      /* J = 52 */
(PID.TID 0000.0001)                 5.638391904771134E+08,      /* J = 53 */
(PID.TID 0000.0001)      . . .
(PID.TID 0000.0001)                 5.156672717944663E+08,      /* J = 73 */
(PID.TID 0000.0001)                 5.131524771180277E+08,      /* J = 74 */
(PID.TID 0000.0001)                 5.106279127581214E+08,      /* J = 75 */
(PID.TID 0000.0001)                 5.080936267787932E+08,      /* J = 76 */
(PID.TID 0000.0001)                 5.055496674292141E+08,      /* J = 77 */
(PID.TID 0000.0001)                 5.029960831426970E+08,      /* J = 78 */
(PID.TID 0000.0001)      . . .
(PID.TID 0000.0001)                 4.499793391102898E+08,      /* J = 98 */
(PID.TID 0000.0001)                 4.472351354605254E+08,      /* J = 99 */
(PID.TID 0000.0001)                 4.444824170984655E+08       /* J =100 */
(PID.TID 0000.0001)     ;
(PID.TID 0000.0001) rAw =  /* rAw(:,1,:,1) ( units: m^2 ) */
(PID.TID 0000.0001)   100 @  6.681831126132613E+08              /* I =  1:100 */
(PID.TID 0000.0001)     ;
(PID.TID 0000.0001) rAw =  /* rAw(1,:,1,:) ( units: m^2 ) */
(PID.TID 0000.0001)                 6.681831126132613E+08,      /* J =  1 */
(PID.TID 0000.0001)                 6.664850017735666E+08,      /* J =  2 */
(PID.TID 0000.0001)                 6.647742020202218E+08,      /* J =  3 */
(PID.TID 0000.0001)      . . .
(PID.TID 0000.0001)                 6.279454404818789E+08,      /* J = 23 */
(PID.TID 0000.0001)                 6.259760638655939E+08,      /* J = 24 */
(PID.TID 0000.0001)                 6.239947695673566E+08,      /* J = 25 */
(PID.TID 0000.0001)                 6.220015953081915E+08,      /* J = 26 */
(PID.TID 0000.0001)                 6.199965790352323E+08,      /* J = 27 */
(PID.TID 0000.0001)                 6.179797589211514E+08,      /* J = 28 */
(PID.TID 0000.0001)      . . .
(PID.TID 0000.0001)                 5.752253007719541E+08,      /* J = 48 */
(PID.TID 0000.0001)                 5.729698092467850E+08,      /* J = 49 */
(PID.TID 0000.0001)                 5.707034092024101E+08,      /* J = 50 */
(PID.TID 0000.0001)                 5.684261437877442E+08,      /* J = 51 */
(PID.TID 0000.0001)                 5.661380563587053E+08,      /* J = 52 */
(PID.TID 0000.0001)                 5.638391904771134E+08,      /* J = 53 */
(PID.TID 0000.0001)      . . .
(PID.TID 0000.0001)                 5.156672717944663E+08,      /* J = 73 */
(PID.TID 0000.0001)                 5.131524771180277E+08,      /* J = 74 */
(PID.TID 0000.0001)                 5.106279127581214E+08,      /* J = 75 */
(PID.TID 0000.0001)                 5.080936267787932E+08,      /* J = 76 */
(PID.TID 0000.0001)                 5.055496674292141E+08,      /* J = 77 */
(PID.TID 0000.0001)                 5.029960831426970E+08,      /* J = 78 */
(PID.TID 0000.0001)      . . .
(PID.TID 0000.0001)                 4.499793391102898E+08,      /* J = 98 */
(PID.TID 0000.0001)                 4.472351354605254E+08,      /* J = 99 */
(PID.TID 0000.0001)                 4.444824170984655E+08       /* J =100 */
(PID.TID 0000.0001)     ;
(PID.TID 0000.0001) rAs =  /* rAs(:,1,:,1) ( units: m^2 ) */
(PID.TID 0000.0001)   100 @  6.690273995779943E+08              /* I =  1:100 */
(PID.TID 0000.0001)     ;
(PID.TID 0000.0001) rAs =  /* rAs(1,:,1,:) ( units: m^2 ) */
(PID.TID 0000.0001)                 6.690273995779943E+08,      /* J =  1 */
(PID.TID 0000.0001)                 6.673356453338909E+08,      /* J =  2 */
(PID.TID 0000.0001)                 6.656311859810680E+08,      /* J =  3 */
(PID.TID 0000.0001)      . . .
(PID.TID 0000.0001)                 6.289256479335159E+08,      /* J = 23 */
(PID.TID 0000.0001)                 6.269622442326831E+08,      /* J = 24 */
(PID.TID 0000.0001)                 6.249869040744686E+08,      /* J = 25 */
(PID.TID 0000.0001)                 6.229996650664990E+08,      /* J = 26 */
(PID.TID 0000.0001)                 6.210005650429022E+08,      /* J = 27 */
(PID.TID 0000.0001)                 6.189896420637782E+08,      /* J = 28 */
(PID.TID 0000.0001)      . . .
(PID.TID 0000.0001)                 5.763489424124945E+08,      /* J = 48 */
(PID.TID 0000.0001)                 5.740989212629790E+08,      /* J = 49 */
(PID.TID 0000.0001)                 5.718379700975415E+08,      /* J = 50 */
(PID.TID 0000.0001)                 5.695661319614676E+08,      /* J = 51 */
(PID.TID 0000.0001)                 5.672834501072235E+08,      /* J = 52 */
(PID.TID 0000.0001)                 5.649899679938252E+08,      /* J = 53 */
(PID.TID 0000.0001)      . . .
(PID.TID 0000.0001)                 5.169209905322137E+08,      /* J = 73 */
(PID.TID 0000.0001)                 5.144110986634239E+08,      /* J = 74 */
(PID.TID 0000.0001)                 5.118914131488553E+08,      /* J = 75 */
(PID.TID 0000.0001)                 5.093619819596375E+08,      /* J = 76 */
(PID.TID 0000.0001)                 5.068228532525163E+08,      /* J = 77 */
(PID.TID 0000.0001)                 5.042740753688124E+08,      /* J = 78 */
(PID.TID 0000.0001)      . . .
(PID.TID 0000.0001)                 4.513482315849267E+08,      /* J = 98 */
(PID.TID 0000.0001)                 4.486083048936002E+08,      /* J = 99 */
(PID.TID 0000.0001)                 4.458598373468361E+08       /* J =100 */
(PID.TID 0000.0001)     ;
(PID.TID 0000.0001) globalArea = /* Integrated horizontal Area (m^2) */
(PID.TID 0000.0001)                 3.928595910370639E+12
(PID.TID 0000.0001)     ;
(PID.TID 0000.0001) // =======================================================
(PID.TID 0000.0001) // End of Model config. summary
(PID.TID 0000.0001) // =======================================================
(PID.TID 0000.0001) 
(PID.TID 0000.0001) == Packages configuration : Check & print summary ==
(PID.TID 0000.0001) 
(PID.TID 0000.0001) GAD_CHECK: #define ALLOW_GENERIC_ADVDIFF
(PID.TID 0000.0001) // =======================================================
(PID.TID 0000.0001) // Check Model config. (CONFIG_CHECK):
(PID.TID 0000.0001) // CONFIG_CHECK : Normal End
(PID.TID 0000.0001) // =======================================================
(PID.TID 0000.0001) 
(PID.TID 0000.0001) Start initial hydrostatic pressure computation
(PID.TID 0000.0001) Pressure is predetermined for buoyancyRelation OCEANIC
(PID.TID 0000.0001) 
(PID.TID 0000.0001)  write diagnostics summary to file ioUnit:      6
Iter.Nb:         0 ; Time(s):  0.0000000000000E+00
------------------------------------------------------------------------
2D/3D diagnostics: Number of lists:     1
------------------------------------------------------------------------
listId=    1 ; file name: cheapAML
 nFlds, nActive,       freq     &     phase        , nLev               
    6  |    6  |     14400.000000         0.000000 |   1
 levels:   1
 diag# | name   |   ipt  |  iMate | kLev|   count |   mate.C|           
   190 |CH_TAIR |      1 |      0 |   1 |       0 |
   192 |CH_QAIR |      2 |      0 |   1 |       0 |
   191 |CH_QNET |      3 |      0 |   1 |       0 |
   193 |CH_EmP  |      4 |      0 |   1 |       0 |
   195 |CH_Uwind|      5 |      6 |   1 |       0 |       0 |
   196 |CH_Vwind|      6 |      5 |   1 |       0 |       0 |
------------------------------------------------------------------------
Global & Regional Statistics diagnostics: Number of lists:     0
------------------------------------------------------------------------
(PID.TID 0000.0001) CHEAPAML_INIT_VARIA: Tair initialized using standard profile
(PID.TID 0000.0001) CHEAPAML_INIT_VARIA: Qair initialized using standard profile
(PID.TID 0000.0001) CHEAPAML_INIT_VARIA: Tracer initialized using standard profile
(PID.TID 0000.0001) // =======================================================
(PID.TID 0000.0001) // Model current state
(PID.TID 0000.0001) // =======================================================
(PID.TID 0000.0001) 
(PID.TID 0000.0001) // =======================================================
(PID.TID 0000.0001) // Begin MONITOR dynamic field statistics
(PID.TID 0000.0001) // =======================================================
(PID.TID 0000.0001) %MON time_tsnumber                =                     0
(PID.TID 0000.0001) %MON time_secondsf                =   0.0000000000000E+00
(PID.TID 0000.0001) %MON dynstat_eta_max              =   0.0000000000000E+00
(PID.TID 0000.0001) %MON dynstat_eta_min              =   0.0000000000000E+00
(PID.TID 0000.0001) %MON dynstat_eta_mean             =   0.0000000000000E+00
(PID.TID 0000.0001) %MON dynstat_eta_sd               =   0.0000000000000E+00
(PID.TID 0000.0001) %MON dynstat_eta_del2             =   0.0000000000000E+00
(PID.TID 0000.0001) %MON dynstat_uvel_max             =   0.0000000000000E+00
(PID.TID 0000.0001) %MON dynstat_uvel_min             =   0.0000000000000E+00
(PID.TID 0000.0001) %MON dynstat_uvel_mean            =   0.0000000000000E+00
(PID.TID 0000.0001) %MON dynstat_uvel_sd              =   0.0000000000000E+00
(PID.TID 0000.0001) %MON dynstat_uvel_del2            =   0.0000000000000E+00
(PID.TID 0000.0001) %MON dynstat_vvel_max             =   0.0000000000000E+00
(PID.TID 0000.0001) %MON dynstat_vvel_min             =   0.0000000000000E+00
(PID.TID 0000.0001) %MON dynstat_vvel_mean            =   0.0000000000000E+00
(PID.TID 0000.0001) %MON dynstat_vvel_sd              =   0.0000000000000E+00
(PID.TID 0000.0001) %MON dynstat_vvel_del2            =   0.0000000000000E+00
(PID.TID 0000.0001) %MON dynstat_wvel_max             =  -0.0000000000000E+00
(PID.TID 0000.0001) %MON dynstat_wvel_min             =  -0.0000000000000E+00
(PID.TID 0000.0001) %MON dynstat_wvel_mean            =   0.0000000000000E+00
(PID.TID 0000.0001) %MON dynstat_wvel_sd              =   0.0000000000000E+00
(PID.TID 0000.0001) %MON dynstat_wvel_del2            =   0.0000000000000E+00
(PID.TID 0000.0001) %MON dynstat_theta_max            =   2.0000000000000E+01
(PID.TID 0000.0001) %MON dynstat_theta_min            =   2.0000000000000E+01
(PID.TID 0000.0001) %MON dynstat_theta_mean           =   2.0000000000000E+01
(PID.TID 0000.0001) %MON dynstat_theta_sd             =   1.9184653865523E-13
(PID.TID 0000.0001) %MON dynstat_theta_del2           =   0.0000000000000E+00
(PID.TID 0000.0001) %MON dynstat_salt_max             =   3.5000000000000E+01
(PID.TID 0000.0001) %MON dynstat_salt_min             =   3.5000000000000E+01
(PID.TID 0000.0001) %MON dynstat_salt_mean            =   3.5000000000000E+01
(PID.TID 0000.0001) %MON dynstat_salt_sd              =   2.1316282072803E-14
(PID.TID 0000.0001) %MON dynstat_salt_del2            =   0.0000000000000E+00
(PID.TID 0000.0001) %MON forcing_qnet_max             =   0.0000000000000E+00
(PID.TID 0000.0001) %MON forcing_qnet_min             =   0.0000000000000E+00
(PID.TID 0000.0001) %MON forcing_qnet_mean            =   0.0000000000000E+00
(PID.TID 0000.0001) %MON forcing_qnet_sd              =   0.0000000000000E+00
(PID.TID 0000.0001) %MON forcing_qnet_del2            =   0.0000000000000E+00
(PID.TID 0000.0001) %MON forcing_qsw_max              =   0.0000000000000E+00
(PID.TID 0000.0001) %MON forcing_qsw_min              =   0.0000000000000E+00
(PID.TID 0000.0001) %MON forcing_qsw_mean             =   0.0000000000000E+00
(PID.TID 0000.0001) %MON forcing_qsw_sd               =   0.0000000000000E+00
(PID.TID 0000.0001) %MON forcing_qsw_del2             =   0.0000000000000E+00
(PID.TID 0000.0001) %MON forcing_empmr_max            =   0.0000000000000E+00
(PID.TID 0000.0001) %MON forcing_empmr_min            =   0.0000000000000E+00
(PID.TID 0000.0001) %MON forcing_empmr_mean           =   0.0000000000000E+00
(PID.TID 0000.0001) %MON forcing_empmr_sd             =   0.0000000000000E+00
(PID.TID 0000.0001) %MON forcing_empmr_del2           =   0.0000000000000E+00
(PID.TID 0000.0001) %MON forcing_fu_max               =   0.0000000000000E+00
(PID.TID 0000.0001) %MON forcing_fu_min               =   0.0000000000000E+00
(PID.TID 0000.0001) %MON forcing_fu_mean              =   0.0000000000000E+00
(PID.TID 0000.0001) %MON forcing_fu_sd                =   0.0000000000000E+00
(PID.TID 0000.0001) %MON forcing_fu_del2              =   0.0000000000000E+00
(PID.TID 0000.0001) %MON forcing_fv_max               =   0.0000000000000E+00
(PID.TID 0000.0001) %MON forcing_fv_min               =   0.0000000000000E+00
(PID.TID 0000.0001) %MON forcing_fv_mean              =   0.0000000000000E+00
(PID.TID 0000.0001) %MON forcing_fv_sd                =   0.0000000000000E+00
(PID.TID 0000.0001) %MON forcing_fv_del2              =   0.0000000000000E+00
(PID.TID 0000.0001) %MON trAdv_CFL_u_max              =   0.0000000000000E+00
(PID.TID 0000.0001) %MON trAdv_CFL_v_max              =   0.0000000000000E+00
(PID.TID 0000.0001) %MON trAdv_CFL_w_max              =   0.0000000000000E+00
(PID.TID 0000.0001) %MON advcfl_uvel_max              =   0.0000000000000E+00
(PID.TID 0000.0001) %MON advcfl_vvel_max              =   0.0000000000000E+00
(PID.TID 0000.0001) %MON advcfl_wvel_max              =   0.0000000000000E+00
(PID.TID 0000.0001) %MON advcfl_W_hf_max              =   0.0000000000000E+00
(PID.TID 0000.0001) %MON pe_b_mean                    =   0.0000000000000E+00
(PID.TID 0000.0001) %MON ke_max                       =   0.0000000000000E+00
(PID.TID 0000.0001) %MON ke_mean                      =   0.0000000000000E+00
(PID.TID 0000.0001) %MON ke_vol                       =   3.9285959103706E+15
(PID.TID 0000.0001) %MON vort_r_min                   =   0.0000000000000E+00
(PID.TID 0000.0001) %MON vort_r_max                   =   0.0000000000000E+00
(PID.TID 0000.0001) %MON vort_a_mean                  =   9.0315070673762E-05
(PID.TID 0000.0001) %MON vort_a_sd                    =   1.0358287086367E-05
(PID.TID 0000.0001) %MON vort_p_mean                  =   9.3807280711835E-05
(PID.TID 0000.0001) %MON vort_p_sd                    =   3.1543568116637E-05
(PID.TID 0000.0001) %MON surfExpan_theta_mean         =   0.0000000000000E+00
(PID.TID 0000.0001) %MON surfExpan_salt_mean          =   0.0000000000000E+00
(PID.TID 0000.0001) // =======================================================
(PID.TID 0000.0001) // End MONITOR dynamic field statistics
(PID.TID 0000.0001) // =======================================================
(PID.TID 0000.0001) SOLVE_FOR_PRESSURE: putPmEinXvector =    F
 cg2d: Sum(rhs),rhsMax =   8.43769498715119E-15  5.92151707844542E-04
 cg2d: Sum(rhs),rhsMax =  -1.06996449367180E-07  7.54806919185726E-04
 cg2d: Sum(rhs),rhsMax =   2.31069476330781E-08  8.53167399820721E-04
(PID.TID 0000.0001)      cg2d_init_res =   3.57107952749661E+00
(PID.TID 0000.0001)      cg2d_iters(min,last) =      -1      68
(PID.TID 0000.0001)      cg2d_last_res =   8.19789540443254E-08
(PID.TID 0000.0001) // =======================================================
(PID.TID 0000.0001) // Begin MONITOR dynamic field statistics
(PID.TID 0000.0001) // =======================================================
(PID.TID 0000.0001) %MON time_tsnumber                =                     3
(PID.TID 0000.0001) %MON time_secondsf                =   3.6000000000000E+03
(PID.TID 0000.0001) %MON dynstat_eta_max              =   9.9842166660970E-04
(PID.TID 0000.0001) %MON dynstat_eta_min              =  -1.0796985141051E-03
(PID.TID 0000.0001) %MON dynstat_eta_mean             =  -1.5289144528431E-13
(PID.TID 0000.0001) %MON dynstat_eta_sd               =   2.4602531615243E-04
(PID.TID 0000.0001) %MON dynstat_eta_del2             =   6.4197040583963E-08
(PID.TID 0000.0001) %MON dynstat_uvel_max             =   1.2313665165218E-04
(PID.TID 0000.0001) %MON dynstat_uvel_min             =  -1.1645679978472E-04
(PID.TID 0000.0001) %MON dynstat_uvel_mean            =   9.8056593433910E-06
(PID.TID 0000.0001) %MON dynstat_uvel_sd              =   6.2336156419729E-05
(PID.TID 0000.0001) %MON dynstat_uvel_del2            =   1.4882205030908E-08
(PID.TID 0000.0001) %MON dynstat_vvel_max             =   6.3176060676625E-05
(PID.TID 0000.0001) %MON dynstat_vvel_min             =  -4.9125572283221E-05
(PID.TID 0000.0001) %MON dynstat_vvel_mean            =  -1.3631877523375E-06
(PID.TID 0000.0001) %MON dynstat_vvel_sd              =   1.3053947391800E-05
(PID.TID 0000.0001) %MON dynstat_vvel_del2            =   7.5705224893250E-09
(PID.TID 0000.0001) %MON dynstat_wvel_max             =   2.4223179685660E-07
(PID.TID 0000.0001) %MON dynstat_wvel_min             =  -3.2015731894101E-07
(PID.TID 0000.0001) %MON dynstat_wvel_mean            =  -1.3038434792602E-24
(PID.TID 0000.0001) %MON dynstat_wvel_sd              =   8.8550289123957E-08
(PID.TID 0000.0001) %MON dynstat_wvel_del2            =   2.9034763256672E-11
(PID.TID 0000.0001) %MON dynstat_theta_max            =   2.0000208316933E+01
(PID.TID 0000.0001) %MON dynstat_theta_min            =   1.9999915212635E+01
(PID.TID 0000.0001) %MON dynstat_theta_mean           =   2.0000104091188E+01
(PID.TID 0000.0001) %MON dynstat_theta_sd             =   2.6591093919309E-05
(PID.TID 0000.0001) %MON dynstat_theta_del2           =   3.8846869115971E-08
(PID.TID 0000.0001) %MON dynstat_salt_max             =   3.5000007118772E+01
(PID.TID 0000.0001) %MON dynstat_salt_min             =   3.4998331474499E+01
(PID.TID 0000.0001) %MON dynstat_salt_mean            =   3.4999975665296E+01
(PID.TID 0000.0001) %MON dynstat_salt_sd              =   1.5814359038783E-04
(PID.TID 0000.0001) %MON dynstat_salt_del2            =   2.3840420535926E-07
(PID.TID 0000.0001) %MON forcing_qnet_max             =   1.5844899665514E+02
(PID.TID 0000.0001) %MON forcing_qnet_min             =  -2.3066261371565E+02
(PID.TID 0000.0001) %MON forcing_qnet_mean            =  -1.1583751896534E+02
(PID.TID 0000.0001) %MON forcing_qnet_sd              =   3.0869233010338E+01
(PID.TID 0000.0001) %MON forcing_qnet_del2            =   4.5822966418017E-02
(PID.TID 0000.0001) %MON forcing_qsw_max              =  -1.8787878787879E+02
(PID.TID 0000.0001) %MON forcing_qsw_min              =  -2.2462121212121E+02
(PID.TID 0000.0001) %MON forcing_qsw_mean             =  -2.1233709653010E+02
(PID.TID 0000.0001) %MON forcing_qsw_sd               =   7.9326552219826E+00
(PID.TID 0000.0001) %MON forcing_qsw_del2             =   7.5690028615512E-01
(PID.TID 0000.0001) %MON forcing_empmr_max            =   6.4265536993796E-05
(PID.TID 0000.0001) %MON forcing_empmr_min            =  -1.3233461783586E-02
(PID.TID 0000.0001) %MON forcing_empmr_mean           =  -1.9307009835795E-04
(PID.TID 0000.0001) %MON forcing_empmr_sd             =   1.2541946179737E-03
(PID.TID 0000.0001) %MON forcing_empmr_del2           =   1.9110275825086E-06
(PID.TID 0000.0001) %MON forcing_fu_max               =   3.6312875132355E-02
(PID.TID 0000.0001) %MON forcing_fu_min               =  -4.1186546966156E-02
(PID.TID 0000.0001) %MON forcing_fu_mean              =   3.8848903828427E-03
(PID.TID 0000.0001) %MON forcing_fu_sd                =   2.0841862738640E-02
(PID.TID 0000.0001) %MON forcing_fu_del2              =   4.6550519709348E-06
(PID.TID 0000.0001) %MON forcing_fv_max               =   1.4118892037167E-07
(PID.TID 0000.0001) %MON forcing_fv_min               =  -1.6142058151109E-07
(PID.TID 0000.0001) %MON forcing_fv_mean              =   4.0918182458104E-09
(PID.TID 0000.0001) %MON forcing_fv_sd                =   2.9484881303195E-08
(PID.TID 0000.0001) %MON forcing_fv_del2              =   2.5314036386367E-11
(PID.TID 0000.0001) %MON trAdv_CFL_u_max              =   7.2252245735012E-06
(PID.TID 0000.0001) %MON trAdv_CFL_v_max              =   2.7216476796137E-06
(PID.TID 0000.0001) %MON trAdv_CFL_w_max              =   2.9067815622792E-07
(PID.TID 0000.0001) %MON advcfl_uvel_max              =   7.2252188419158E-06
(PID.TID 0000.0001) %MON advcfl_vvel_max              =   2.7275767482823E-06
(PID.TID 0000.0001) %MON advcfl_wvel_max              =   7.6837756545842E-07
(PID.TID 0000.0001) %MON advcfl_W_hf_max              =   0.0000000000000E+00
(PID.TID 0000.0001) %MON pe_b_mean                    =   2.9689207760168E-10
(PID.TID 0000.0001) %MON ke_max                       =   7.6696651651883E-09
(PID.TID 0000.0001) %MON ke_mean                      =   2.0477520001211E-09
(PID.TID 0000.0001) %MON ke_vol                       =   3.9285959103706E+15
(PID.TID 0000.0001) %MON vort_r_min                   =  -2.4255226191715E-09
(PID.TID 0000.0001) %MON vort_r_max                   =   7.2364695506071E-09
(PID.TID 0000.0001) %MON vort_a_mean                  =   9.0315070673762E-05
(PID.TID 0000.0001) %MON vort_a_sd                    =   1.0358298362045E-05
(PID.TID 0000.0001) %MON vort_p_mean                  =   9.3807280711835E-05
(PID.TID 0000.0001) %MON vort_p_sd                    =   3.1544247703359E-05
(PID.TID 0000.0001) %MON surfExpan_theta_mean         =   3.9028222252367E-13
(PID.TID 0000.0001) %MON surfExpan_salt_mean          =  -2.6463502442258E-12
(PID.TID 0000.0001) // =======================================================
(PID.TID 0000.0001) // End MONITOR dynamic field statistics
(PID.TID 0000.0001) // =======================================================
 cg2d: Sum(rhs),rhsMax =   2.57709418249874E-07  9.42773048440748E-04
 cg2d: Sum(rhs),rhsMax =   5.54279022679793E-07  1.21816272674786E-03
 cg2d: Sum(rhs),rhsMax =   9.06126468969148E-07  1.51250352918774E-03
(PID.TID 0000.0001)      cg2d_init_res =   2.01651965124731E+00
(PID.TID 0000.0001)      cg2d_iters(min,last) =      -1      66
(PID.TID 0000.0001)      cg2d_last_res =   7.67546389527069E-08
(PID.TID 0000.0001) // =======================================================
(PID.TID 0000.0001) // Begin MONITOR dynamic field statistics
(PID.TID 0000.0001) // =======================================================
(PID.TID 0000.0001) %MON time_tsnumber                =                     6
(PID.TID 0000.0001) %MON time_secondsf                =   7.2000000000000E+03
(PID.TID 0000.0001) %MON dynstat_eta_max              =   1.5050888510832E-03
(PID.TID 0000.0001) %MON dynstat_eta_min              =  -2.1138522149114E-03
(PID.TID 0000.0001) %MON dynstat_eta_mean             =  -1.3183010799408E-12
(PID.TID 0000.0001) %MON dynstat_eta_sd               =   5.6798400433537E-04
(PID.TID 0000.0001) %MON dynstat_eta_del2             =   1.5043983360706E-07
(PID.TID 0000.0001) %MON dynstat_uvel_max             =   2.2643488745861E-04
(PID.TID 0000.0001) %MON dynstat_uvel_min             =  -2.2565483044624E-04
(PID.TID 0000.0001) %MON dynstat_uvel_mean            =   1.2917309180234E-05
(PID.TID 0000.0001) %MON dynstat_uvel_sd              =   1.0563953538854E-04
(PID.TID 0000.0001) %MON dynstat_uvel_del2            =   3.3625048344380E-08
(PID.TID 0000.0001) %MON dynstat_vvel_max             =   1.4810030922108E-04
(PID.TID 0000.0001) %MON dynstat_vvel_min             =  -1.4130656937099E-04
(PID.TID 0000.0001) %MON dynstat_vvel_mean            =  -2.9899530286987E-06
(PID.TID 0000.0001) %MON dynstat_vvel_sd              =   4.3277466227566E-05
(PID.TID 0000.0001) %MON dynstat_vvel_del2            =   1.2966041113277E-08
(PID.TID 0000.0001) %MON dynstat_wvel_max             =   2.1747155983052E-07
(PID.TID 0000.0001) %MON dynstat_wvel_min             =  -2.8724651843187E-07
(PID.TID 0000.0001) %MON dynstat_wvel_mean            =   1.8727933611192E-23
(PID.TID 0000.0001) %MON dynstat_wvel_sd              =   9.7526287105920E-08
(PID.TID 0000.0001) %MON dynstat_wvel_del2            =   2.6552375531166E-11
(PID.TID 0000.0001) %MON dynstat_theta_max            =   2.0000415515914E+01
(PID.TID 0000.0001) %MON dynstat_theta_min            =   1.9999737977280E+01
(PID.TID 0000.0001) %MON dynstat_theta_mean           =   2.0000208890389E+01
(PID.TID 0000.0001) %MON dynstat_theta_sd             =   5.5980474838155E-05
(PID.TID 0000.0001) %MON dynstat_theta_del2           =   6.5834151905391E-08
(PID.TID 0000.0001) %MON dynstat_salt_max             =   3.5000016337716E+01
(PID.TID 0000.0001) %MON dynstat_salt_min             =   3.4996667606011E+01
(PID.TID 0000.0001) %MON dynstat_salt_mean            =   3.4999951409501E+01
(PID.TID 0000.0001) %MON dynstat_salt_sd              =   3.1573227207636E-04
(PID.TID 0000.0001) %MON dynstat_salt_del2            =   4.7044291917375E-07
(PID.TID 0000.0001) %MON forcing_qnet_max             =   2.0508826962623E+02
(PID.TID 0000.0001) %MON forcing_qnet_min             =  -2.2941771552130E+02
(PID.TID 0000.0001) %MON forcing_qnet_mean            =  -1.1638656128175E+02
(PID.TID 0000.0001) %MON forcing_qnet_sd              =   3.4552339800977E+01
(PID.TID 0000.0001) %MON forcing_qnet_del2            =   5.1552867956745E-02
(PID.TID 0000.0001) %MON forcing_qsw_max              =  -1.8787878787879E+02
(PID.TID 0000.0001) %MON forcing_qsw_min              =  -2.2462121212121E+02
(PID.TID 0000.0001) %MON forcing_qsw_mean             =  -2.1233709653010E+02
(PID.TID 0000.0001) %MON forcing_qsw_sd               =   7.9326552219826E+00
(PID.TID 0000.0001) %MON forcing_qsw_del2             =   7.5690028615512E-01
(PID.TID 0000.0001) %MON forcing_empmr_max            =   7.3263218638941E-05
(PID.TID 0000.0001) %MON forcing_empmr_min            =  -1.3198864855235E-02
(PID.TID 0000.0001) %MON forcing_empmr_mean           =  -1.9237363376315E-04
(PID.TID 0000.0001) %MON forcing_empmr_sd             =   1.2504581477130E-03
(PID.TID 0000.0001) %MON forcing_empmr_del2           =   1.9456485326865E-06
(PID.TID 0000.0001) %MON forcing_fu_max               =   3.7127144356737E-02
(PID.TID 0000.0001) %MON forcing_fu_min               =  -4.3577704067327E-02
(PID.TID 0000.0001) %MON forcing_fu_mean              =   4.1331726699613E-03
(PID.TID 0000.0001) %MON forcing_fu_sd                =   2.0545408068330E-02
(PID.TID 0000.0001) %MON forcing_fu_del2              =   6.7382253256686E-06
(PID.TID 0000.0001) %MON forcing_fv_max               =   5.5649359772742E-07
(PID.TID 0000.0001) %MON forcing_fv_min               =  -6.1291736267191E-07
(PID.TID 0000.0001) %MON forcing_fv_mean              =   1.9792048437489E-08
(PID.TID 0000.0001) %MON forcing_fv_sd                =   1.3907550354309E-07
(PID.TID 0000.0001) %MON forcing_fv_del2              =   8.6518793012808E-11
(PID.TID 0000.0001) %MON trAdv_CFL_u_max              =   1.3286400849889E-05
(PID.TID 0000.0001) %MON trAdv_CFL_v_max              =   6.3826559641406E-06
(PID.TID 0000.0001) %MON trAdv_CFL_w_max              =   2.6096587179662E-07
(PID.TID 0000.0001) %MON advcfl_uvel_max              =   1.3286390310128E-05
(PID.TID 0000.0001) %MON advcfl_vvel_max              =   6.3941144085028E-06
(PID.TID 0000.0001) %MON advcfl_wvel_max              =   6.8939164423648E-07
(PID.TID 0000.0001) %MON advcfl_W_hf_max              =   0.0000000000000E+00
(PID.TID 0000.0001) %MON pe_b_mean                    =   1.5823815921320E-09
(PID.TID 0000.0001) %MON ke_max                       =   2.6234709176133E-08
(PID.TID 0000.0001) %MON ke_mean                      =   6.5103662765502E-09
(PID.TID 0000.0001) %MON ke_vol                       =   3.9285959103706E+15
(PID.TID 0000.0001) %MON vort_r_min                   =  -6.4823513290028E-09
(PID.TID 0000.0001) %MON vort_r_max                   =   1.1174557439010E-08
(PID.TID 0000.0001) %MON vort_a_mean                  =   9.0315070673762E-05
(PID.TID 0000.0001) %MON vort_a_sd                    =   1.0358300537446E-05
(PID.TID 0000.0001) %MON vort_p_mean                  =   9.3807280711835E-05
(PID.TID 0000.0001) %MON vort_p_sd                    =   3.1544824773140E-05
(PID.TID 0000.0001) %MON surfExpan_theta_mean         =   1.5555235526132E-12
(PID.TID 0000.0001) %MON surfExpan_salt_mean          =  -7.4791087272398E-12
(PID.TID 0000.0001) // =======================================================
(PID.TID 0000.0001) // End MONITOR dynamic field statistics
(PID.TID 0000.0001) // =======================================================
 cg2d: Sum(rhs),rhsMax =   1.15844155068601E-06  1.80840087221092E-03
 cg2d: Sum(rhs),rhsMax =   1.44556564674048E-06  2.10909165866391E-03
 cg2d: Sum(rhs),rhsMax =   1.76670107343568E-06  2.41648130913272E-03
(PID.TID 0000.0001)      cg2d_init_res =   1.04183143447644E+00
(PID.TID 0000.0001)      cg2d_iters(min,last) =      -1      64
(PID.TID 0000.0001)      cg2d_last_res =   8.83761148938495E-08
(PID.TID 0000.0001) // =======================================================
(PID.TID 0000.0001) // Begin MONITOR dynamic field statistics
(PID.TID 0000.0001) // =======================================================
(PID.TID 0000.0001) %MON time_tsnumber                =                     9
(PID.TID 0000.0001) %MON time_secondsf                =   1.0800000000000E+04
(PID.TID 0000.0001) %MON dynstat_eta_max              =   1.8441872198037E-03
(PID.TID 0000.0001) %MON dynstat_eta_min              =  -2.9299772339893E-03
(PID.TID 0000.0001) %MON dynstat_eta_mean             =  -3.3374379466588E-12
(PID.TID 0000.0001) %MON dynstat_eta_sd               =   8.1132480831824E-04
(PID.TID 0000.0001) %MON dynstat_eta_del2             =   2.3452679400161E-07
(PID.TID 0000.0001) %MON dynstat_uvel_max             =   2.9272310398505E-04
(PID.TID 0000.0001) %MON dynstat_uvel_min             =  -3.1988963183204E-04
(PID.TID 0000.0001) %MON dynstat_uvel_mean            =   1.1303938107041E-05
(PID.TID 0000.0001) %MON dynstat_uvel_sd              =   1.3744241614390E-04
(PID.TID 0000.0001) %MON dynstat_uvel_del2            =   5.9228383704013E-08
(PID.TID 0000.0001) %MON dynstat_vvel_max             =   2.8288603735662E-04
(PID.TID 0000.0001) %MON dynstat_vvel_min             =  -2.5158222175234E-04
(PID.TID 0000.0001) %MON dynstat_vvel_mean            =  -2.1243295414047E-06
(PID.TID 0000.0001) %MON dynstat_vvel_sd              =   8.4275378421437E-05
(PID.TID 0000.0001) %MON dynstat_vvel_del2            =   1.5222138219400E-08
(PID.TID 0000.0001) %MON dynstat_wvel_max             =   1.9595517475137E-07
(PID.TID 0000.0001) %MON dynstat_wvel_min             =  -2.0201842430135E-07
(PID.TID 0000.0001) %MON dynstat_wvel_mean            =   4.7412490154917E-25
(PID.TID 0000.0001) %MON dynstat_wvel_sd              =   6.8395028342496E-08
(PID.TID 0000.0001) %MON dynstat_wvel_del2            =   2.7981800174258E-11
(PID.TID 0000.0001) %MON dynstat_theta_max            =   2.0000621568801E+01
(PID.TID 0000.0001) %MON dynstat_theta_min            =   1.9999550621482E+01
(PID.TID 0000.0001) %MON dynstat_theta_mean           =   2.0000313925165E+01
(PID.TID 0000.0001) %MON dynstat_theta_sd             =   8.7989539418114E-05
(PID.TID 0000.0001) %MON dynstat_theta_del2           =   1.0461492298870E-07
(PID.TID 0000.0001) %MON dynstat_salt_max             =   3.5000025649938E+01
(PID.TID 0000.0001) %MON dynstat_salt_min             =   3.4995008861546E+01
(PID.TID 0000.0001) %MON dynstat_salt_mean            =   3.4999927273403E+01
(PID.TID 0000.0001) %MON dynstat_salt_sd              =   4.7276618862605E-04
(PID.TID 0000.0001) %MON dynstat_salt_del2            =   6.9330555010674E-07
(PID.TID 0000.0001) %MON forcing_qnet_max             =   2.0800939441518E+02
(PID.TID 0000.0001) %MON forcing_qnet_min             =  -2.2866623271094E+02
(PID.TID 0000.0001) %MON forcing_qnet_mean            =  -1.1653670752483E+02
(PID.TID 0000.0001) %MON forcing_qnet_sd              =   3.7441787336897E+01
(PID.TID 0000.0001) %MON forcing_qnet_del2            =   6.7036686982429E-02
(PID.TID 0000.0001) %MON forcing_qsw_max              =  -1.8787878787879E+02
(PID.TID 0000.0001) %MON forcing_qsw_min              =  -2.2462121212121E+02
(PID.TID 0000.0001) %MON forcing_qsw_mean             =  -2.1233709653010E+02
(PID.TID 0000.0001) %MON forcing_qsw_sd               =   7.9326552219826E+00
(PID.TID 0000.0001) %MON forcing_qsw_del2             =   7.5690028615512E-01
(PID.TID 0000.0001) %MON forcing_empmr_max            =   7.3833188996917E-05
(PID.TID 0000.0001) %MON forcing_empmr_min            =  -1.3158742956277E-02
(PID.TID 0000.0001) %MON forcing_empmr_mean           =  -1.9124015973192E-04
(PID.TID 0000.0001) %MON forcing_empmr_sd             =   1.2470488242037E-03
(PID.TID 0000.0001) %MON forcing_empmr_del2           =   2.0709181878264E-06
(PID.TID 0000.0001) %MON forcing_fu_max               =   3.7377362385888E-02
(PID.TID 0000.0001) %MON forcing_fu_min               =  -4.4076221045757E-02
(PID.TID 0000.0001) %MON forcing_fu_mean              =   4.3003912315443E-03
(PID.TID 0000.0001) %MON forcing_fu_sd                =   2.0379264132530E-02
(PID.TID 0000.0001) %MON forcing_fu_del2              =   9.2449925392469E-06
(PID.TID 0000.0001) %MON forcing_fv_max               =   1.0529871927542E-06
(PID.TID 0000.0001) %MON forcing_fv_min               =  -1.3213370097886E-06
(PID.TID 0000.0001) %MON forcing_fv_mean              =   2.0782538785706E-08
(PID.TID 0000.0001) %MON forcing_fv_sd                =   2.8407548277653E-07
(PID.TID 0000.0001) %MON forcing_fv_del2              =   2.1074201525615E-10
(PID.TID 0000.0001) %MON trAdv_CFL_u_max              =   1.7175959681920E-05
(PID.TID 0000.0001) %MON trAdv_CFL_v_max              =   1.2191495500600E-05
(PID.TID 0000.0001) %MON trAdv_CFL_w_max              =   2.3514620970165E-07
(PID.TID 0000.0001) %MON advcfl_uvel_max              =   1.7175946056671E-05
(PID.TID 0000.0001) %MON advcfl_vvel_max              =   1.2213382247069E-05
(PID.TID 0000.0001) %MON advcfl_wvel_max              =   4.8484421832325E-07
(PID.TID 0000.0001) %MON advcfl_W_hf_max              =   0.0000000000000E+00
(PID.TID 0000.0001) %MON pe_b_mean                    =   3.2287061682269E-09
(PID.TID 0000.0001) %MON ke_max                       =   5.1162040240923E-08
(PID.TID 0000.0001) %MON ke_mean                      =   1.2875547524454E-08
(PID.TID 0000.0001) %MON ke_vol                       =   3.9285959103706E+15
(PID.TID 0000.0001) %MON vort_r_min                   =  -1.0188273145731E-08
(PID.TID 0000.0001) %MON vort_r_max                   =   1.3190127468915E-08
(PID.TID 0000.0001) %MON vort_a_mean                  =   9.0315070673762E-05
(PID.TID 0000.0001) %MON vort_a_sd                    =   1.0358295679678E-05
(PID.TID 0000.0001) %MON vort_p_mean                  =   9.3807280711835E-05
(PID.TID 0000.0001) %MON vort_p_sd                    =   3.1545363296350E-05
(PID.TID 0000.0001) %MON surfExpan_theta_mean         =   1.6660278126473E-12
(PID.TID 0000.0001) %MON surfExpan_salt_mean          =  -9.5800749254022E-12
(PID.TID 0000.0001) // =======================================================
(PID.TID 0000.0001) // End MONITOR dynamic field statistics
(PID.TID 0000.0001) // =======================================================
 cg2d: Sum(rhs),rhsMax =   1.94181425428042E-06  2.73123920703193E-03
 cg2d: Sum(rhs),rhsMax =   2.11825329543558E-06  3.05309996335181E-03
 cg2d: Sum(rhs),rhsMax =   2.18995380585341E-06  3.38112425567120E-03
(PID.TID 0000.0001)      cg2d_init_res =   7.04825032244154E-01
(PID.TID 0000.0001)      cg2d_iters(min,last) =      -1      62
(PID.TID 0000.0001)      cg2d_last_res =   9.90935768686290E-08
(PID.TID 0000.0001) // =======================================================
(PID.TID 0000.0001) // Begin MONITOR dynamic field statistics
(PID.TID 0000.0001) // =======================================================
(PID.TID 0000.0001) %MON time_tsnumber                =                    12
(PID.TID 0000.0001) %MON time_secondsf                =   1.4400000000000E+04
(PID.TID 0000.0001) %MON dynstat_eta_max              =   2.4728057246828E-03
(PID.TID 0000.0001) %MON dynstat_eta_min              =  -3.4347969509447E-03
(PID.TID 0000.0001) %MON dynstat_eta_mean             =  -5.4602907265785E-12
(PID.TID 0000.0001) %MON dynstat_eta_sd               =   9.1268508289460E-04
(PID.TID 0000.0001) %MON dynstat_eta_del2             =   3.1654590669724E-07
(PID.TID 0000.0001) %MON dynstat_uvel_max             =   3.4911333832688E-04
(PID.TID 0000.0001) %MON dynstat_uvel_min             =  -4.0430583728104E-04
(PID.TID 0000.0001) %MON dynstat_uvel_mean            =   6.4540990302861E-06
(PID.TID 0000.0001) %MON dynstat_uvel_sd              =   1.6743818404936E-04
(PID.TID 0000.0001) %MON dynstat_uvel_del2            =   9.3758472114834E-08
(PID.TID 0000.0001) %MON dynstat_vvel_max             =   4.3137043709481E-04
(PID.TID 0000.0001) %MON dynstat_vvel_min             =  -3.6455977991982E-04
(PID.TID 0000.0001) %MON dynstat_vvel_mean            =   4.0013270274642E-07
(PID.TID 0000.0001) %MON dynstat_vvel_sd              =   1.2859999753514E-04
(PID.TID 0000.0001) %MON dynstat_vvel_del2            =   1.8330899745639E-08
(PID.TID 0000.0001) %MON dynstat_wvel_max             =   1.6940147065224E-07
(PID.TID 0000.0001) %MON dynstat_wvel_min             =  -1.3954365378494E-07
(PID.TID 0000.0001) %MON dynstat_wvel_mean            =   2.0861495668164E-23
(PID.TID 0000.0001) %MON dynstat_wvel_sd              =   5.3409111772076E-08
(PID.TID 0000.0001) %MON dynstat_wvel_del2            =   3.0276171909160E-11
(PID.TID 0000.0001) %MON dynstat_theta_max            =   2.0000826418323E+01
(PID.TID 0000.0001) %MON dynstat_theta_min            =   1.9999363640508E+01
(PID.TID 0000.0001) %MON dynstat_theta_mean           =   2.0000418965913E+01
(PID.TID 0000.0001) %MON dynstat_theta_sd             =   1.2208235680371E-04
(PID.TID 0000.0001) %MON dynstat_theta_del2           =   1.6013170260022E-07
(PID.TID 0000.0001) %MON dynstat_salt_max             =   3.5000034937214E+01
(PID.TID 0000.0001) %MON dynstat_salt_min             =   3.4993356010149E+01
(PID.TID 0000.0001) %MON dynstat_salt_mean            =   3.4999903267617E+01
(PID.TID 0000.0001) %MON dynstat_salt_sd              =   6.2914179791982E-04
(PID.TID 0000.0001) %MON dynstat_salt_del2            =   9.0980133788928E-07
(PID.TID 0000.0001) %MON forcing_qnet_max             =   2.0708380639026E+02
(PID.TID 0000.0001) %MON forcing_qnet_min             =  -2.2892288102154E+02
(PID.TID 0000.0001) %MON forcing_qnet_mean            =  -1.1648620383351E+02
(PID.TID 0000.0001) %MON forcing_qnet_sd              =   3.9655135352151E+01
(PID.TID 0000.0001) %MON forcing_qnet_del2            =   7.7266725206419E-02
(PID.TID 0000.0001) %MON forcing_qsw_max              =  -1.8787878787879E+02
(PID.TID 0000.0001) %MON forcing_qsw_min              =  -2.2462121212121E+02
(PID.TID 0000.0001) %MON forcing_qsw_mean             =  -2.1233709653010E+02
(PID.TID 0000.0001) %MON forcing_qsw_sd               =   7.9326552219826E+00
(PID.TID 0000.0001) %MON forcing_qsw_del2             =   7.5690028615512E-01
(PID.TID 0000.0001) %MON forcing_empmr_max            =   7.3665172324233E-05
(PID.TID 0000.0001) %MON forcing_empmr_min            =  -1.3112446020586E-02
(PID.TID 0000.0001) %MON forcing_empmr_mean           =  -1.9051142022793E-04
(PID.TID 0000.0001) %MON forcing_empmr_sd             =   1.2430635541637E-03
(PID.TID 0000.0001) %MON forcing_empmr_del2           =   2.0688448107956E-06
(PID.TID 0000.0001) %MON forcing_fu_max               =   3.7430975243119E-02
(PID.TID 0000.0001) %MON forcing_fu_min               =  -4.4137512957021E-02
(PID.TID 0000.0001) %MON forcing_fu_mean              =   4.4224722862604E-03
(PID.TID 0000.0001) %MON forcing_fu_sd                =   2.0278115996463E-02
(PID.TID 0000.0001) %MON forcing_fu_del2              =   1.1420464670800E-05
(PID.TID 0000.0001) %MON forcing_fv_max               =   1.6003976089718E-06
(PID.TID 0000.0001) %MON forcing_fv_min               =  -2.1553777506537E-06
(PID.TID 0000.0001) %MON forcing_fv_mean              =   1.3407391224883E-08
(PID.TID 0000.0001) %MON forcing_fv_sd                =   4.5499132386728E-07
(PID.TID 0000.0001) %MON forcing_fv_del2              =   3.4850444410471E-10
(PID.TID 0000.0001) %MON trAdv_CFL_u_max              =   2.0403000004638E-05
(PID.TID 0000.0001) %MON trAdv_CFL_v_max              =   1.8590704553945E-05
(PID.TID 0000.0001) %MON trAdv_CFL_w_max              =   2.0328176478269E-07
(PID.TID 0000.0001) %MON advcfl_uvel_max              =   2.0402983819461E-05
(PID.TID 0000.0001) %MON advcfl_vvel_max              =   1.8624079461661E-05
(PID.TID 0000.0001) %MON advcfl_wvel_max              =   4.0656352956538E-07
(PID.TID 0000.0001) %MON advcfl_W_hf_max              =   0.0000000000000E+00
(PID.TID 0000.0001) %MON pe_b_mean                    =   4.0858358669405E-09
(PID.TID 0000.0001) %MON ke_max                       =   9.3020619217257E-08
(PID.TID 0000.0001) %MON ke_mean                      =   2.1986610937138E-08
(PID.TID 0000.0001) %MON ke_vol                       =   3.9285959103706E+15
(PID.TID 0000.0001) %MON vort_r_min                   =  -1.2706201924163E-08
(PID.TID 0000.0001) %MON vort_r_max                   =   2.0113509683157E-08
(PID.TID 0000.0001) %MON vort_a_mean                  =   9.0315070673762E-05
(PID.TID 0000.0001) %MON vort_a_sd                    =   1.0358285541744E-05
(PID.TID 0000.0001) %MON vort_p_mean                  =   9.3807280711835E-05
(PID.TID 0000.0001) %MON vort_p_sd                    =   3.1545891797167E-05
(PID.TID 0000.0001) %MON surfExpan_theta_mean         =   8.4800591530397E-13
(PID.TID 0000.0001) %MON surfExpan_salt_mean          =  -1.0256530614694E-11
(PID.TID 0000.0001) // =======================================================
(PID.TID 0000.0001) // End MONITOR dynamic field statistics
(PID.TID 0000.0001) // =======================================================
 Computing Diagnostic #    190  CH_TAIR      Counter:      12   Parms: SM      L1      
 Computing Diagnostic #    192  CH_QAIR      Counter:      12   Parms: SM      L1      
 Computing Diagnostic #    191  CH_QNET      Counter:      12   Parms: SM      L1      
 Computing Diagnostic #    193  CH_EmP       Counter:      12   Parms: SM      L1      
 Computing Diagnostic #    195  CH_Uwind     Counter:      12   Parms: UU      L1      
           Vector  Mate for  CH_Uwind     Diagnostic #    196  CH_Vwind exists 
 Computing Diagnostic #    196  CH_Vwind     Counter:      12   Parms: VV      L1      
           Vector  Mate for  CH_Vwind     Diagnostic #    195  CH_Uwind exists 
 cg2d: Sum(rhs),rhsMax =   2.33621169343223E-06  3.71413550274544E-03
 cg2d: Sum(rhs),rhsMax =   2.59915955247436E-06  4.05080080831898E-03
 cg2d: Sum(rhs),rhsMax =   2.94964521962982E-06  4.39014190418018E-03
(PID.TID 0000.0001)      cg2d_init_res =   5.42808960388506E-01
(PID.TID 0000.0001)      cg2d_iters(min,last) =      -1      61
(PID.TID 0000.0001)      cg2d_last_res =   8.79156375115009E-08
(PID.TID 0000.0001) // =======================================================
(PID.TID 0000.0001) // Begin MONITOR dynamic field statistics
(PID.TID 0000.0001) // =======================================================
(PID.TID 0000.0001) %MON time_tsnumber                =                    15
(PID.TID 0000.0001) %MON time_secondsf                =   1.8000000000000E+04
(PID.TID 0000.0001) %MON dynstat_eta_max              =   3.0753485865950E-03
(PID.TID 0000.0001) %MON dynstat_eta_min              =  -3.5612179776444E-03
(PID.TID 0000.0001) %MON dynstat_eta_mean             =  -9.8156309980461E-12
(PID.TID 0000.0001) %MON dynstat_eta_sd               =   9.3220621609172E-04
(PID.TID 0000.0001) %MON dynstat_eta_del2             =   3.9559935670528E-07
(PID.TID 0000.0001) %MON dynstat_uvel_max             =   4.0792744620056E-04
(PID.TID 0000.0001) %MON dynstat_uvel_min             =  -4.9685635434966E-04
(PID.TID 0000.0001) %MON dynstat_uvel_mean            =  -8.6356323241529E-07
(PID.TID 0000.0001) %MON dynstat_uvel_sd              =   2.0099688510127E-04
(PID.TID 0000.0001) %MON dynstat_uvel_del2            =   1.3574987801406E-07
(PID.TID 0000.0001) %MON dynstat_vvel_max             =   5.6725525564165E-04
(PID.TID 0000.0001) %MON dynstat_vvel_min             =  -4.7060171022852E-04
(PID.TID 0000.0001) %MON dynstat_vvel_mean            =   2.3891824466016E-06
(PID.TID 0000.0001) %MON dynstat_vvel_sd              =   1.6817514263550E-04
(PID.TID 0000.0001) %MON dynstat_vvel_del2            =   2.3767727587707E-08
(PID.TID 0000.0001) %MON dynstat_wvel_max             =   1.7287770783838E-07
(PID.TID 0000.0001) %MON dynstat_wvel_min             =  -1.5580552859199E-07
(PID.TID 0000.0001) %MON dynstat_wvel_mean            =  -3.1529305953020E-23
(PID.TID 0000.0001) %MON dynstat_wvel_sd              =   5.8157512557325E-08
(PID.TID 0000.0001) %MON dynstat_wvel_del2            =   2.8819735923636E-11
(PID.TID 0000.0001) %MON dynstat_theta_max            =   2.0001030020728E+01
(PID.TID 0000.0001) %MON dynstat_theta_min            =   1.9999177281857E+01
(PID.TID 0000.0001) %MON dynstat_theta_mean           =   2.0000523892404E+01
(PID.TID 0000.0001) %MON dynstat_theta_sd             =   1.5782469019841E-04
(PID.TID 0000.0001) %MON dynstat_theta_del2           =   2.2590219992841E-07
(PID.TID 0000.0001) %MON dynstat_salt_max             =   3.5000044210486E+01
(PID.TID 0000.0001) %MON dynstat_salt_min             =   3.4991709913145E+01
(PID.TID 0000.0001) %MON dynstat_salt_mean            =   3.4999879366743E+01
(PID.TID 0000.0001) %MON dynstat_salt_sd              =   7.8481742338259E-04
(PID.TID 0000.0001) %MON dynstat_salt_del2            =   1.1259578797257E-06
(PID.TID 0000.0001) %MON forcing_qnet_max             =   2.0663182490846E+02
(PID.TID 0000.0001) %MON forcing_qnet_min             =  -2.2873846016547E+02
(PID.TID 0000.0001) %MON forcing_qnet_mean            =  -1.1632846384072E+02
(PID.TID 0000.0001) %MON forcing_qnet_sd              =   4.1397960769612E+01
(PID.TID 0000.0001) %MON forcing_qnet_del2            =   8.4509067397916E-02
(PID.TID 0000.0001) %MON forcing_qsw_max              =  -1.8787878787879E+02
(PID.TID 0000.0001) %MON forcing_qsw_min              =  -2.2462121212121E+02
(PID.TID 0000.0001) %MON forcing_qsw_mean             =  -2.1233709653010E+02
(PID.TID 0000.0001) %MON forcing_qsw_sd               =   7.9326552219826E+00
(PID.TID 0000.0001) %MON forcing_qsw_del2             =   7.5690028615512E-01
(PID.TID 0000.0001) %MON forcing_empmr_max            =   7.3581917274870E-05
(PID.TID 0000.0001) %MON forcing_empmr_min            =  -1.3066603690006E-02
(PID.TID 0000.0001) %MON forcing_empmr_mean           =  -1.8940663868933E-04
(PID.TID 0000.0001) %MON forcing_empmr_sd             =   1.2389382530548E-03
(PID.TID 0000.0001) %MON forcing_empmr_del2           =   2.1462353211574E-06
(PID.TID 0000.0001) %MON forcing_fu_max               =   3.7433663071259E-02
(PID.TID 0000.0001) %MON forcing_fu_min               =  -4.4127327363529E-02
(PID.TID 0000.0001) %MON forcing_fu_mean              =   4.5180283162002E-03
(PID.TID 0000.0001) %MON forcing_fu_sd                =   2.0212160212638E-02
(PID.TID 0000.0001) %MON forcing_fu_del2              =   1.3167029971879E-05
(PID.TID 0000.0001) %MON forcing_fv_max               =   2.1853645397926E-06
(PID.TID 0000.0001) %MON forcing_fv_min               =  -2.9344042416988E-06
(PID.TID 0000.0001) %MON forcing_fv_mean              =   1.1959011024289E-08
(PID.TID 0000.0001) %MON forcing_fv_sd                =   6.2361034544008E-07
(PID.TID 0000.0001) %MON forcing_fv_del2              =   4.6835374312811E-10
(PID.TID 0000.0001) %MON trAdv_CFL_u_max              =   2.5058827625011E-05
(PID.TID 0000.0001) %MON trAdv_CFL_v_max              =   2.4447300183883E-05
(PID.TID 0000.0001) %MON trAdv_CFL_w_max              =   2.0745324940605E-07
(PID.TID 0000.0001) %MON advcfl_uvel_max              =   2.5058807746486E-05
(PID.TID 0000.0001) %MON advcfl_vvel_max              =   2.4490799664589E-05
(PID.TID 0000.0001) %MON advcfl_wvel_max              =   4.1490649881210E-07
(PID.TID 0000.0001) %MON advcfl_W_hf_max              =   0.0000000000000E+00
(PID.TID 0000.0001) %MON pe_b_mean                    =   4.2624863458148E-09
(PID.TID 0000.0001) %MON ke_max                       =   1.6058407257914E-07
(PID.TID 0000.0001) %MON ke_mean                      =   3.3849141714106E-08
(PID.TID 0000.0001) %MON ke_vol                       =   3.9285959103706E+15
(PID.TID 0000.0001) %MON vort_r_min                   =  -1.4423091674578E-08
(PID.TID 0000.0001) %MON vort_r_max                   =   2.6398327957067E-08
(PID.TID 0000.0001) %MON vort_a_mean                  =   9.0315070673762E-05
(PID.TID 0000.0001) %MON vort_a_sd                    =   1.0358271160193E-05
(PID.TID 0000.0001) %MON vort_p_mean                  =   9.3807280711835E-05
(PID.TID 0000.0001) %MON vort_p_sd                    =   3.1546422736333E-05
(PID.TID 0000.0001) %MON surfExpan_theta_mean         =   6.9730328471777E-13
(PID.TID 0000.0001) %MON surfExpan_salt_mean          =  -1.3103012798473E-11
(PID.TID 0000.0001) // =======================================================
(PID.TID 0000.0001) // End MONITOR dynamic field statistics
(PID.TID 0000.0001) // =======================================================
 cg2d: Sum(rhs),rhsMax =   3.29664402798358E-06  4.73151627081239E-03
 cg2d: Sum(rhs),rhsMax =   3.24457578670945E-06  5.07476173383431E-03
 cg2d: Sum(rhs),rhsMax =   2.94027040936840E-06  5.42005503515750E-03
(PID.TID 0000.0001)      cg2d_init_res =   4.24856931881629E-01
(PID.TID 0000.0001)      cg2d_iters(min,last) =      -1      60
(PID.TID 0000.0001)      cg2d_last_res =   8.84171830483740E-08
(PID.TID 0000.0001) // =======================================================
(PID.TID 0000.0001) // Begin MONITOR dynamic field statistics
(PID.TID 0000.0001) // =======================================================
(PID.TID 0000.0001) %MON time_tsnumber                =                    18
(PID.TID 0000.0001) %MON time_secondsf                =   2.1600000000000E+04
(PID.TID 0000.0001) %MON dynstat_eta_max              =   3.7317965851526E-03
(PID.TID 0000.0001) %MON dynstat_eta_min              =  -3.4293717437484E-03
(PID.TID 0000.0001) %MON dynstat_eta_mean             =  -9.1095993504819E-12
(PID.TID 0000.0001) %MON dynstat_eta_sd               =   9.4787749532342E-04
(PID.TID 0000.0001) %MON dynstat_eta_del2             =   4.7177811852535E-07
(PID.TID 0000.0001) %MON dynstat_uvel_max             =   4.7099406781984E-04
(PID.TID 0000.0001) %MON dynstat_uvel_min             =  -6.0680012510714E-04
(PID.TID 0000.0001) %MON dynstat_uvel_mean            =  -9.6192615244327E-06
(PID.TID 0000.0001) %MON dynstat_uvel_sd              =   2.3918679718974E-04
(PID.TID 0000.0001) %MON dynstat_uvel_del2            =   1.8304621517863E-07
(PID.TID 0000.0001) %MON dynstat_vvel_max             =   6.7657403797638E-04
(PID.TID 0000.0001) %MON dynstat_vvel_min             =  -5.6341672543776E-04
(PID.TID 0000.0001) %MON dynstat_vvel_mean            =   1.4586645422562E-06
(PID.TID 0000.0001) %MON dynstat_vvel_sd              =   2.0043723650293E-04
(PID.TID 0000.0001) %MON dynstat_vvel_del2            =   3.0553809513862E-08
(PID.TID 0000.0001) %MON dynstat_wvel_max             =   1.9184746300291E-07
(PID.TID 0000.0001) %MON dynstat_wvel_min             =  -1.6765123124850E-07
(PID.TID 0000.0001) %MON dynstat_wvel_mean            =  -6.6377486216884E-24
(PID.TID 0000.0001) %MON dynstat_wvel_sd              =   5.9102829244809E-08
(PID.TID 0000.0001) %MON dynstat_wvel_del2            =   2.7084649736540E-11
(PID.TID 0000.0001) %MON dynstat_theta_max            =   2.0001233191212E+01
(PID.TID 0000.0001) %MON dynstat_theta_min            =   1.9998991080308E+01
(PID.TID 0000.0001) %MON dynstat_theta_mean           =   2.0000628638849E+01
(PID.TID 0000.0001) %MON dynstat_theta_sd             =   1.9489540952961E-04
(PID.TID 0000.0001) %MON dynstat_theta_del2           =   2.9806216606716E-07
(PID.TID 0000.0001) %MON dynstat_salt_max             =   3.5000053481074E+01
(PID.TID 0000.0001) %MON dynstat_salt_min             =   3.4990071787080E+01
(PID.TID 0000.0001) %MON dynstat_salt_mean            =   3.4999855543683E+01
(PID.TID 0000.0001) %MON dynstat_salt_sd              =   9.3976828005093E-04
(PID.TID 0000.0001) %MON dynstat_salt_del2            =   1.3267150833079E-06
(PID.TID 0000.0001) %MON forcing_qnet_max             =   2.0654585777507E+02
(PID.TID 0000.0001) %MON forcing_qnet_min             =  -2.2862928766640E+02
(PID.TID 0000.0001) %MON forcing_qnet_mean            =  -1.1611163197268E+02
(PID.TID 0000.0001) %MON forcing_qnet_sd              =   4.2808392913716E+01
(PID.TID 0000.0001) %MON forcing_qnet_del2            =   8.9572827749112E-02
(PID.TID 0000.0001) %MON forcing_qsw_max              =  -1.8787878787879E+02
(PID.TID 0000.0001) %MON forcing_qsw_min              =  -2.2462121212121E+02
(PID.TID 0000.0001) %MON forcing_qsw_mean             =  -2.1233709653010E+02
(PID.TID 0000.0001) %MON forcing_qsw_sd               =   7.9326552219826E+00
(PID.TID 0000.0001) %MON forcing_qsw_del2             =   7.5690028615512E-01
(PID.TID 0000.0001) %MON forcing_empmr_max            =   7.3565475635336E-05
(PID.TID 0000.0001) %MON forcing_empmr_min            =  -1.3040251869973E-02
(PID.TID 0000.0001) %MON forcing_empmr_mean           =  -1.8876710080220E-04
(PID.TID 0000.0001) %MON forcing_empmr_sd             =   1.2349760274367E-03
(PID.TID 0000.0001) %MON forcing_empmr_del2           =   2.1124201687536E-06
(PID.TID 0000.0001) %MON forcing_fu_max               =   3.7430031861180E-02
(PID.TID 0000.0001) %MON forcing_fu_min               =  -4.4122737275939E-02
(PID.TID 0000.0001) %MON forcing_fu_mean              =   4.5964658226180E-03
(PID.TID 0000.0001) %MON forcing_fu_sd                =   2.0166760604654E-02
(PID.TID 0000.0001) %MON forcing_fu_del2              =   1.4496209445839E-05
(PID.TID 0000.0001) %MON forcing_fv_max               =   2.7448164724296E-06
(PID.TID 0000.0001) %MON forcing_fv_min               =  -3.5498167754092E-06
(PID.TID 0000.0001) %MON forcing_fv_mean              =   2.3339099497281E-08
(PID.TID 0000.0001) %MON forcing_fv_sd                =   7.6742316424071E-07
(PID.TID 0000.0001) %MON forcing_fv_del2              =   5.6070107794221E-10
(PID.TID 0000.0001) %MON trAdv_CFL_u_max              =   3.0603814572921E-05
(PID.TID 0000.0001) %MON trAdv_CFL_v_max              =   2.9158669643917E-05
(PID.TID 0000.0001) %MON trAdv_CFL_w_max              =   2.3021695560350E-07
(PID.TID 0000.0001) %MON advcfl_uvel_max              =   3.0603790295701E-05
(PID.TID 0000.0001) %MON advcfl_vvel_max              =   2.9210552141290E-05
(PID.TID 0000.0001) %MON advcfl_wvel_max              =   4.6043391120699E-07
(PID.TID 0000.0001) %MON advcfl_W_hf_max              =   0.0000000000000E+00
(PID.TID 0000.0001) %MON pe_b_mean                    =   4.4070039148196E-09
(PID.TID 0000.0001) %MON ke_max                       =   2.2798838791586E-07
(PID.TID 0000.0001) %MON ke_mean                      =   4.8036976947604E-08
(PID.TID 0000.0001) %MON ke_vol                       =   3.9285959103706E+15
(PID.TID 0000.0001) %MON vort_r_min                   =  -1.9123352460252E-08
(PID.TID 0000.0001) %MON vort_r_max                   =   3.1433855009378E-08
(PID.TID 0000.0001) %MON vort_a_mean                  =   9.0315070673762E-05
(PID.TID 0000.0001) %MON vort_a_sd                    =   1.0358254070302E-05
(PID.TID 0000.0001) %MON vort_p_mean                  =   9.3807280711835E-05
(PID.TID 0000.0001) %MON vort_p_sd                    =   3.1546946997366E-05
(PID.TID 0000.0001) %MON surfExpan_theta_mean         =   1.9893160074407E-12
(PID.TID 0000.0001) %MON surfExpan_salt_mean          =  -1.8600531418635E-11
(PID.TID 0000.0001) // =======================================================
(PID.TID 0000.0001) // End MONITOR dynamic field statistics
(PID.TID 0000.0001) // =======================================================
 cg2d: Sum(rhs),rhsMax =   2.50991311290250E-06  5.76759499648929E-03
 cg2d: Sum(rhs),rhsMax =   2.10849120652057E-06  6.11807370214043E-03
 cg2d: Sum(rhs),rhsMax =   1.80698242147059E-06  6.47183929954394E-03
(PID.TID 0000.0001)      cg2d_init_res =   3.72989386407026E-01
(PID.TID 0000.0001)      cg2d_iters(min,last) =      -1      60
(PID.TID 0000.0001)      cg2d_last_res =   8.58862764659004E-08
(PID.TID 0000.0001) // =======================================================
(PID.TID 0000.0001) // Begin MONITOR dynamic field statistics
(PID.TID 0000.0001) // =======================================================
(PID.TID 0000.0001) %MON time_tsnumber                =                    21
(PID.TID 0000.0001) %MON time_secondsf                =   2.5200000000000E+04
(PID.TID 0000.0001) %MON dynstat_eta_max              =   4.4528768651216E-03
(PID.TID 0000.0001) %MON dynstat_eta_min              =  -3.2690109426187E-03
(PID.TID 0000.0001) %MON dynstat_eta_mean             =  -6.8277809108027E-12
(PID.TID 0000.0001) %MON dynstat_eta_sd               =   9.9599012417645E-04
(PID.TID 0000.0001) %MON dynstat_eta_del2             =   5.4867510099163E-07
(PID.TID 0000.0001) %MON dynstat_uvel_max             =   5.3872090639707E-04
(PID.TID 0000.0001) %MON dynstat_uvel_min             =  -7.3129718942230E-04
(PID.TID 0000.0001) %MON dynstat_uvel_mean            =  -1.9240652200826E-05
(PID.TID 0000.0001) %MON dynstat_uvel_sd              =   2.8098193861370E-04
(PID.TID 0000.0001) %MON dynstat_uvel_del2            =   2.3393464335566E-07
(PID.TID 0000.0001) %MON dynstat_vvel_max             =   7.6259427762734E-04
(PID.TID 0000.0001) %MON dynstat_vvel_min             =  -6.4421256920163E-04
(PID.TID 0000.0001) %MON dynstat_vvel_mean            =  -3.0846403754315E-06
(PID.TID 0000.0001) %MON dynstat_vvel_sd              =   2.2670119628165E-04
(PID.TID 0000.0001) %MON dynstat_vvel_del2            =   3.8144443444338E-08
(PID.TID 0000.0001) %MON dynstat_wvel_max             =   2.0733191066351E-07
(PID.TID 0000.0001) %MON dynstat_wvel_min             =  -1.6702769787528E-07
(PID.TID 0000.0001) %MON dynstat_wvel_mean            =  -6.6377486216884E-24
(PID.TID 0000.0001) %MON dynstat_wvel_sd              =   6.1323266461998E-08
(PID.TID 0000.0001) %MON dynstat_wvel_del2            =   2.9693531089173E-11
(PID.TID 0000.0001) %MON dynstat_theta_max            =   2.0001435352526E+01
(PID.TID 0000.0001) %MON dynstat_theta_min            =   1.9998804911128E+01
(PID.TID 0000.0001) %MON dynstat_theta_mean           =   2.0000733169282E+01
(PID.TID 0000.0001) %MON dynstat_theta_sd             =   2.3305547121732E-04
(PID.TID 0000.0001) %MON dynstat_theta_del2           =   3.7432239780488E-07
(PID.TID 0000.0001) %MON dynstat_salt_max             =   3.5000062751039E+01
(PID.TID 0000.0001) %MON dynstat_salt_min             =   3.4988443113163E+01
(PID.TID 0000.0001) %MON dynstat_salt_mean            =   3.4999831885029E+01
(PID.TID 0000.0001) %MON dynstat_salt_sd              =   1.0938953669018E-03
(PID.TID 0000.0001) %MON dynstat_salt_del2            =   1.5309057379010E-06
(PID.TID 0000.0001) %MON forcing_qnet_max             =   2.0652882068518E+02
(PID.TID 0000.0001) %MON forcing_qnet_min             =  -2.2859673492777E+02
(PID.TID 0000.0001) %MON forcing_qnet_mean            =  -1.1586297029280E+02
(PID.TID 0000.0001) %MON forcing_qnet_sd              =   4.3972969403671E+01
(PID.TID 0000.0001) %MON forcing_qnet_del2            =   9.2870844753315E-02
(PID.TID 0000.0001) %MON forcing_qsw_max              =  -1.8787878787879E+02
(PID.TID 0000.0001) %MON forcing_qsw_min              =  -2.2462121212121E+02
(PID.TID 0000.0001) %MON forcing_qsw_mean             =  -2.1233709653010E+02
(PID.TID 0000.0001) %MON forcing_qsw_sd               =   7.9326552219826E+00
(PID.TID 0000.0001) %MON forcing_qsw_del2             =   7.5690028615512E-01
(PID.TID 0000.0001) %MON forcing_empmr_max            =   7.3561875035811E-05
(PID.TID 0000.0001) %MON forcing_empmr_min            =  -1.3014875465519E-02
(PID.TID 0000.0001) %MON forcing_empmr_mean           =  -1.8759937974976E-04
(PID.TID 0000.0001) %MON forcing_empmr_sd             =   1.2304643291623E-03
(PID.TID 0000.0001) %MON forcing_empmr_del2           =   2.1542424022562E-06
(PID.TID 0000.0001) %MON forcing_fu_max               =   3.7428479580521E-02
(PID.TID 0000.0001) %MON forcing_fu_min               =  -4.4121533535752E-02
(PID.TID 0000.0001) %MON forcing_fu_mean              =   4.6637629343735E-03
(PID.TID 0000.0001) %MON forcing_fu_sd                =   2.0133656180141E-02
(PID.TID 0000.0001) %MON forcing_fu_del2              =   1.5443771635669E-05
(PID.TID 0000.0001) %MON forcing_fv_max               =   3.2306374482529E-06
(PID.TID 0000.0001) %MON forcing_fv_min               =  -4.0161798517835E-06
(PID.TID 0000.0001) %MON forcing_fv_mean              =   4.5709640874610E-08
(PID.TID 0000.0001) %MON forcing_fv_sd                =   8.8386871424517E-07
(PID.TID 0000.0001) %MON forcing_fv_del2              =   6.3842944771016E-10
(PID.TID 0000.0001) %MON trAdv_CFL_u_max              =   3.6882793290174E-05
(PID.TID 0000.0001) %MON trAdv_CFL_v_max              =   3.2865929470461E-05
(PID.TID 0000.0001) %MON trAdv_CFL_w_max              =   2.4879829279621E-07
(PID.TID 0000.0001) %MON advcfl_uvel_max              =   3.6882764032001E-05
(PID.TID 0000.0001) %MON advcfl_vvel_max              =   3.2924408355824E-05
(PID.TID 0000.0001) %MON advcfl_wvel_max              =   4.9759658559242E-07
(PID.TID 0000.0001) %MON advcfl_W_hf_max              =   0.0000000000000E+00
(PID.TID 0000.0001) %MON pe_b_mean                    =   4.8657419861767E-09
(PID.TID 0000.0001) %MON ke_max                       =   2.8980681328161E-07
(PID.TID 0000.0001) %MON ke_mean                      =   6.4420154832781E-08
(PID.TID 0000.0001) %MON ke_vol                       =   3.9285959103706E+15
(PID.TID 0000.0001) %MON vort_r_min                   =  -2.3256755279677E-08
(PID.TID 0000.0001) %MON vort_r_max                   =   3.5430383976330E-08
(PID.TID 0000.0001) %MON vort_a_mean                  =   9.0315070673762E-05
(PID.TID 0000.0001) %MON vort_a_sd                    =   1.0358235143598E-05
(PID.TID 0000.0001) %MON vort_p_mean                  =   9.3807280711835E-05
(PID.TID 0000.0001) %MON vort_p_sd                    =   3.1547443428748E-05
(PID.TID 0000.0001) %MON surfExpan_theta_mean         =   4.3075536622183E-12
(PID.TID 0000.0001) %MON surfExpan_salt_mean          =  -2.4622582236709E-11
(PID.TID 0000.0001) // =======================================================
(PID.TID 0000.0001) // End MONITOR dynamic field statistics
(PID.TID 0000.0001) // =======================================================
 cg2d: Sum(rhs),rhsMax =   1.58881612355444E-06  6.82904714329692E-03
 cg2d: Sum(rhs),rhsMax =   1.40756946653831E-06  7.18985557154131E-03
 cg2d: Sum(rhs),rhsMax =   1.23012718875048E-06  7.55385643933417E-03
(PID.TID 0000.0001)      cg2d_init_res =   3.06652659218002E-01
(PID.TID 0000.0001)      cg2d_iters(min,last) =      -1      59
(PID.TID 0000.0001)      cg2d_last_res =   8.87059070656314E-08
(PID.TID 0000.0001) // =======================================================
(PID.TID 0000.0001) // Begin MONITOR dynamic field statistics
(PID.TID 0000.0001) // =======================================================
(PID.TID 0000.0001) %MON time_tsnumber                =                    24
(PID.TID 0000.0001) %MON time_secondsf                =   2.8800000000000E+04
(PID.TID 0000.0001) %MON dynstat_eta_max              =   5.2125810812845E-03
(PID.TID 0000.0001) %MON dynstat_eta_min              =  -3.2292715157948E-03
(PID.TID 0000.0001) %MON dynstat_eta_mean             =  -5.4075750399490E-12
(PID.TID 0000.0001) %MON dynstat_eta_sd               =   1.0788130823829E-03
(PID.TID 0000.0001) %MON dynstat_eta_del2             =   6.2750288650293E-07
(PID.TID 0000.0001) %MON dynstat_uvel_max             =   6.0827477086116E-04
(PID.TID 0000.0001) %MON dynstat_uvel_min             =  -8.5773801558284E-04
(PID.TID 0000.0001) %MON dynstat_uvel_mean            =  -2.9396943348056E-05
(PID.TID 0000.0001) %MON dynstat_uvel_sd              =   3.2414563413744E-04
(PID.TID 0000.0001) %MON dynstat_uvel_del2            =   2.8697245810114E-07
(PID.TID 0000.0001) %MON dynstat_vvel_max             =   8.4016164315111E-04
(PID.TID 0000.0001) %MON dynstat_vvel_min             =  -7.1891274528048E-04
(PID.TID 0000.0001) %MON dynstat_vvel_mean            =  -9.4008990839713E-06
(PID.TID 0000.0001) %MON dynstat_vvel_sd              =   2.5008490490503E-04
(PID.TID 0000.0001) %MON dynstat_vvel_del2            =   4.6369996411771E-08
(PID.TID 0000.0001) %MON dynstat_wvel_max             =   2.1409711416714E-07
(PID.TID 0000.0001) %MON dynstat_wvel_min             =  -2.1571913361126E-07
(PID.TID 0000.0001) %MON dynstat_wvel_mean            =   1.3275497243377E-23
(PID.TID 0000.0001) %MON dynstat_wvel_sd              =   5.8188930811365E-08
(PID.TID 0000.0001) %MON dynstat_wvel_del2            =   2.9649039498479E-11
(PID.TID 0000.0001) %MON dynstat_theta_max            =   2.0001636455610E+01
(PID.TID 0000.0001) %MON dynstat_theta_min            =   1.9998618755592E+01
(PID.TID 0000.0001) %MON dynstat_theta_mean           =   2.0000837465121E+01
(PID.TID 0000.0001) %MON dynstat_theta_sd             =   2.7212237434322E-04
(PID.TID 0000.0001) %MON dynstat_theta_del2           =   4.5300884129763E-07
(PID.TID 0000.0001) %MON dynstat_salt_max             =   3.5000072020633E+01
(PID.TID 0000.0001) %MON dynstat_salt_min             =   3.4986825312177E+01
(PID.TID 0000.0001) %MON dynstat_salt_mean            =   3.4999808374691E+01
(PID.TID 0000.0001) %MON dynstat_salt_sd              =   1.2471814733422E-03
(PID.TID 0000.0001) %MON dynstat_salt_del2            =   1.7423525068137E-06
(PID.TID 0000.0001) %MON forcing_qnet_max             =   2.0652023999506E+02
(PID.TID 0000.0001) %MON forcing_qnet_min             =  -2.2859260397764E+02
(PID.TID 0000.0001) %MON forcing_qnet_mean            =  -1.1559841086528E+02
(PID.TID 0000.0001) %MON forcing_qnet_sd              =   4.4950733657987E+01
(PID.TID 0000.0001) %MON forcing_qnet_del2            =   9.4687475939139E-02
(PID.TID 0000.0001) %MON forcing_qsw_max              =  -1.8787878787879E+02
(PID.TID 0000.0001) %MON forcing_qsw_min              =  -2.2462121212121E+02
(PID.TID 0000.0001) %MON forcing_qsw_mean             =  -2.1233709653010E+02
(PID.TID 0000.0001) %MON forcing_qsw_sd               =   7.9326552219826E+00
(PID.TID 0000.0001) %MON forcing_qsw_del2             =   7.5690028615512E-01
(PID.TID 0000.0001) %MON forcing_empmr_max            =   7.3559883066346E-05
(PID.TID 0000.0001) %MON forcing_empmr_min            =  -1.2987990314842E-02
(PID.TID 0000.0001) %MON forcing_empmr_mean           =  -1.8648075806950E-04
(PID.TID 0000.0001) %MON forcing_empmr_sd             =   1.2261262267662E-03
(PID.TID 0000.0001) %MON forcing_empmr_del2           =   2.2344003393612E-06
(PID.TID 0000.0001) %MON forcing_fu_max               =   3.7428406214761E-02
(PID.TID 0000.0001) %MON forcing_fu_min               =  -4.4121105644185E-02
(PID.TID 0000.0001) %MON forcing_fu_mean              =   4.7233040966059E-03
(PID.TID 0000.0001) %MON forcing_fu_sd                =   2.0108081860237E-02
(PID.TID 0000.0001) %MON forcing_fu_del2              =   1.6040532242695E-05
(PID.TID 0000.0001) %MON forcing_fv_max               =   3.6412735387155E-06
(PID.TID 0000.0001) %MON forcing_fv_min               =  -4.4262226502237E-06
(PID.TID 0000.0001) %MON forcing_fv_mean              =   7.1029657617936E-08
(PID.TID 0000.0001) %MON forcing_fv_sd                =   9.8190038318629E-07
(PID.TID 0000.0001) %MON forcing_fv_del2              =   7.1350641513165E-10
(PID.TID 0000.0001) %MON trAdv_CFL_u_max              =   4.3259805156447E-05
(PID.TID 0000.0001) %MON trAdv_CFL_v_max              =   3.6208891303909E-05
(PID.TID 0000.0001) %MON trAdv_CFL_w_max              =   2.5691653700057E-07
(PID.TID 0000.0001) %MON advcfl_uvel_max              =   4.3259770839554E-05
(PID.TID 0000.0001) %MON advcfl_vvel_max              =   3.6273318375888E-05
(PID.TID 0000.0001) %MON advcfl_wvel_max              =   5.1772592066703E-07
(PID.TID 0000.0001) %MON advcfl_W_hf_max              =   0.0000000000000E+00
(PID.TID 0000.0001) %MON pe_b_mean                    =   5.7086237552644E-09
(PID.TID 0000.0001) %MON ke_max                       =   3.6785362850464E-07
(PID.TID 0000.0001) %MON ke_mean                      =   8.3069659800873E-08
(PID.TID 0000.0001) %MON ke_vol                       =   3.9285959103706E+15
(PID.TID 0000.0001) %MON vort_r_min                   =  -2.6232651400456E-08
(PID.TID 0000.0001) %MON vort_r_max                   =   3.9034189597702E-08
(PID.TID 0000.0001) %MON vort_a_mean                  =   9.0315070673762E-05
(PID.TID 0000.0001) %MON vort_a_sd                    =   1.0358215040857E-05
(PID.TID 0000.0001) %MON vort_p_mean                  =   9.3807280711835E-05
(PID.TID 0000.0001) %MON vort_p_sd                    =   3.1547896888889E-05
(PID.TID 0000.0001) %MON surfExpan_theta_mean         =   6.8360241587266E-12
(PID.TID 0000.0001) %MON surfExpan_salt_mean          =  -2.9838820608051E-11
(PID.TID 0000.0001) // =======================================================
(PID.TID 0000.0001) // End MONITOR dynamic field statistics
(PID.TID 0000.0001) // =======================================================
 Computing Diagnostic #    190  CH_TAIR      Counter:      12   Parms: SM      L1      
 Computing Diagnostic #    192  CH_QAIR      Counter:      12   Parms: SM      L1      
 Computing Diagnostic #    191  CH_QNET      Counter:      12   Parms: SM      L1      
 Computing Diagnostic #    193  CH_EmP       Counter:      12   Parms: SM      L1      
 Computing Diagnostic #    195  CH_Uwind     Counter:      12   Parms: UU      L1      
           Vector  Mate for  CH_Uwind     Diagnostic #    196  CH_Vwind exists 
 Computing Diagnostic #    196  CH_Vwind     Counter:      12   Parms: VV      L1      
           Vector  Mate for  CH_Vwind     Diagnostic #    195  CH_Uwind exists 
(PID.TID 0000.0001) %CHECKPOINT        24 ckptA
(PID.TID 0000.0001)   Seconds in section "ALL                    [THE_MODEL_MAIN]":
(PID.TID 0000.0001)           User time:   14.337819809559733
(PID.TID 0000.0001)         System time:  0.17797299288213253
(PID.TID 0000.0001)     Wall clock time:   45.831839084625244
(PID.TID 0000.0001)          No. starts:           1
(PID.TID 0000.0001)           No. stops:           1
(PID.TID 0000.0001)   Seconds in section "INITIALISE_FIXED       [THE_MODEL_MAIN]":
(PID.TID 0000.0001)           User time:  0.47192799532786012
(PID.TID 0000.0001)         System time:  8.99870004504919052E-002
(PID.TID 0000.0001)     Wall clock time:   12.593868970870972
(PID.TID 0000.0001)          No. starts:           1
(PID.TID 0000.0001)           No. stops:           1
(PID.TID 0000.0001)   Seconds in section "THE_MAIN_LOOP          [THE_MODEL_MAIN]":
(PID.TID 0000.0001)           User time:   13.861893057823181
(PID.TID 0000.0001)         System time:  8.69860053062438965E-002
(PID.TID 0000.0001)     Wall clock time:   33.233342885971069
(PID.TID 0000.0001)          No. starts:           1
(PID.TID 0000.0001)           No. stops:           1
(PID.TID 0000.0001)   Seconds in section "INITIALISE_VARIA    [THE_MAIN_LOOP]":
(PID.TID 0000.0001)           User time:  0.15597599744796753
(PID.TID 0000.0001)         System time:  1.49969980120658875E-002
(PID.TID 0000.0001)     Wall clock time:   2.8890650272369385
(PID.TID 0000.0001)          No. starts:           1
(PID.TID 0000.0001)           No. stops:           1
(PID.TID 0000.0001)   Seconds in section "MAIN LOOP           [THE_MAIN_LOOP]":
(PID.TID 0000.0001)           User time:   13.705917060375214
(PID.TID 0000.0001)         System time:  7.19890072941780090E-002
(PID.TID 0000.0001)     Wall clock time:   30.344236135482788
(PID.TID 0000.0001)          No. starts:           1
(PID.TID 0000.0001)           No. stops:           1
(PID.TID 0000.0001)   Seconds in section "MAIN_DO_LOOP        [THE_MAIN_LOOP]":
(PID.TID 0000.0001)           User time:   13.704918563365936
(PID.TID 0000.0001)         System time:  7.19890072941780090E-002
(PID.TID 0000.0001)     Wall clock time:   30.344005107879639
(PID.TID 0000.0001)          No. starts:          24
(PID.TID 0000.0001)           No. stops:          24
(PID.TID 0000.0001)   Seconds in section "FORWARD_STEP        [MAIN_DO_LOOP]":
(PID.TID 0000.0001)           User time:   13.704918563365936
(PID.TID 0000.0001)         System time:  7.19890072941780090E-002
(PID.TID 0000.0001)     Wall clock time:   30.343568086624146
(PID.TID 0000.0001)          No. starts:          24
(PID.TID 0000.0001)           No. stops:          24
(PID.TID 0000.0001)   Seconds in section "DO_STATEVARS_DIAGS  [FORWARD_STEP]":
(PID.TID 0000.0001)           User time:  5.99718093872070313E-003
(PID.TID 0000.0001)         System time:   0.0000000000000000
(PID.TID 0000.0001)     Wall clock time:  4.48632240295410156E-003
(PID.TID 0000.0001)          No. starts:          72
(PID.TID 0000.0001)           No. stops:          72
(PID.TID 0000.0001)   Seconds in section "LOAD_FIELDS_DRIVER  [FORWARD_STEP]":
(PID.TID 0000.0001)           User time:  2.99937725067138672E-002
(PID.TID 0000.0001)         System time:   0.0000000000000000
(PID.TID 0000.0001)     Wall clock time:  3.03745269775390625E-002
(PID.TID 0000.0001)          No. starts:          24
(PID.TID 0000.0001)           No. stops:          24
(PID.TID 0000.0001)   Seconds in section "EXTERNAL_FLDS_LOAD [LOAD_FLDS_DRIVER]":
(PID.TID 0000.0001)           User time:  1.00040435791015625E-003
(PID.TID 0000.0001)         System time:   0.0000000000000000
(PID.TID 0000.0001)     Wall clock time:  2.37464904785156250E-004
(PID.TID 0000.0001)          No. starts:          24
(PID.TID 0000.0001)           No. stops:          24
(PID.TID 0000.0001)   Seconds in section "CHEAPAML      [FORWARD_STEP]":
(PID.TID 0000.0001)           User time:   4.6093006730079651
(PID.TID 0000.0001)         System time:  4.00000810623168945E-003
(PID.TID 0000.0001)     Wall clock time:   4.6409232616424561
(PID.TID 0000.0001)          No. starts:          24
(PID.TID 0000.0001)           No. stops:          24
(PID.TID 0000.0001)   Seconds in section "DO_ATMOSPHERIC_PHYS [FORWARD_STEP]":
(PID.TID 0000.0001)           User time:   0.0000000000000000
(PID.TID 0000.0001)         System time:   0.0000000000000000
(PID.TID 0000.0001)     Wall clock time:  2.25305557250976563E-004
(PID.TID 0000.0001)          No. starts:          24
(PID.TID 0000.0001)           No. stops:          24
(PID.TID 0000.0001)   Seconds in section "DO_OCEANIC_PHYS     [FORWARD_STEP]":
(PID.TID 0000.0001)           User time:  7.49936103820800781E-002
(PID.TID 0000.0001)         System time:   0.0000000000000000
(PID.TID 0000.0001)     Wall clock time:  7.88874626159667969E-002
(PID.TID 0000.0001)          No. starts:          24
(PID.TID 0000.0001)           No. stops:          24
(PID.TID 0000.0001)   Seconds in section "DYNAMICS            [FORWARD_STEP]":
(PID.TID 0000.0001)           User time:   1.0198397040367126
(PID.TID 0000.0001)         System time:   0.0000000000000000
(PID.TID 0000.0001)     Wall clock time:   1.0195760726928711
(PID.TID 0000.0001)          No. starts:          24
(PID.TID 0000.0001)           No. stops:          24
(PID.TID 0000.0001)   Seconds in section "SOLVE_FOR_PRESSURE  [FORWARD_STEP]":
(PID.TID 0000.0001)           User time:   6.2000610232353210
(PID.TID 0000.0001)         System time:   0.0000000000000000
(PID.TID 0000.0001)     Wall clock time:   6.2180187702178955
(PID.TID 0000.0001)          No. starts:          24
(PID.TID 0000.0001)           No. stops:          24
(PID.TID 0000.0001)   Seconds in section "MOM_CORRECTION_STEP [FORWARD_STEP]":
(PID.TID 0000.0001)           User time:  8.09907913208007813E-002
(PID.TID 0000.0001)         System time:   0.0000000000000000
(PID.TID 0000.0001)     Wall clock time:  8.17298889160156250E-002
(PID.TID 0000.0001)          No. starts:          24
(PID.TID 0000.0001)           No. stops:          24
(PID.TID 0000.0001)   Seconds in section "INTEGR_CONTINUITY   [FORWARD_STEP]":
(PID.TID 0000.0001)           User time:  4.39902544021606445E-002
(PID.TID 0000.0001)         System time:   0.0000000000000000
(PID.TID 0000.0001)     Wall clock time:  4.28659915924072266E-002
(PID.TID 0000.0001)          No. starts:          24
(PID.TID 0000.0001)           No. stops:          24
(PID.TID 0000.0001)   Seconds in section "BLOCKING_EXCHANGES  [FORWARD_STEP]":
(PID.TID 0000.0001)           User time:  1.79969072341918945E-002
(PID.TID 0000.0001)         System time:   0.0000000000000000
(PID.TID 0000.0001)     Wall clock time:  2.11489200592041016E-002
(PID.TID 0000.0001)          No. starts:          48
(PID.TID 0000.0001)           No. stops:          48
(PID.TID 0000.0001)   Seconds in section "THERMODYNAMICS      [FORWARD_STEP]":
(PID.TID 0000.0001)           User time:  0.80288064479827881
(PID.TID 0000.0001)         System time:   0.0000000000000000
(PID.TID 0000.0001)     Wall clock time:  0.80351591110229492
(PID.TID 0000.0001)          No. starts:          24
(PID.TID 0000.0001)           No. stops:          24
(PID.TID 0000.0001)   Seconds in section "TRC_CORRECTION_STEP [FORWARD_STEP]":
(PID.TID 0000.0001)           User time:   0.0000000000000000
(PID.TID 0000.0001)         System time:   0.0000000000000000
(PID.TID 0000.0001)     Wall clock time:  2.24113464355468750E-004
(PID.TID 0000.0001)          No. starts:          24
(PID.TID 0000.0001)           No. stops:          24
(PID.TID 0000.0001)   Seconds in section "MONITOR             [FORWARD_STEP]":
(PID.TID 0000.0001)           User time:  0.23096418380737305
(PID.TID 0000.0001)         System time:   0.0000000000000000
(PID.TID 0000.0001)     Wall clock time:  0.23203825950622559
(PID.TID 0000.0001)          No. starts:          24
(PID.TID 0000.0001)           No. stops:          24
(PID.TID 0000.0001)   Seconds in section "DO_THE_MODEL_IO     [FORWARD_STEP]":
(PID.TID 0000.0001)           User time:  0.57391166687011719
(PID.TID 0000.0001)         System time:  6.19899928569793701E-002
(PID.TID 0000.0001)     Wall clock time:   17.151718139648438
(PID.TID 0000.0001)          No. starts:          24
(PID.TID 0000.0001)           No. stops:          24
(PID.TID 0000.0001)   Seconds in section "DO_WRITE_PICKUP     [FORWARD_STEP]":
(PID.TID 0000.0001)           User time:  8.99887084960937500E-003
(PID.TID 0000.0001)         System time:  3.99900972843170166E-003
(PID.TID 0000.0001)     Wall clock time:  1.35622024536132813E-002
(PID.TID 0000.0001)          No. starts:          24
(PID.TID 0000.0001)           No. stops:          24
(PID.TID 0000.0001) // ======================================================
(PID.TID 0000.0001) // Tile <-> Tile communication statistics
(PID.TID 0000.0001) // ======================================================
(PID.TID 0000.0001) // o Tile number: 000001
(PID.TID 0000.0001) //         No. X exchanges =              0
(PID.TID 0000.0001) //            Max. X spins =              0
(PID.TID 0000.0001) //            Min. X spins =     1000000000
(PID.TID 0000.0001) //          Total. X spins =              0
(PID.TID 0000.0001) //            Avg. X spins =       0.00E+00
(PID.TID 0000.0001) //         No. Y exchanges =              0
(PID.TID 0000.0001) //            Max. Y spins =              0
(PID.TID 0000.0001) //            Min. Y spins =     1000000000
(PID.TID 0000.0001) //          Total. Y spins =              0
(PID.TID 0000.0001) //            Avg. Y spins =       0.00E+00
(PID.TID 0000.0001) // o Tile number: 000002
(PID.TID 0000.0001) //         No. X exchanges =              0
(PID.TID 0000.0001) //            Max. X spins =              0
(PID.TID 0000.0001) //            Min. X spins =     1000000000
(PID.TID 0000.0001) //          Total. X spins =              0
(PID.TID 0000.0001) //            Avg. X spins =       0.00E+00
(PID.TID 0000.0001) //         No. Y exchanges =              0
(PID.TID 0000.0001) //            Max. Y spins =              0
(PID.TID 0000.0001) //            Min. Y spins =     1000000000
(PID.TID 0000.0001) //          Total. Y spins =              0
(PID.TID 0000.0001) //            Avg. Y spins =       0.00E+00
(PID.TID 0000.0001) // o Tile number: 000003
(PID.TID 0000.0001) //         No. X exchanges =              0
(PID.TID 0000.0001) //            Max. X spins =              0
(PID.TID 0000.0001) //            Min. X spins =     1000000000
(PID.TID 0000.0001) //          Total. X spins =              0
(PID.TID 0000.0001) //            Avg. X spins =       0.00E+00
(PID.TID 0000.0001) //         No. Y exchanges =              0
(PID.TID 0000.0001) //            Max. Y spins =              0
(PID.TID 0000.0001) //            Min. Y spins =     1000000000
(PID.TID 0000.0001) //          Total. Y spins =              0
(PID.TID 0000.0001) //            Avg. Y spins =       0.00E+00
(PID.TID 0000.0001) // o Tile number: 000004
(PID.TID 0000.0001) //         No. X exchanges =              0
(PID.TID 0000.0001) //            Max. X spins =              0
(PID.TID 0000.0001) //            Min. X spins =     1000000000
(PID.TID 0000.0001) //          Total. X spins =              0
(PID.TID 0000.0001) //            Avg. X spins =       0.00E+00
(PID.TID 0000.0001) //         No. Y exchanges =              0
(PID.TID 0000.0001) //            Max. Y spins =              0
(PID.TID 0000.0001) //            Min. Y spins =     1000000000
(PID.TID 0000.0001) //          Total. Y spins =              0
(PID.TID 0000.0001) //            Avg. Y spins =       0.00E+00
(PID.TID 0000.0001) // o Tile number: 000005
(PID.TID 0000.0001) //         No. X exchanges =              0
(PID.TID 0000.0001) //            Max. X spins =              0
(PID.TID 0000.0001) //            Min. X spins =     1000000000
(PID.TID 0000.0001) //          Total. X spins =              0
(PID.TID 0000.0001) //            Avg. X spins =       0.00E+00
(PID.TID 0000.0001) //         No. Y exchanges =              0
(PID.TID 0000.0001) //            Max. Y spins =              0
(PID.TID 0000.0001) //            Min. Y spins =     1000000000
(PID.TID 0000.0001) //          Total. Y spins =              0
(PID.TID 0000.0001) //            Avg. Y spins =       0.00E+00
(PID.TID 0000.0001) // o Tile number: 000006
(PID.TID 0000.0001) //         No. X exchanges =              0
(PID.TID 0000.0001) //            Max. X spins =              0
(PID.TID 0000.0001) //            Min. X spins =     1000000000
(PID.TID 0000.0001) //          Total. X spins =              0
(PID.TID 0000.0001) //            Avg. X spins =       0.00E+00
(PID.TID 0000.0001) //         No. Y exchanges =              0
(PID.TID 0000.0001) //            Max. Y spins =              0
(PID.TID 0000.0001) //            Min. Y spins =     1000000000
(PID.TID 0000.0001) //          Total. Y spins =              0
(PID.TID 0000.0001) //            Avg. Y spins =       0.00E+00
(PID.TID 0000.0001) // o Tile number: 000007
(PID.TID 0000.0001) //         No. X exchanges =              0
(PID.TID 0000.0001) //            Max. X spins =              0
(PID.TID 0000.0001) //            Min. X spins =     1000000000
(PID.TID 0000.0001) //          Total. X spins =              0
(PID.TID 0000.0001) //            Avg. X spins =       0.00E+00
(PID.TID 0000.0001) //         No. Y exchanges =              0
(PID.TID 0000.0001) //            Max. Y spins =              0
(PID.TID 0000.0001) //            Min. Y spins =     1000000000
(PID.TID 0000.0001) //          Total. Y spins =              0
(PID.TID 0000.0001) //            Avg. Y spins =       0.00E+00
(PID.TID 0000.0001) // o Tile number: 000008
(PID.TID 0000.0001) //         No. X exchanges =              0
(PID.TID 0000.0001) //            Max. X spins =              0
(PID.TID 0000.0001) //            Min. X spins =     1000000000
(PID.TID 0000.0001) //          Total. X spins =              0
(PID.TID 0000.0001) //            Avg. X spins =       0.00E+00
(PID.TID 0000.0001) //         No. Y exchanges =              0
(PID.TID 0000.0001) //            Max. Y spins =              0
(PID.TID 0000.0001) //            Min. Y spins =     1000000000
(PID.TID 0000.0001) //          Total. Y spins =              0
(PID.TID 0000.0001) //            Avg. Y spins =       0.00E+00
(PID.TID 0000.0001) // o Thread number: 000001
(PID.TID 0000.0001) //            No. barriers =          11468
(PID.TID 0000.0001) //      Max. barrier spins =              1
(PID.TID 0000.0001) //      Min. barrier spins =              1
(PID.TID 0000.0001) //     Total barrier spins =          11468
(PID.TID 0000.0001) //      Avg. barrier spins =       1.00E+00
PROGRAM MAIN: Execution ended Normally
