(PID.TID 0000.0001) 
(PID.TID 0000.0001) // ======================================================
(PID.TID 0000.0001) //                      MITgcm UV
(PID.TID 0000.0001) //                      =========
(PID.TID 0000.0001) // ======================================================
(PID.TID 0000.0001) // execution environment starting up...
(PID.TID 0000.0001) 
(PID.TID 0000.0001) // MITgcmUV version:  checkpoint63f
(PID.TID 0000.0001) // Build user:        jmc
(PID.TID 0000.0001) // Build host:        baudelaire
(PID.TID 0000.0001) // Build date:        Thu Dec  1 05:42:43 EST 2011
(PID.TID 0000.0001) 
(PID.TID 0000.0001) // =======================================================
(PID.TID 0000.0001) // Execution Environment parameter file "eedata"
(PID.TID 0000.0001) // =======================================================
(PID.TID 0000.0001) ># Example "eedata" file
(PID.TID 0000.0001) ># Lines beginning "#" are comments
(PID.TID 0000.0001) ># nTx - No. threads per process in X
(PID.TID 0000.0001) ># nTy - No. threads per process in Y
(PID.TID 0000.0001) > &EEPARMS
(PID.TID 0000.0001) > nTx=1,
(PID.TID 0000.0001) > nTy=1,
(PID.TID 0000.0001) > /
(PID.TID 0000.0001) ># Note: Some systems use & as the
(PID.TID 0000.0001) ># namelist terminator. Other systems
(PID.TID 0000.0001) ># use a / character (as shown here).
(PID.TID 0000.0001) ># BUT some compilers do not understand "/"
(PID.TID 0000.0001) 
(PID.TID 0000.0001) // =======================================================
(PID.TID 0000.0001) // Computational Grid Specification ( see files "SIZE.h" )
(PID.TID 0000.0001) //                                  ( and "eedata"       )
(PID.TID 0000.0001) // =======================================================
(PID.TID 0000.0001)      nPx =    1 ; /* No. processes in X */
(PID.TID 0000.0001)      nPy =    1 ; /* No. processes in Y */
(PID.TID 0000.0001)      nSx =    1 ; /* No. tiles in X per process */
(PID.TID 0000.0001)      nSy =    2 ; /* No. tiles in Y per process */
(PID.TID 0000.0001)      sNx =   90 ; /* Tile size in X */
(PID.TID 0000.0001)      sNy =   20 ; /* Tile size in Y */
(PID.TID 0000.0001)      OLx =    2 ; /* Tile overlap distance in X */
(PID.TID 0000.0001)      OLy =    2 ; /* Tile overlap distance in Y */
(PID.TID 0000.0001)      nTx =    1 ; /* No. threads in X per process */
(PID.TID 0000.0001)      nTy =    1 ; /* No. threads in Y per process */
(PID.TID 0000.0001)       Nr =   15 ; /* No. levels in the vertical   */
(PID.TID 0000.0001)       Nx =   90 ; /* Total domain size in X ( = nPx*nSx*sNx ) */
(PID.TID 0000.0001)       Ny =   40 ; /* Total domain size in Y ( = nPy*nSy*sNy ) */
(PID.TID 0000.0001)   nTiles =    2 ; /* Total no. tiles per process ( = nSx*nSy ) */
(PID.TID 0000.0001)   nProcs =    1 ; /* Total no. processes ( = nPx*nPy ) */
(PID.TID 0000.0001) nThreads =    1 ; /* Total no. threads per process ( = nTx*nTy ) */
(PID.TID 0000.0001) usingMPI =    F ; /* Flag used to control whether MPI is in use */
(PID.TID 0000.0001)                   /*  note: To execute a program with MPI calls */
(PID.TID 0000.0001)                   /*  it must be launched appropriately e.g     */
(PID.TID 0000.0001)                   /*  "mpirun -np 64 ......"                    */
(PID.TID 0000.0001) useCoupler=    F ;/* Flag used to control communications with   */
(PID.TID 0000.0001)                   /*  other model components, through a coupler */
(PID.TID 0000.0001) debugMode =    F ; /* print debug msg. (sequence of S/R calls)  */
(PID.TID 0000.0001) printMapIncludesZeros=    F ; /* print zeros in Std.Output maps */
(PID.TID 0000.0001) maxLengthPrt1D=   65 /* maxLength of 1D array printed to StdOut */
(PID.TID 0000.0001) 
(PID.TID 0000.0001) // ======================================================
(PID.TID 0000.0001) // Mapping of tiles to threads
(PID.TID 0000.0001) // ======================================================
(PID.TID 0000.0001) // -o- Thread   1, tiles (   1:   1,   1:   2)
(PID.TID 0000.0001) 
(PID.TID 0000.0001) // ======================================================
(PID.TID 0000.0001) // Tile <-> Tile connectvity table
(PID.TID 0000.0001) // ======================================================
(PID.TID 0000.0001) // Tile number: 000001 (process no. = 000001)
(PID.TID 0000.0001) //        WEST: Tile = 000001, Process = 000001, Comm = put
(PID.TID 0000.0001) //                bi = 000001, bj = 000001
(PID.TID 0000.0001) //        EAST: Tile = 000001, Process = 000001, Comm = put
(PID.TID 0000.0001) //                bi = 000001, bj = 000001
(PID.TID 0000.0001) //       SOUTH: Tile = 000002, Process = 000001, Comm = put
(PID.TID 0000.0001) //                bi = 000001, bj = 000002
(PID.TID 0000.0001) //       NORTH: Tile = 000002, Process = 000001, Comm = put
(PID.TID 0000.0001) //                bi = 000001, bj = 000002
(PID.TID 0000.0001) // Tile number: 000002 (process no. = 000001)
(PID.TID 0000.0001) //        WEST: Tile = 000002, Process = 000001, Comm = put
(PID.TID 0000.0001) //                bi = 000001, bj = 000002
(PID.TID 0000.0001) //        EAST: Tile = 000002, Process = 000001, Comm = put
(PID.TID 0000.0001) //                bi = 000001, bj = 000002
(PID.TID 0000.0001) //       SOUTH: Tile = 000001, Process = 000001, Comm = put
(PID.TID 0000.0001) //                bi = 000001, bj = 000001
(PID.TID 0000.0001) //       NORTH: Tile = 000001, Process = 000001, Comm = put
(PID.TID 0000.0001) //                bi = 000001, bj = 000001
(PID.TID 0000.0001) 
(PID.TID 0000.0001)  INI_PARMS: opening model parameter file "data"
(PID.TID 0000.0001)  OPEN_COPY_DATA_FILE: opening file data
(PID.TID 0000.0001) // =======================================================
(PID.TID 0000.0001) // Parameter file "data"
(PID.TID 0000.0001) // =======================================================
(PID.TID 0000.0001) ># ====================
(PID.TID 0000.0001) ># | Model parameters |
(PID.TID 0000.0001) ># ====================
(PID.TID 0000.0001) >#
(PID.TID 0000.0001) ># Continuous equation parameters
(PID.TID 0000.0001) > &PARM01
(PID.TID 0000.0001) > tRef=15*20.,
(PID.TID 0000.0001) > sRef=15*35.,
(PID.TID 0000.0001) > viscAh =3.E5,
(PID.TID 0000.0001) > no_slip_sides=.TRUE.,
(PID.TID 0000.0001) > viscAr =1.721611620915750e5,
(PID.TID 0000.0001) >#viscAz =1.67E-3,
(PID.TID 0000.0001) > no_slip_bottom=.FALSE.,
(PID.TID 0000.0001) > diffKhT=1.E3,
(PID.TID 0000.0001) > diffKrT=5.154525811125000e3,
(PID.TID 0000.0001) >#diffKzT=0.5E-4,
(PID.TID 0000.0001) > diffKhS=1.E3,
(PID.TID 0000.0001) > diffKrS=5.154525811125000e3,
(PID.TID 0000.0001) >#diffKzS=0.5E-4,
(PID.TID 0000.0001) > implicitDiffusion=.TRUE.,
(PID.TID 0000.0001) > ivdc_kappa=1.030905162225000e9,
(PID.TID 0000.0001) >#ivdc_kappa=10.0,
(PID.TID 0000.0001) > rotationPeriod=86400.,
(PID.TID 0000.0001) > gravity=9.81,
(PID.TID 0000.0001) > rhonil=1035.,
(PID.TID 0000.0001) > rhoConstFresh=999.8,
(PID.TID 0000.0001) > buoyancyRelation='OCEANICP',
(PID.TID 0000.0001) > integr_GeoPot=1,
(PID.TID 0000.0001) > eosType='JMD95P',
(PID.TID 0000.0001) > useNHMTerms=.TRUE.,
(PID.TID 0000.0001) > rigidLid=.FALSE.,
(PID.TID 0000.0001) > implicitFreeSurface=.TRUE.,
(PID.TID 0000.0001) > exactConserv=.TRUE.,
(PID.TID 0000.0001) > nonlinFreeSurf=4,
(PID.TID 0000.0001) > hFacInf=0.2,
(PID.TID 0000.0001) > hFacSup=2.0,
(PID.TID 0000.0001) >#useRealFreshWaterFlux=.TRUE.,
(PID.TID 0000.0001) > readBinaryPrec=64,
(PID.TID 0000.0001) > writeBinaryPrec=64,
(PID.TID 0000.0001) > cosPower=0.5,
(PID.TID 0000.0001) > /
(PID.TID 0000.0001) >
(PID.TID 0000.0001) ># Elliptic solver parameters
(PID.TID 0000.0001) > &PARM02
(PID.TID 0000.0001) > cg2dMaxIters=200,
(PID.TID 0000.0001) > cg2dTargetResidual=1.E-9,
(PID.TID 0000.0001) > /
(PID.TID 0000.0001) >
(PID.TID 0000.0001) ># Time stepping parameters
(PID.TID 0000.0001) > &PARM03
(PID.TID 0000.0001) > startTime =           0.,
(PID.TID 0000.0001) > endTime   =     3456000.,
(PID.TID 0000.0001) ># after 100 years of intergration, one gets a reasonable flow field
(PID.TID 0000.0001) >#endTime   = 3110400000.,
(PID.TID 0000.0001) > deltaTmom      =   1200.0,
(PID.TID 0000.0001) > deltaTtracer   = 172800.0,
(PID.TID 0000.0001) > deltaTfreesurf = 172800.0,
(PID.TID 0000.0001) > deltaTClock    = 172800.0,
(PID.TID 0000.0001) > pChkptFreq  = 3110400000.,
(PID.TID 0000.0001) > dumpFreq    = 3110400000.,
(PID.TID 0000.0001) > taveFreq    = 3110400000.,
(PID.TID 0000.0001) > monitorFreq =   1.,
(PID.TID 0000.0001) > periodicExternalForcing=.TRUE.,
(PID.TID 0000.0001) > externForcingPeriod=2592000.,
(PID.TID 0000.0001) > externForcingCycle=31104000.,
(PID.TID 0000.0001) > tauThetaClimRelax=5184000.0,
(PID.TID 0000.0001) > abEps=0.1,
(PID.TID 0000.0001) > /
(PID.TID 0000.0001) >
(PID.TID 0000.0001) ># Gridding parameters
(PID.TID 0000.0001) > &PARM04
(PID.TID 0000.0001) > usingSphericalPolarGrid=.TRUE.,
(PID.TID 0000.0001) > dXspacing=4.,
(PID.TID 0000.0001) > dYspacing=4.,
(PID.TID 0000.0001) > Ro_SeaLevel=53023122.566084,
(PID.TID 0000.0001) > delR=7103300.720021, 6570548.440790, 6041670.010249,
(PID.TID 0000.0001) >      5516436.666057, 4994602.034410, 4475903.435290,
(PID.TID 0000.0001) >      3960063.245801, 3446790.312651, 2935781.405664,
(PID.TID 0000.0001) >      2426722.705046, 1919291.315988, 1413156.804970,
(PID.TID 0000.0001) >      1008846.750166,  705919.025481,  504089.693499,
(PID.TID 0000.0001) > ygOrigin=-80.,
(PID.TID 0000.0001) > /
(PID.TID 0000.0001) >
(PID.TID 0000.0001) ># Input datasets
(PID.TID 0000.0001) > &PARM05
(PID.TID 0000.0001) > bathyFile      ='topog.bin',
(PID.TID 0000.0001) > pLoadFile      ='deltageopotjmd95.bin',
(PID.TID 0000.0001) > hydrogThetaFile='lev_t.bin',
(PID.TID 0000.0001) > hydrogSaltFile ='lev_s.bin',
(PID.TID 0000.0001) > zonalWindFile  ='trenberth_taux.bin',
(PID.TID 0000.0001) > meridWindFile  ='trenberth_tauy.bin',
(PID.TID 0000.0001) > thetaClimFile  ='lev_sst.bin',
(PID.TID 0000.0001) >#saltClimFile   ='lev_sss.bin',
(PID.TID 0000.0001) > surfQFile      ='shi_qnet.bin',
(PID.TID 0000.0001) > EmPmRFile      ='shi_empmr.bin',
(PID.TID 0000.0001) > /
(PID.TID 0000.0001) 
(PID.TID 0000.0001)  INI_PARMS ; starts to read PARM01
(PID.TID 0000.0001)  INI_PARMS ; read PARM01 : OK
(PID.TID 0000.0001)  INI_PARMS ; starts to read PARM02
(PID.TID 0000.0001)  INI_PARMS ; read PARM02 : OK
(PID.TID 0000.0001)  INI_PARMS ; starts to read PARM03
(PID.TID 0000.0001)  INI_PARMS ; read PARM03 : OK
(PID.TID 0000.0001)  INI_PARMS ; starts to read PARM04
(PID.TID 0000.0001)  INI_PARMS ; read PARM04 : OK
(PID.TID 0000.0001)  INI_PARMS ; starts to read PARM05
(PID.TID 0000.0001)  INI_PARMS ; read PARM05 : OK
(PID.TID 0000.0001)  INI_PARMS: finished reading file "data"
(PID.TID 0000.0001)  PACKAGES_BOOT: opening data.pkg
(PID.TID 0000.0001)  OPEN_COPY_DATA_FILE: opening file data.pkg
(PID.TID 0000.0001) // =======================================================
(PID.TID 0000.0001) // Parameter file "data.pkg"
(PID.TID 0000.0001) // =======================================================
(PID.TID 0000.0001) ># Packages
(PID.TID 0000.0001) > &PACKAGES
(PID.TID 0000.0001) > /
(PID.TID 0000.0001) 
(PID.TID 0000.0001)  PACKAGES_BOOT: finished reading data.pkg
(PID.TID 0000.0001) SET_PARMS: done
(PID.TID 0000.0001) Enter INI_VERTICAL_GRID: setInterFDr=    T ; setCenterDr=    F
(PID.TID 0000.0001) %MON XC_max                       =   3.5800000000000E+02
(PID.TID 0000.0001) %MON XC_min                       =   2.0000000000000E+00
(PID.TID 0000.0001) %MON XC_mean                      =   1.8000000000000E+02
(PID.TID 0000.0001) %MON XC_sd                        =   1.0391663325314E+02
(PID.TID 0000.0001) %MON XG_max                       =   3.5600000000000E+02
(PID.TID 0000.0001) %MON XG_min                       =   0.0000000000000E+00
(PID.TID 0000.0001) %MON XG_mean                      =   1.7800000000000E+02
(PID.TID 0000.0001) %MON XG_sd                        =   1.0391663325314E+02
(PID.TID 0000.0001) %MON DXC_max                      =   4.4443898815675E+05
(PID.TID 0000.0001) %MON DXC_min                      =   9.2460385861875E+04
(PID.TID 0000.0001) %MON DXC_mean                     =   3.1372497618153E+05
(PID.TID 0000.0001) %MON DXC_sd                       =   1.1216447457560E+05
(PID.TID 0000.0001) %MON DXF_max                      =   4.4443898815675E+05
(PID.TID 0000.0001) %MON DXF_min                      =   9.2460385861875E+04
(PID.TID 0000.0001) %MON DXF_mean                     =   3.1372497618153E+05
(PID.TID 0000.0001) %MON DXF_sd                       =   1.1216447457560E+05
(PID.TID 0000.0001) %MON DXG_max                      =   4.4470989340816E+05
(PID.TID 0000.0001) %MON DXG_min                      =   7.7223062580781E+04
(PID.TID 0000.0001) %MON DXG_mean                     =   3.1353386340261E+05
(PID.TID 0000.0001) %MON DXG_sd                       =   1.1256651772502E+05
(PID.TID 0000.0001) %MON DXV_max                      =   4.4470989340816E+05
(PID.TID 0000.0001) %MON DXV_min                      =   7.7223062580781E+04
(PID.TID 0000.0001) %MON DXV_mean                     =   3.1353386340261E+05
(PID.TID 0000.0001) %MON DXV_sd                       =   1.1256651772502E+05
(PID.TID 0000.0001) %MON YC_max                       =   7.8000000000000E+01
(PID.TID 0000.0001) %MON YC_min                       =  -7.8000000000000E+01
(PID.TID 0000.0001) %MON YC_mean                      =   0.0000000000000E+00
(PID.TID 0000.0001) %MON YC_sd                        =   4.6173585522461E+01
(PID.TID 0000.0001) %MON YG_max                       =   7.6000000000000E+01
(PID.TID 0000.0001) %MON YG_min                       =  -8.0000000000000E+01
(PID.TID 0000.0001) %MON YG_mean                      =  -2.0000000000000E+00
(PID.TID 0000.0001) %MON YG_sd                        =   4.6173585522461E+01
(PID.TID 0000.0001) %MON DYC_max                      =   4.4470989340816E+05
(PID.TID 0000.0001) %MON DYC_min                      =   4.4470989340816E+05
(PID.TID 0000.0001) %MON DYC_mean                     =   4.4470989340817E+05
(PID.TID 0000.0001) %MON DYC_sd                       =   1.4668330550194E-08
(PID.TID 0000.0001) %MON DYF_max                      =   4.4470989340816E+05
(PID.TID 0000.0001) %MON DYF_min                      =   4.4470989340816E+05
(PID.TID 0000.0001) %MON DYF_mean                     =   4.4470989340817E+05
(PID.TID 0000.0001) %MON DYF_sd                       =   1.4668330550194E-08
(PID.TID 0000.0001) %MON DYG_max                      =   4.4470989340816E+05
(PID.TID 0000.0001) %MON DYG_min                      =   4.4470989340816E+05
(PID.TID 0000.0001) %MON DYG_mean                     =   4.4470989340817E+05
(PID.TID 0000.0001) %MON DYG_sd                       =   1.4668330550194E-08
(PID.TID 0000.0001) %MON DYU_max                      =   4.4470989340816E+05
(PID.TID 0000.0001) %MON DYU_min                      =   4.4470989340816E+05
(PID.TID 0000.0001) %MON DYU_mean                     =   4.4470989340817E+05
(PID.TID 0000.0001) %MON DYU_sd                       =   1.4668330550194E-08
(PID.TID 0000.0001) %MON RA_max                       =   1.9760627980089E+11
(PID.TID 0000.0001) %MON RA_min                       =   4.1109698667290E+10
(PID.TID 0000.0001) %MON RA_mean                      =   1.3948826965196E+11
(PID.TID 0000.0001) %MON RA_sd                        =   4.9870522472901E+10
(PID.TID 0000.0001) %MON RAW_max                      =   1.9760627980089E+11
(PID.TID 0000.0001) %MON RAW_min                      =   4.1109698667290E+10
(PID.TID 0000.0001) %MON RAW_mean                     =   1.3948826965196E+11
(PID.TID 0000.0001) %MON RAW_sd                       =   4.9870522472901E+10
(PID.TID 0000.0001) %MON RAS_max                      =   1.9772672958215E+11
(PID.TID 0000.0001) %MON RAS_min                      =   3.4334886267983E+10
(PID.TID 0000.0001) %MON RAS_mean                     =   1.3940329716694E+11
(PID.TID 0000.0001) %MON RAS_sd                       =   5.0049278732353E+10
(PID.TID 0000.0001) %MON RAZ_max                      =   1.9772672958215E+11
(PID.TID 0000.0001) %MON RAZ_min                      =   3.4334886267983E+10
(PID.TID 0000.0001) %MON RAZ_mean                     =   1.3940329716694E+11
(PID.TID 0000.0001) %MON RAZ_sd                       =   5.0049278732353E+10
(PID.TID 0000.0001) %MON AngleCS_max                  =   1.0000000000000E+00
(PID.TID 0000.0001) %MON AngleCS_min                  =   1.0000000000000E+00
(PID.TID 0000.0001) %MON AngleCS_mean                 =   1.0000000000000E+00
(PID.TID 0000.0001) %MON AngleCS_sd                   =   0.0000000000000E+00
(PID.TID 0000.0001) %MON AngleSN_max                  =   0.0000000000000E+00
(PID.TID 0000.0001) %MON AngleSN_min                  =   0.0000000000000E+00
(PID.TID 0000.0001) %MON AngleSN_mean                 =   0.0000000000000E+00
(PID.TID 0000.0001) %MON AngleSN_sd                   =   0.0000000000000E+00
(PID.TID 0000.0001)  MDS_READ_FIELD: opening global file: topog.bin
(PID.TID 0000.0001) // =======================================================
(PID.TID 0000.0001) // Field Model R_low (ini_masks_etc)
(PID.TID 0000.0001) // CMIN =          1.008622348308563E-06
(PID.TID 0000.0001) // CMAX =          1.008622348308563E-06
(PID.TID 0000.0001) // CINT =          0.000000000000000E+00
(PID.TID 0000.0001) // SYMBOLS (CMIN->CMAX): -abcdefghijklmnopqrstuvwxyz+
(PID.TID 0000.0001) //                  0.0: .
(PID.TID 0000.0001) // RANGE I (Lo:Hi:Step):(    -1:    92:     1)
(PID.TID 0000.0001) // RANGE J (Lo:Hi:Step):(    42:    -1:    -1)
(PID.TID 0000.0001) // RANGE K (Lo:Hi:Step):(   1:   1:   1)
(PID.TID 0000.0001) // =======================================================
(PID.TID 0000.0001) // =======================================================
(PID.TID 0000.0001) // END OF FIELD                                          =
(PID.TID 0000.0001) // =======================================================
(PID.TID 0000.0001) 
(PID.TID 0000.0001) // =======================================================
(PID.TID 0000.0001) // Field Model Ro_surf (ini_masks_etc)
(PID.TID 0000.0001) // CMIN =          1.008622348308563E-06
(PID.TID 0000.0001) // CMAX =          5.302312256608400E+07
(PID.TID 0000.0001) // CINT =          1.963819354299370E+06
(PID.TID 0000.0001) // SYMBOLS (CMIN->CMAX): -abcdefghijklmnopqrstuvwxyz+
(PID.TID 0000.0001) //                  0.0: .
(PID.TID 0000.0001) // RANGE I (Lo:Hi:Step):(    -1:    92:     1)
(PID.TID 0000.0001) // RANGE J (Lo:Hi:Step):(    42:    -1:    -1)
(PID.TID 0000.0001) // RANGE K (Lo:Hi:Step):(   1:   1:   1)
(PID.TID 0000.0001) // =======================================================
(PID.TID 0000.0001) K =   1
(PID.TID 0000.0001) //                I=8       I=18      I=28      I=38      I=48      I=58      I=68      I=78      I=88
(PID.TID 0000.0001) // |--J--|101234567|901234567|901234567|901234567|901234567|901234567|901234567|901234567|901234567|9012
(PID.TID 0000.0001) //     42 --------------------------------------------bbcdnttwwwttttqnnlfddc--abcc-----ccbcltttttba-----
(PID.TID 0000.0001) //     41 ----------------------------------------------------------------------------------------------
(PID.TID 0000.0001) //     40 innllaa-aaaaaaaaaaaaa------------------------------------------------------------------aaainnl
(PID.TID 0000.0001) //     39 gnnllibbaaaaaaaa---aa-----------------------------------------------------bdda--------abffgnnl
(PID.TID 0000.0001) //     38 nllllibbaaaaaaa-----------------------------------------------------------bddca------bccfgnlll
(PID.TID 0000.0001) //     37 nnnga------------------------------------------------------------------aa---bca---bggc--agnnng
(PID.TID 0000.0001) //     36 fgga-----------------------------------------nnaa--------------------aaaaaaabnnn-bllfggffcfgga
(PID.TID 0000.0001) //     35 aaaa---------------------------------aaaa--iinnqqa---atttn-----------aaa----annqqqnglllgddaaaa
(PID.TID 0000.0001) //     34 -------------------------------------affc-tticcfab-wwwttttn------------------anqttqqqtttna----
(PID.TID 0000.0001) //     33 a-------------------------------------ffa+++t+++++++++wwwtqna-----------------aifwwtnttttda---
(PID.TID 0000.0001) //     32 a-------------------------------------ag++++t++++++++++wwttnn----------------aaatwttqltttna---
(PID.TID 0000.0001) //     31 --------------------------------------++++++w++++++++++wwwtqn--------------iw++twwwtiltwwn----
(PID.TID 0000.0001) //     30 -------------------------------------t++++w++w+++++++++++++ww------------at++++twwwlgqtwwq----
(PID.TID 0000.0001) //     29 -----------------------------------gf++++t+++tqt+++++++++++wwt-----------w++w+++wtnqq++wtq----
(PID.TID 0000.0001) //     28 ---------------------------------actn+++++++++++++++++++wwwwwtq---------iw++++++wntww++wqa----
(PID.TID 0000.0001) //     27 ----------------cc--------------aftttlt++++++++w+nnw+++wwwwwwttt---aaac-iw++++++qt+++++t------
(PID.TID 0000.0001) //     26 ----------------cnn-----------afw+++wl+++++++++++qwtn++++++wwtttqg-aa-ii-c++++++tw++++wq------
(PID.TID 0000.0001) //     25 ----------------qttq---lla---atfw+++wl+++ww++qqtnt+++++++++wwtttqnn---iifnac+++wqw++wwqq------
(PID.TID 0000.0001) //     24 --------------cntwwtg-qqqa---ftt-++twn+++++++++++++++++++wwwwwttqnqqqf-afnnddwwwtw++++wt------
(PID.TID 0000.0001) //     23 --------------dttwwtl-ttqd---fff--tqtq++++ttw+++++w++++++wwwwwttqqqqqql----bbqwwwt++++ww------
(PID.TID 0000.0001) //     22 gii-----------wwwqttgnttqq---bb-dlqwwlltwwwwt++++++wt+w++wwwwwwtttqqqqii------dwwwttwwtwwigii-
(PID.TID 0000.0001) //     21 ++wqi--------nwwwwqtiwwwqqb-----dltwwqtttnwwt++++++wqwwwwwwwwwttttqnnill--------twwtqttwww++wq
(PID.TID 0000.0001) //     20 ++wwi-------nwwwwwtqwwwwqww------b-fqqqgiltttt+++++++wwwwwwwwwwtttqttqqn---------ntt+++ttw++ww
(PID.TID 0000.0001) //     19 ww++t-------qwwlittl+++qwwwwd---aba-----iannww++++t++++wwwwwwwwttqtttttt-----------w+++wqtww++
(PID.TID 0000.0001) //     22 gii-----------wwwqttgnttqq---bb-dlqwwlltwwwwt++++++wt+w++wwwwwwtttqqqqii------dwwwttwwtwwigii-
(PID.TID 0000.0001) //     21 ++wqi--------nwwwwqtiwwwqqb-----dltwwqtttnwwt++++++wqwwwwwwwwwttttqnnill--------twwtqttwww++wq
(PID.TID 0000.0001) //     20 ++wwi-------nwwwwwtqwwwwqww------b-fqqqgiltttt+++++++wwwwwwwwwwtttqttqqn---------ntt+++ttw++ww
(PID.TID 0000.0001) //     19 ww++t-------qwwlittl+++qwwwwd---aba-----iannww++++t++++wwwwwwwwttqtttttt-----------w+++wqtww++
(PID.TID 0000.0001) //     18 w+++w-------qtnttfqq+++qwww++w+qfaa---iiblntwwwwtwtq+++wwtwwwwwtqtttttwwa----------w+++wqtw+++
(PID.TID 0000.0001) //     17 w+++w-------q-twwdqt+++l+++++++qf-----iilnninnnltwww++wwwttttttnqttqtwwwq---------tw+++wqtw+++
(PID.TID 0000.0001) //     16 w+++w------gn-wwtnntw++i++++++nf-------flnnfnnndf+++wwqflnttttqntttttwwwqt--------it+++wqtw+++
(PID.TID 0000.0001) //     15 w++wlb----aqq-wwwttnwwwnw+++++f---------lggdllnf++++wwwwwtqtttqqtttttwwqttt------atw+++wqtw++w
(PID.TID 0000.0001) //     14 w++nwn----dwwi+++tqqqtwnw++w+tb---------ttgglttg++++++wwtwttqqqnqttqqqqtttt-----aqtw+++wntw++n
(PID.TID 0000.0001) //     13 wwn++t----nwwl+++qwwtqttliiw++n---------wwggittg++++++++wwwtttqqnqqttqttttl----aqttlwwwtntwwn+
(PID.TID 0000.0001) //     12 tt+++wdaqttwwnwntwwwtntqttww++wt+++a----wwigiilw+++++++++wwqtttqqqqqtttttt-----qwwwwttttnttt++
(PID.TID 0000.0001) //     11 tw+++w++qtwwwnnt++wwtlttttwww++++++++--wwwwng-nw+w+++++++++wwwtqntttqqtttt----n+++++wwtqnqtw++
(PID.TID 0000.0001) //     10 tw++ww+w++wtiqqt++wwtqnnnqttwwww+++++w-wwwwtd-nbiw+++++++++wwwtqnttwwttqtq--ad++++++wwttnqtw++
(PID.TID 0000.0001) //      9 ttwwwww+++llglntwtwtqqqttnnnttwwwwwwwwnwwwwt-fbt+++++++++++wwwtnqttwwwttqf-aad++++++wwwtqnttww
(PID.TID 0000.0001) //      8 tttqqqw++twwttwwwwfblqttttttnqqqttqqqtwtwwticfw++++++wwwwwwwttqnttwwwwwwta-aacttn++wtwwwtntttq
(PID.TID 0000.0001) //      7 ninnwwqqt++wnw++wwtgcqtwwwttwwwwwwwttnttwwntw++++++wwwwtttqtqnnttwww+++wwt-aaaintgfqtqwwwtninn
(PID.TID 0000.0001) //      6 w++++++++++++++++wwwnggwwwwwwwwwwwwwwtqqqqttw++++wwwtqnnqnwtww+++w+w+++wwwtqqqqtilnniwtqtww+++
(PID.TID 0000.0001) //      5 +++++++++++++++++wwwttttwwwwwwwwwwwwwtqqqlnlwwwwtttnnnqtwwww++++++++w+wwwwtqqqgitwwwwww+++++++
(PID.TID 0000.0001) //      4 ++tw++++++wwwqttttqqqttqqlbdnnllqqlnqqqqqnnnlnqlnnntttwwwwww+++++++wwwwwttnb--cqtwwwwww+++++tw
(PID.TID 0000.0001) //      3 ttttilqqqdcc----------------------------cclgnqqqqttwwwwwwwwwtttttwwwwttqqbb--ciqtwwwwwwwwttttt
(PID.TID 0000.0001) //      2 --------------------------------------------bbcdnttwwwttttqnnlfddc--abcc-----ccbcltttttba-----
(PID.TID 0000.0001) //      1 ----------------------------------------------------------------------------------------------
(PID.TID 0000.0001) //      0 innllaa-aaaaaaaaaaaaa------------------------------------------------------------------aaainnl
(PID.TID 0000.0001) //     -1 gnnllibbaaaaaaaa---aa-----------------------------------------------------bdda--------abffgnnl
(PID.TID 0000.0001) // =======================================================
(PID.TID 0000.0001) // END OF FIELD                                          =
(PID.TID 0000.0001) // =======================================================
(PID.TID 0000.0001) 
(PID.TID 0000.0001) // =======================================================
(PID.TID 0000.0001) // Field hFacC at iteration          0
(PID.TID 0000.0001) // CMIN =          1.000000000000000E+00
(PID.TID 0000.0001) // CMAX =          1.000000000000000E+00
(PID.TID 0000.0001) // CINT =          0.000000000000000E+00
(PID.TID 0000.0001) // SYMBOLS (CMIN->CMAX): -abcdefghijklmnopqrstuvwxyz+
(PID.TID 0000.0001) //                  0.0: .
(PID.TID 0000.0001) // RANGE I (Lo:Hi:Step):(    -1:    92:     1)
(PID.TID 0000.0001) // RANGE J (Lo:Hi:Step):(    42:    -1:    -1)
(PID.TID 0000.0001) // RANGE K (Lo:Hi:Step):(   1:   1:   1)
(PID.TID 0000.0001) // =======================================================
(PID.TID 0000.0001) // =======================================================
(PID.TID 0000.0001) // END OF FIELD                                          =
(PID.TID 0000.0001) // =======================================================
(PID.TID 0000.0001) 
(PID.TID 0000.0001) // =======================================================
(PID.TID 0000.0001) // Field hFacW at iteration          0
(PID.TID 0000.0001) // CMIN =          1.000000000000000E+00
(PID.TID 0000.0001) // CMAX =          1.000000000000000E+00
(PID.TID 0000.0001) // CINT =          0.000000000000000E+00
(PID.TID 0000.0001) // SYMBOLS (CMIN->CMAX): -abcdefghijklmnopqrstuvwxyz+
(PID.TID 0000.0001) //                  0.0: .
(PID.TID 0000.0001) // RANGE I (Lo:Hi:Step):(    -1:    92:     1)
(PID.TID 0000.0001) // RANGE J (Lo:Hi:Step):(    42:    -1:    -1)
(PID.TID 0000.0001) // RANGE K (Lo:Hi:Step):(   1:   1:   1)
(PID.TID 0000.0001) // =======================================================
(PID.TID 0000.0001) // =======================================================
(PID.TID 0000.0001) // END OF FIELD                                          =
(PID.TID 0000.0001) // =======================================================
(PID.TID 0000.0001) 
(PID.TID 0000.0001) // =======================================================
(PID.TID 0000.0001) // Field hFacS at iteration          0
(PID.TID 0000.0001) // CMIN =          1.000000000000000E+00
(PID.TID 0000.0001) // CMAX =          1.000000000000000E+00
(PID.TID 0000.0001) // CINT =          0.000000000000000E+00
(PID.TID 0000.0001) // SYMBOLS (CMIN->CMAX): -abcdefghijklmnopqrstuvwxyz+
(PID.TID 0000.0001) //                  0.0: .
(PID.TID 0000.0001) // RANGE I (Lo:Hi:Step):(    -1:    92:     1)
(PID.TID 0000.0001) // RANGE J (Lo:Hi:Step):(    42:    -1:    -1)
(PID.TID 0000.0001) // RANGE K (Lo:Hi:Step):(   1:   1:   1)
(PID.TID 0000.0001) // =======================================================
(PID.TID 0000.0001) // =======================================================
(PID.TID 0000.0001) // END OF FIELD                                          =
(PID.TID 0000.0001) // =======================================================
(PID.TID 0000.0001) 
(PID.TID 0000.0001) GAD_INIT_FIXED: GAD_OlMinSize=  1  0  1
(PID.TID 0000.0001) 
(PID.TID 0000.0001) // ===================================
(PID.TID 0000.0001) // GAD parameters :
(PID.TID 0000.0001) // ===================================
(PID.TID 0000.0001) tempAdvScheme =   /* Temp. Horiz.Advection scheme selector */
(PID.TID 0000.0001)                       2
(PID.TID 0000.0001)     ;
(PID.TID 0000.0001) tempVertAdvScheme =   /* Temp. Vert. Advection scheme selector */
(PID.TID 0000.0001)                       2
(PID.TID 0000.0001)     ;
(PID.TID 0000.0001) tempMultiDimAdvec =   /* use Muti-Dim Advec method for Temp */
(PID.TID 0000.0001)                   F
(PID.TID 0000.0001)     ;
(PID.TID 0000.0001) tempSOM_Advection = /* use 2nd Order Moment Advection for Temp */
(PID.TID 0000.0001)                   F
(PID.TID 0000.0001)     ;
(PID.TID 0000.0001) AdamsBashforthGt = /* apply Adams-Bashforth extrapolation on Gt */
(PID.TID 0000.0001)                   T
(PID.TID 0000.0001)     ;
(PID.TID 0000.0001) AdamsBashforth_T = /* apply Adams-Bashforth extrapolation on Temp */
(PID.TID 0000.0001)                   F
(PID.TID 0000.0001)     ;
(PID.TID 0000.0001) saltAdvScheme =   /* Salt. Horiz.advection scheme selector */
(PID.TID 0000.0001)                       2
(PID.TID 0000.0001)     ;
(PID.TID 0000.0001) saltVertAdvScheme =   /* Salt. Vert. Advection scheme selector */
(PID.TID 0000.0001)                       2
(PID.TID 0000.0001)     ;
(PID.TID 0000.0001) saltMultiDimAdvec =   /* use Muti-Dim Advec method for Salt */
(PID.TID 0000.0001)                   F
(PID.TID 0000.0001)     ;
(PID.TID 0000.0001) saltSOM_Advection = /* use 2nd Order Moment Advection for Salt */
(PID.TID 0000.0001)                   F
(PID.TID 0000.0001)     ;
(PID.TID 0000.0001) AdamsBashforthGs = /* apply Adams-Bashforth extrapolation on Gs */
(PID.TID 0000.0001)                   T
(PID.TID 0000.0001)     ;
(PID.TID 0000.0001) AdamsBashforth_S = /* apply Adams-Bashforth extrapolation on Salt */
(PID.TID 0000.0001)                   F
(PID.TID 0000.0001)     ;
(PID.TID 0000.0001) // ===================================
(PID.TID 0000.0001) %MON fCori_max                    =   1.4226580169407E-04
(PID.TID 0000.0001) %MON fCori_min                    =  -1.4226580169407E-04
(PID.TID 0000.0001) %MON fCori_mean                   =  -2.6213599192538E-19
(PID.TID 0000.0001) %MON fCori_sd                     =   9.6335367303779E-05
(PID.TID 0000.0001) %MON fCoriG_max                   =   1.4112379284621E-04
(PID.TID 0000.0001) %MON fCoriG_min                   =  -1.4323448157692E-04
(PID.TID 0000.0001) %MON fCoriG_mean                  =  -3.5808620394224E-06
(PID.TID 0000.0001) %MON fCoriG_sd                    =   9.6285194120964E-05
(PID.TID 0000.0001) %MON fCoriCos_max                 =   1.4535550371427E-04
(PID.TID 0000.0001) %MON fCoriCos_min                 =   3.0239529651320E-05
(PID.TID 0000.0001) %MON fCoriCos_mean                =   1.0260497651149E-04
(PID.TID 0000.0001) %MON fCoriCos_sd                  =   3.6683828681187E-05
(PID.TID 0000.0001) INI_CG2D: CG2D normalisation factor =  6.0025789459946987E-09
(PID.TID 0000.0001) 
(PID.TID 0000.0001) // =======================================================
(PID.TID 0000.0001) // Model configuration
(PID.TID 0000.0001) // =======================================================
(PID.TID 0000.0001) //
(PID.TID 0000.0001) // "Physical" paramters ( PARM01 in namelist )
(PID.TID 0000.0001) //
(PID.TID 0000.0001) buoyancyRelation = /* Type of relation to get Buoyancy */
(PID.TID 0000.0001)               'OCEANICP'
(PID.TID 0000.0001)     ;
(PID.TID 0000.0001) fluidIsAir   =  /* fluid major constituent is Air */
(PID.TID 0000.0001)                   F
(PID.TID 0000.0001)     ;
(PID.TID 0000.0001) fluidIsWater =  /* fluid major constituent is Water */
(PID.TID 0000.0001)                   T
(PID.TID 0000.0001)     ;
(PID.TID 0000.0001) usingPCoords =  /* use p (or p*) vertical coordinate */
(PID.TID 0000.0001)                   T
(PID.TID 0000.0001)     ;
(PID.TID 0000.0001) usingZCoords =  /* use z (or z*) vertical coordinate */
(PID.TID 0000.0001)                   F
(PID.TID 0000.0001)     ;
(PID.TID 0000.0001) tRef =   /* Reference temperature profile ( oC or K ) */
(PID.TID 0000.0001)    15 @  2.000000000000000E+01              /* K =  1: 15 */
(PID.TID 0000.0001)     ;
(PID.TID 0000.0001) sRef =   /* Reference salinity profile ( psu ) */
(PID.TID 0000.0001)    15 @  3.500000000000000E+01              /* K =  1: 15 */
(PID.TID 0000.0001)     ;
(PID.TID 0000.0001) viscAh  =   /* Lateral eddy viscosity ( m^2/s ) */
(PID.TID 0000.0001)                 3.000000000000000E+05
(PID.TID 0000.0001)     ;
(PID.TID 0000.0001) viscAhMax = /* Maximum lateral eddy viscosity ( m^2/s ) */
(PID.TID 0000.0001)                 1.000000000000000E+21
(PID.TID 0000.0001)     ;
(PID.TID 0000.0001) viscAhGrid = /* Grid dependent lateral eddy viscosity ( non-dim. ) */
(PID.TID 0000.0001)                 0.000000000000000E+00
(PID.TID 0000.0001)     ;
(PID.TID 0000.0001) useFullLeith = /* Use Full Form of Leith Viscosity on/off flag*/
(PID.TID 0000.0001)                   F
(PID.TID 0000.0001)     ;
(PID.TID 0000.0001) useStrainTensionVisc= /* Use StrainTension Form of Viscous Operator flag*/
(PID.TID 0000.0001)                   F
(PID.TID 0000.0001)     ;
(PID.TID 0000.0001) useAreaViscLength = /* Use area for visc length instead of geom. mean*/
(PID.TID 0000.0001)                   F
(PID.TID 0000.0001)     ;
(PID.TID 0000.0001) viscC2leith = /* Leith harmonic visc. factor (on grad(vort),non-dim.) */
(PID.TID 0000.0001)                 0.000000000000000E+00
(PID.TID 0000.0001)     ;
(PID.TID 0000.0001) viscC2leithD = /* Leith harmonic viscosity factor (on grad(div),non-dim.)*/
(PID.TID 0000.0001)                 0.000000000000000E+00
(PID.TID 0000.0001)     ;
(PID.TID 0000.0001) viscC2smag = /* Smagorinsky harmonic viscosity factor (non-dim.) */
(PID.TID 0000.0001)                 0.000000000000000E+00
(PID.TID 0000.0001)     ;
(PID.TID 0000.0001) viscA4  =   /* Lateral biharmonic viscosity ( m^4/s ) */
(PID.TID 0000.0001)                 0.000000000000000E+00
(PID.TID 0000.0001)     ;
(PID.TID 0000.0001) viscA4Max = /* Maximum biharmonic viscosity ( m^2/s ) */
(PID.TID 0000.0001)                 1.000000000000000E+21
(PID.TID 0000.0001)     ;
(PID.TID 0000.0001) viscA4Grid = /* Grid dependent biharmonic viscosity ( non-dim. ) */
(PID.TID 0000.0001)                 0.000000000000000E+00
(PID.TID 0000.0001)     ;
(PID.TID 0000.0001) viscC4leith = /* Leith biharm viscosity factor (on grad(vort), non-dim.)*/
(PID.TID 0000.0001)                 0.000000000000000E+00
(PID.TID 0000.0001)     ;
(PID.TID 0000.0001) viscC4leithD = /* Leith biharm viscosity factor (on grad(div), non-dim.) */
(PID.TID 0000.0001)                 0.000000000000000E+00
(PID.TID 0000.0001)     ;
(PID.TID 0000.0001) viscC4Smag = /* Smagorinsky biharm viscosity factor (non-dim) */
(PID.TID 0000.0001)                 0.000000000000000E+00
(PID.TID 0000.0001)     ;
(PID.TID 0000.0001) no_slip_sides =  /* Viscous BCs: No-slip sides */
(PID.TID 0000.0001)                   T
(PID.TID 0000.0001)     ;
(PID.TID 0000.0001) sideDragFactor = /* side-drag scaling factor (non-dim) */
(PID.TID 0000.0001)                 2.000000000000000E+00
(PID.TID 0000.0001)     ;
(PID.TID 0000.0001) viscArNr = /* vertical profile of vertical viscosity (Pa^2/s )*/
(PID.TID 0000.0001)    15 @  1.721611620915750E+05              /* K =  1: 15 */
(PID.TID 0000.0001)     ;
(PID.TID 0000.0001) no_slip_bottom =  /* Viscous BCs: No-slip bottom */
(PID.TID 0000.0001)                   F
(PID.TID 0000.0001)     ;
(PID.TID 0000.0001) bottomDragLinear = /* linear bottom-drag coefficient ( m/s ) */
(PID.TID 0000.0001)                 0.000000000000000E+00
(PID.TID 0000.0001)     ;
(PID.TID 0000.0001) bottomDragQuadratic = /* quadratic bottom-drag coefficient (-) */
(PID.TID 0000.0001)                 0.000000000000000E+00
(PID.TID 0000.0001)     ;
(PID.TID 0000.0001) diffKhT =   /* Laplacian diffusion of heat laterally ( m^2/s ) */
(PID.TID 0000.0001)                 1.000000000000000E+03
(PID.TID 0000.0001)     ;
(PID.TID 0000.0001) diffK4T =   /* Biharmonic diffusion of heat laterally ( m^4/s ) */
(PID.TID 0000.0001)                 0.000000000000000E+00
(PID.TID 0000.0001)     ;
(PID.TID 0000.0001) diffKhS =   /* Laplacian diffusion of salt laterally ( m^2/s ) */
(PID.TID 0000.0001)                 1.000000000000000E+03
(PID.TID 0000.0001)     ;
(PID.TID 0000.0001) diffK4S =   /* Biharmonic diffusion of salt laterally ( m^4/s ) */
(PID.TID 0000.0001)                 0.000000000000000E+00
(PID.TID 0000.0001)     ;
(PID.TID 0000.0001) diffKrNrT = /* vertical profile of vertical diffusion of Temp (Pa^2/s )*/
(PID.TID 0000.0001)    15 @  5.154525811125000E+03              /* K =  1: 15 */
(PID.TID 0000.0001)     ;
(PID.TID 0000.0001) diffKrNrS = /* vertical profile of vertical diffusion of Salt (Pa^2/s )*/
(PID.TID 0000.0001)    15 @  5.154525811125000E+03              /* K =  1: 15 */
(PID.TID 0000.0001)     ;
(PID.TID 0000.0001) diffKrBL79surf = /* Surface diffusion for Bryan and Lewis 79 ( m^2/s ) */
(PID.TID 0000.0001)                 0.000000000000000E+00
(PID.TID 0000.0001)     ;
(PID.TID 0000.0001) diffKrBL79deep = /* Deep diffusion for Bryan and Lewis 1979 ( m^2/s ) */
(PID.TID 0000.0001)                 0.000000000000000E+00
(PID.TID 0000.0001)     ;
(PID.TID 0000.0001) diffKrBL79scl = /* Depth scale for Bryan and Lewis 1979 ( m ) */
(PID.TID 0000.0001)                 2.000000000000000E+02
(PID.TID 0000.0001)     ;
(PID.TID 0000.0001) diffKrBL79Ho = /* Turning depth for Bryan and Lewis 1979 ( m ) */
(PID.TID 0000.0001)                -2.000000000000000E+03
(PID.TID 0000.0001)     ;
(PID.TID 0000.0001) ivdc_kappa = /* Implicit Vertical Diffusivity for Convection (Pa^2/s) */
(PID.TID 0000.0001)                 1.030905162225000E+09
(PID.TID 0000.0001)     ;
(PID.TID 0000.0001) hMixCriteria=  /* Criteria for mixed-layer diagnostic */
(PID.TID 0000.0001)                -8.000000000000000E-01
(PID.TID 0000.0001)     ;
(PID.TID 0000.0001) dRhoSmall =  /* Parameter for mixed-layer diagnostic */
(PID.TID 0000.0001)                 1.000000000000000E-06
(PID.TID 0000.0001)     ;
(PID.TID 0000.0001) hMixSmooth=  /* Smoothing parameter for mixed-layer diagnostic */
(PID.TID 0000.0001)                 0.000000000000000E+00
(PID.TID 0000.0001)     ;
(PID.TID 0000.0001) eosType =  /* Type of Equation of State */
(PID.TID 0000.0001)               'JMD95P'
(PID.TID 0000.0001)     ;
(PID.TID 0000.0001) tAlpha =   /* Linear EOS thermal expansion coefficient ( 1/oC ) */
(PID.TID 0000.0001)                 1.234567000000000E+05
(PID.TID 0000.0001)     ;
(PID.TID 0000.0001) sBeta =   /* Linear EOS haline contraction coefficient ( 1/psu ) */
(PID.TID 0000.0001)                 1.234567000000000E+05
(PID.TID 0000.0001)     ;
(PID.TID 0000.0001) rhonil =   /* Reference density ( kg/m^3 ) */
(PID.TID 0000.0001)                 1.035000000000000E+03
(PID.TID 0000.0001)     ;
(PID.TID 0000.0001) rhoConst =   /* Reference density ( kg/m^3 ) */
(PID.TID 0000.0001)                 1.035000000000000E+03
(PID.TID 0000.0001)     ;
(PID.TID 0000.0001) rhoFacC = /* normalized Reference density @ cell-Center (-) */
(PID.TID 0000.0001)    15 @  1.000000000000000E+00              /* K =  1: 15 */
(PID.TID 0000.0001)     ;
(PID.TID 0000.0001) rhoFacF = /* normalized Reference density @ W-Interface (-) */
(PID.TID 0000.0001)    16 @  1.000000000000000E+00              /* K =  1: 16 */
(PID.TID 0000.0001)     ;
(PID.TID 0000.0001) rhoConstFresh =   /* Reference density ( kg/m^3 ) */
(PID.TID 0000.0001)                 9.998000000000000E+02
(PID.TID 0000.0001)     ;
(PID.TID 0000.0001) gravity =   /* Gravitational acceleration ( m/s^2 ) */
(PID.TID 0000.0001)                 9.810000000000000E+00
(PID.TID 0000.0001)     ;
(PID.TID 0000.0001) gBaro =   /* Barotropic gravity ( m/s^2 ) */
(PID.TID 0000.0001)                 9.810000000000000E+00
(PID.TID 0000.0001)     ;
(PID.TID 0000.0001) rotationPeriod =   /* Rotation Period ( s ) */
(PID.TID 0000.0001)                 8.640000000000000E+04
(PID.TID 0000.0001)     ;
(PID.TID 0000.0001) omega =   /* Angular velocity ( rad/s ) */
(PID.TID 0000.0001)                 7.272205216643040E-05
(PID.TID 0000.0001)     ;
(PID.TID 0000.0001) f0 =   /* Reference coriolis parameter ( 1/s ) */
(PID.TID 0000.0001)                 1.000000000000000E-04
(PID.TID 0000.0001)     ;
(PID.TID 0000.0001) beta =   /* Beta ( 1/(m.s) ) */
(PID.TID 0000.0001)                 9.999999999999999E-12
(PID.TID 0000.0001)     ;
(PID.TID 0000.0001) fPrime =   /* Second coriolis parameter ( 1/s ) */
(PID.TID 0000.0001)                 0.000000000000000E+00
(PID.TID 0000.0001)     ;
(PID.TID 0000.0001) rigidLid =   /* Rigid lid on/off flag */
(PID.TID 0000.0001)                   F
(PID.TID 0000.0001)     ;
(PID.TID 0000.0001) implicitFreeSurface =   /* Implicit free surface on/off flag */
(PID.TID 0000.0001)                   T
(PID.TID 0000.0001)     ;
(PID.TID 0000.0001) freeSurfFac =   /* Implicit free surface factor */
(PID.TID 0000.0001)                 1.000000000000000E+00
(PID.TID 0000.0001)     ;
(PID.TID 0000.0001) implicSurfPress =  /* Surface Pressure implicit factor (0-1)*/
(PID.TID 0000.0001)                 1.000000000000000E+00
(PID.TID 0000.0001)     ;
(PID.TID 0000.0001) implicDiv2Dflow =  /* Barot. Flow Div. implicit factor (0-1)*/
(PID.TID 0000.0001)                 1.000000000000000E+00
(PID.TID 0000.0001)     ;
(PID.TID 0000.0001) exactConserv =  /* Exact Volume Conservation on/off flag*/
(PID.TID 0000.0001)                   T
(PID.TID 0000.0001)     ;
(PID.TID 0000.0001) linFSConserveTr = /* Tracer correction for Lin Free Surface on/off flag*/
(PID.TID 0000.0001)                   F
(PID.TID 0000.0001)     ;
(PID.TID 0000.0001) uniformLin_PhiSurf = /* use uniform Bo_surf on/off flag*/
(PID.TID 0000.0001)                   T
(PID.TID 0000.0001)     ;
(PID.TID 0000.0001) hFacMin =   /* minimum partial cell factor (hFac) */
(PID.TID 0000.0001)                 1.000000000000000E+00
(PID.TID 0000.0001)     ;
(PID.TID 0000.0001) hFacMinDr = /* minimum partial cell thickness (Pa) */
(PID.TID 0000.0001)                 1.000000000000000E+00
(PID.TID 0000.0001)     ;
(PID.TID 0000.0001) nonlinFreeSurf = /* Non-linear Free Surf. options (-1,0,1,2,3)*/
(PID.TID 0000.0001)                       4
(PID.TID 0000.0001)      -1,0= Off ; 1,2,3= On, 2=+rescale gU,gV, 3=+update cg2d solv.
(PID.TID 0000.0001)     ;
(PID.TID 0000.0001) hFacInf =   /* lower threshold for hFac (nonlinFreeSurf only)*/
(PID.TID 0000.0001)                 2.000000000000000E-01
(PID.TID 0000.0001)     ;
(PID.TID 0000.0001) hFacSup =   /* upper threshold for hFac (nonlinFreeSurf only)*/
(PID.TID 0000.0001)                 2.000000000000000E+00
(PID.TID 0000.0001)     ;
(PID.TID 0000.0001) select_rStar = /* r* Vertical coord. options (=0 r coord.; >0 uses r*)*/
(PID.TID 0000.0001)                       0
(PID.TID 0000.0001)     ;
(PID.TID 0000.0001) selectAddFluid = /* option for mass source/sink of fluid (=0: off) */
(PID.TID 0000.0001)                       0
(PID.TID 0000.0001)     ;
(PID.TID 0000.0001) useRealFreshWaterFlux = /* Real Fresh Water Flux on/off flag*/
(PID.TID 0000.0001)                   F
(PID.TID 0000.0001)     ;
(PID.TID 0000.0001) temp_EvPrRn = /* Temp. of Evap/Prec/R (UNSET=use local T)(oC)*/
(PID.TID 0000.0001)                 1.234567000000000E+05
(PID.TID 0000.0001)     ;
(PID.TID 0000.0001) salt_EvPrRn = /* Salin. of Evap/Prec/R (UNSET=use local S)(psu)*/
(PID.TID 0000.0001)                 0.000000000000000E+00
(PID.TID 0000.0001)     ;
(PID.TID 0000.0001) temp_addMass = /* Temp. of addMass array (UNSET=use local T)(oC)*/
(PID.TID 0000.0001)                 1.234567000000000E+05
(PID.TID 0000.0001)     ;
(PID.TID 0000.0001) salt_addMass = /* Salin. of addMass array (UNSET=use local S)(psu)*/
(PID.TID 0000.0001)                 0.000000000000000E+00
(PID.TID 0000.0001)     ;
(PID.TID 0000.0001) convertFW2Salt = /* convert F.W. Flux to Salt Flux (-1=use local S)(psu)*/
(PID.TID 0000.0001)                 3.500000000000000E+01
(PID.TID 0000.0001)     ;
(PID.TID 0000.0001) use3Dsolver = /* use 3-D pressure solver on/off flag */
(PID.TID 0000.0001)                   F
(PID.TID 0000.0001)     ;
(PID.TID 0000.0001) nonHydrostatic =  /* Non-Hydrostatic on/off flag */
(PID.TID 0000.0001)                   F
(PID.TID 0000.0001)     ;
(PID.TID 0000.0001) nh_Am2 = /* Non-Hydrostatic terms scaling factor */
(PID.TID 0000.0001)                 1.000000000000000E+00
(PID.TID 0000.0001)     ;
(PID.TID 0000.0001) implicitNHPress = /* Non-Hyd Pressure implicit factor (0-1)*/
(PID.TID 0000.0001)                 1.000000000000000E+00
(PID.TID 0000.0001)     ;
(PID.TID 0000.0001) selectNHfreeSurf = /* Non-Hyd (free-)Surface option */
(PID.TID 0000.0001)                       0
(PID.TID 0000.0001)     ;
(PID.TID 0000.0001) quasiHydrostatic = /* Quasi-Hydrostatic on/off flag */
(PID.TID 0000.0001)                   F
(PID.TID 0000.0001)     ;
(PID.TID 0000.0001) calc_wVelocity = /* vertical velocity calculation on/off flag */
(PID.TID 0000.0001)                   T
(PID.TID 0000.0001)     ;
(PID.TID 0000.0001) momStepping =  /* Momentum equation on/off flag */
(PID.TID 0000.0001)                   T
(PID.TID 0000.0001)     ;
(PID.TID 0000.0001) vectorInvariantMomentum= /* Vector-Invariant Momentum on/off */
(PID.TID 0000.0001)                   F
(PID.TID 0000.0001)     ;
(PID.TID 0000.0001) momAdvection =  /* Momentum advection on/off flag */
(PID.TID 0000.0001)                   T
(PID.TID 0000.0001)     ;
(PID.TID 0000.0001) momViscosity =  /* Momentum viscosity on/off flag */
(PID.TID 0000.0001)                   T
(PID.TID 0000.0001)     ;
(PID.TID 0000.0001) momImplVertAdv= /* Momentum implicit vert. advection on/off*/
(PID.TID 0000.0001)                   F
(PID.TID 0000.0001)     ;
(PID.TID 0000.0001) implicitViscosity = /* Implicit viscosity on/off flag */
(PID.TID 0000.0001)                   F
(PID.TID 0000.0001)     ;
(PID.TID 0000.0001) metricTerms =  /* metric-Terms on/off flag */
(PID.TID 0000.0001)                   T
(PID.TID 0000.0001)     ;
(PID.TID 0000.0001) useNHMTerms = /* Non-Hydrostatic Metric-Terms on/off */
(PID.TID 0000.0001)                   T
(PID.TID 0000.0001)     ;
(PID.TID 0000.0001) selectCoriMap = /* Coriolis Map options (0,1,2,3)*/
(PID.TID 0000.0001)                       2
(PID.TID 0000.0001)     0= f-Plane ; 1= Beta-Plane ; 2= Spherical ; 3= read from file
(PID.TID 0000.0001)     ;
(PID.TID 0000.0001) use3dCoriolis = /* 3-D Coriolis on/off flag */
(PID.TID 0000.0001)                   F
(PID.TID 0000.0001)     ;
(PID.TID 0000.0001) useCoriolis =  /* Coriolis on/off flag */
(PID.TID 0000.0001)                   T
(PID.TID 0000.0001)     ;
(PID.TID 0000.0001) useCDscheme =  /* CD scheme on/off flag */
(PID.TID 0000.0001)                   F
(PID.TID 0000.0001)     ;
(PID.TID 0000.0001) useEnergyConservingCoriolis= /* Flx-Form Coriolis scheme flag */
(PID.TID 0000.0001)                   F
(PID.TID 0000.0001)     ;
(PID.TID 0000.0001) useJamartWetPoints= /* Coriolis WetPoints method flag */
(PID.TID 0000.0001)                   F
(PID.TID 0000.0001)     ;
(PID.TID 0000.0001) useJamartMomAdv= /* V.I Non-linear terms Jamart flag */
(PID.TID 0000.0001)                   F
(PID.TID 0000.0001)     ;
(PID.TID 0000.0001) useAbsVorticity= /* V.I Works with f+zeta in Coriolis */
(PID.TID 0000.0001)                   F
(PID.TID 0000.0001)     ;
(PID.TID 0000.0001) selectVortScheme= /* V.I Scheme selector for Vorticity-Term */
(PID.TID 0000.0001)               123456789
(PID.TID 0000.0001)    = 0 : enstrophy (Shallow-Water Eq.) conserving scheme by Sadourny, JAS 75
(PID.TID 0000.0001)    = 1 : same as 0 with modified hFac
(PID.TID 0000.0001)    = 2 : energy conserving scheme (used by Sadourny in JAS 75 paper)
(PID.TID 0000.0001)    = 3 : energy (general) and enstrophy (2D, nonDiv.) conserving scheme
(PID.TID 0000.0001)          from Sadourny (Burridge & Haseler, ECMWF Rep.4, 1977)
(PID.TID 0000.0001)     ;
(PID.TID 0000.0001) upwindVorticity= /* V.I Upwind bias vorticity flag */
(PID.TID 0000.0001)                   F
(PID.TID 0000.0001)     ;
(PID.TID 0000.0001) highOrderVorticity= /* V.I High order vort. advect. flag */
(PID.TID 0000.0001)                   F
(PID.TID 0000.0001)     ;
(PID.TID 0000.0001) upwindShear= /* V.I Upwind vertical Shear advection flag */
(PID.TID 0000.0001)                   F
(PID.TID 0000.0001)     ;
(PID.TID 0000.0001) selectKEscheme= /* V.I Kinetic Energy scheme selector */
(PID.TID 0000.0001)                       0
(PID.TID 0000.0001)     ;
(PID.TID 0000.0001) momForcing =  /* Momentum forcing on/off flag */
(PID.TID 0000.0001)                   T
(PID.TID 0000.0001)     ;
(PID.TID 0000.0001) momPressureForcing =  /* Momentum pressure term on/off flag */
(PID.TID 0000.0001)                   T
(PID.TID 0000.0001)     ;
(PID.TID 0000.0001) implicitIntGravWave= /* Implicit Internal Gravity Wave flag */
(PID.TID 0000.0001)                   F
(PID.TID 0000.0001)     ;
(PID.TID 0000.0001) staggerTimeStep =   /* Stagger time stepping on/off flag */
(PID.TID 0000.0001)                   F
(PID.TID 0000.0001)     ;
(PID.TID 0000.0001) multiDimAdvection =   /* enable/disable Multi-Dim Advection */
(PID.TID 0000.0001)                   T
(PID.TID 0000.0001)     ;
(PID.TID 0000.0001) useMultiDimAdvec =   /* Multi-Dim Advection is/is-not used */
(PID.TID 0000.0001)                   F
(PID.TID 0000.0001)     ;
(PID.TID 0000.0001) implicitDiffusion = /* Implicit Diffusion on/off flag */
(PID.TID 0000.0001)                   T
(PID.TID 0000.0001)     ;
(PID.TID 0000.0001) tempStepping =  /* Temperature equation on/off flag */
(PID.TID 0000.0001)                   T
(PID.TID 0000.0001)     ;
(PID.TID 0000.0001) tempAdvection=  /* Temperature advection on/off flag */
(PID.TID 0000.0001)                   T
(PID.TID 0000.0001)     ;
(PID.TID 0000.0001) tempImplVertAdv = /* Temp. implicit vert. advection on/off */
(PID.TID 0000.0001)                   F
(PID.TID 0000.0001)     ;
(PID.TID 0000.0001) tempForcing  =  /* Temperature forcing on/off flag */
(PID.TID 0000.0001)                   T
(PID.TID 0000.0001)     ;
(PID.TID 0000.0001) tempIsActiveTr = /* Temp. is a dynamically Active Tracer */
(PID.TID 0000.0001)                   T
(PID.TID 0000.0001)     ;
(PID.TID 0000.0001) saltStepping =  /* Salinity equation on/off flag */
(PID.TID 0000.0001)                   T
(PID.TID 0000.0001)     ;
(PID.TID 0000.0001) saltAdvection=  /* Salinity advection on/off flag */
(PID.TID 0000.0001)                   T
(PID.TID 0000.0001)     ;
(PID.TID 0000.0001) saltImplVertAdv = /* Sali. implicit vert. advection on/off */
(PID.TID 0000.0001)                   F
(PID.TID 0000.0001)     ;
(PID.TID 0000.0001) saltForcing  =  /* Salinity forcing on/off flag */
(PID.TID 0000.0001)                   T
(PID.TID 0000.0001)     ;
(PID.TID 0000.0001) saltIsActiveTr = /* Salt  is a dynamically Active Tracer */
(PID.TID 0000.0001)                   T
(PID.TID 0000.0001)     ;
(PID.TID 0000.0001)  readBinaryPrec = /* Precision used for reading binary files */
(PID.TID 0000.0001)                      64
(PID.TID 0000.0001)     ;
(PID.TID 0000.0001) writeBinaryPrec = /* Precision used for writing binary files */
(PID.TID 0000.0001)                      64
(PID.TID 0000.0001)     ;
(PID.TID 0000.0001)  globalFiles = /* write "global" (=not per tile) files */
(PID.TID 0000.0001)                   F
(PID.TID 0000.0001)     ;
(PID.TID 0000.0001)  useSingleCpuIO = /* only master MPI process does I/O */
(PID.TID 0000.0001)                   F
(PID.TID 0000.0001)     ;
(PID.TID 0000.0001) /* debLev[*]  : level of debug & auxiliary message printing */
(PID.TID 0000.0001) debLevZero =  0 ; /* level of disabled aux. msg printing */
(PID.TID 0000.0001)    debLevA =  1 ; /* level of minimum  aux. msg printing */
(PID.TID 0000.0001)    debLevB =  2 ; /* level of low aux. print (report read-file opening)*/
(PID.TID 0000.0001)    debLevC =  3 ; /* level of moderate debug prt (most pkgs debug msg) */
(PID.TID 0000.0001)    debLevD =  4 ; /* level of enhanced debug prt (add DEBUG_STATS prt) */
(PID.TID 0000.0001)    debLevE =  5 ; /* level of extensive debug printing */
(PID.TID 0000.0001) debugLevel =  /* select debug printing level */
(PID.TID 0000.0001)                       2
(PID.TID 0000.0001)     ;
(PID.TID 0000.0001) //
(PID.TID 0000.0001) // Elliptic solver(s) paramters ( PARM02 in namelist )
(PID.TID 0000.0001) //
(PID.TID 0000.0001) cg2dMaxIters =   /* Upper limit on 2d con. grad iterations  */
(PID.TID 0000.0001)                     200
(PID.TID 0000.0001)     ;
(PID.TID 0000.0001) cg2dChkResFreq =   /* 2d con. grad convergence test frequency */
(PID.TID 0000.0001)                       1
(PID.TID 0000.0001)     ;
(PID.TID 0000.0001) cg2dTargetResidual =   /* 2d con. grad target residual  */
(PID.TID 0000.0001)                 1.000000000000000E-09
(PID.TID 0000.0001)     ;
(PID.TID 0000.0001) cg2dTargetResWunit =   /* CG2d target residual [W units] */
(PID.TID 0000.0001)                -1.000000000000000E+00
(PID.TID 0000.0001)     ;
(PID.TID 0000.0001) cg2dPreCondFreq =   /* Freq. for updating cg2d preconditioner */
(PID.TID 0000.0001)                       1
(PID.TID 0000.0001)     ;
(PID.TID 0000.0001) useSRCGSolver =  /* use single reduction CG solver(s) */
(PID.TID 0000.0001)                   F
(PID.TID 0000.0001)     ;
(PID.TID 0000.0001) printResidualFreq = /* Freq. for printing CG residual */
(PID.TID 0000.0001)                       0
(PID.TID 0000.0001)     ;
(PID.TID 0000.0001) //
(PID.TID 0000.0001) // Time stepping paramters ( PARM03 in namelist )
(PID.TID 0000.0001) //
(PID.TID 0000.0001) deltaTmom =   /* Momentum equation timestep ( s ) */
(PID.TID 0000.0001)                 1.200000000000000E+03
(PID.TID 0000.0001)     ;
(PID.TID 0000.0001) deltaTfreesurf = /* FreeSurface equation timestep ( s ) */
(PID.TID 0000.0001)                 1.728000000000000E+05
(PID.TID 0000.0001)     ;
(PID.TID 0000.0001) dTtracerLev =  /* Tracer equation timestep ( s ) */
(PID.TID 0000.0001)    15 @  1.728000000000000E+05              /* K =  1: 15 */
(PID.TID 0000.0001)     ;
(PID.TID 0000.0001) deltaTClock  =   /* Model clock timestep ( s ) */
(PID.TID 0000.0001)                 1.728000000000000E+05
(PID.TID 0000.0001)     ;
(PID.TID 0000.0001) cAdjFreq =   /* Convective adjustment interval ( s ) */
(PID.TID 0000.0001)                 0.000000000000000E+00
(PID.TID 0000.0001)     ;
(PID.TID 0000.0001) momForcingOutAB = /* =1: take Momentum Forcing out of Adams-Bash. stepping */
(PID.TID 0000.0001)                       0
(PID.TID 0000.0001)     ;
(PID.TID 0000.0001) tracForcingOutAB = /* =1: take T,S,pTr Forcing out of Adams-Bash. stepping */
(PID.TID 0000.0001)                       0
(PID.TID 0000.0001)     ;
(PID.TID 0000.0001) momDissip_In_AB = /* put Dissipation Tendency in Adams-Bash. stepping */
(PID.TID 0000.0001)                   T
(PID.TID 0000.0001)     ;
(PID.TID 0000.0001) doAB_onGtGs = /* apply AB on Tendencies (rather than on T,S)*/
(PID.TID 0000.0001)                   T
(PID.TID 0000.0001)     ;
(PID.TID 0000.0001) abEps =   /* Adams-Bashforth-2 stabilizing weight */
(PID.TID 0000.0001)                 1.000000000000000E-01
(PID.TID 0000.0001)     ;
(PID.TID 0000.0001) pickupStrictlyMatch= /* stop if pickup do not strictly match */
(PID.TID 0000.0001)                   T
(PID.TID 0000.0001)     ;
(PID.TID 0000.0001) nIter0   =   /* Run starting timestep number */
(PID.TID 0000.0001)                       0
(PID.TID 0000.0001)     ;
(PID.TID 0000.0001) nTimeSteps = /* Number of timesteps */
(PID.TID 0000.0001)                      20
(PID.TID 0000.0001)     ;
(PID.TID 0000.0001) nEndIter =   /* Run ending timestep number */
(PID.TID 0000.0001)                      20
(PID.TID 0000.0001)     ;
(PID.TID 0000.0001) baseTime =   /* Model base time ( s ) */
(PID.TID 0000.0001)                 0.000000000000000E+00
(PID.TID 0000.0001)     ;
(PID.TID 0000.0001) startTime =  /* Run start time ( s ) */
(PID.TID 0000.0001)                 0.000000000000000E+00
(PID.TID 0000.0001)     ;
(PID.TID 0000.0001) endTime  =   /* Integration ending time ( s ) */
(PID.TID 0000.0001)                 3.456000000000000E+06
(PID.TID 0000.0001)     ;
(PID.TID 0000.0001) pChkPtFreq = /* Permanent restart/pickup file interval ( s ) */
(PID.TID 0000.0001)                 3.110400000000000E+09
(PID.TID 0000.0001)     ;
(PID.TID 0000.0001) chkPtFreq  = /* Rolling restart/pickup file interval ( s ) */
(PID.TID 0000.0001)                 0.000000000000000E+00
(PID.TID 0000.0001)     ;
(PID.TID 0000.0001) pickup_write_mdsio =   /* Model IO flag. */
(PID.TID 0000.0001)                   T
(PID.TID 0000.0001)     ;
(PID.TID 0000.0001) pickup_read_mdsio =   /* Model IO flag. */
(PID.TID 0000.0001)                   T
(PID.TID 0000.0001)     ;
(PID.TID 0000.0001) pickup_write_immed =   /* Model IO flag. */
(PID.TID 0000.0001)                   F
(PID.TID 0000.0001)     ;
(PID.TID 0000.0001) writePickupAtEnd =   /* Model IO flag. */
(PID.TID 0000.0001)                   T
(PID.TID 0000.0001)     ;
(PID.TID 0000.0001) dumpFreq =   /* Model state write out interval ( s ). */
(PID.TID 0000.0001)                 3.110400000000000E+09
(PID.TID 0000.0001)     ;
(PID.TID 0000.0001) dumpInitAndLast= /* write out Initial & Last iter. model state */
(PID.TID 0000.0001)                   T
(PID.TID 0000.0001)     ;
(PID.TID 0000.0001) snapshot_mdsio =   /* Model IO flag. */
(PID.TID 0000.0001)                   T
(PID.TID 0000.0001)     ;
(PID.TID 0000.0001) monitorFreq =   /* Monitor output interval ( s ). */
(PID.TID 0000.0001)                 1.000000000000000E+00
(PID.TID 0000.0001)     ;
(PID.TID 0000.0001) monitorSelect = /* select group of variables to monitor */
(PID.TID 0000.0001)                       3
(PID.TID 0000.0001)     ;
(PID.TID 0000.0001) monitor_stdio =   /* Model IO flag. */
(PID.TID 0000.0001)                   T
(PID.TID 0000.0001)     ;
(PID.TID 0000.0001) externForcingPeriod =   /* forcing period (s) */
(PID.TID 0000.0001)                 2.592000000000000E+06
(PID.TID 0000.0001)     ;
(PID.TID 0000.0001) externForcingCycle =   /* period of the cyle (s). */
(PID.TID 0000.0001)                 3.110400000000000E+07
(PID.TID 0000.0001)     ;
(PID.TID 0000.0001) tauThetaClimRelax =   /* relaxation time scale (s) */
(PID.TID 0000.0001)                 5.184000000000000E+06
(PID.TID 0000.0001)     ;
(PID.TID 0000.0001) tauSaltClimRelax =   /* relaxation time scale (s) */
(PID.TID 0000.0001)                 0.000000000000000E+00
(PID.TID 0000.0001)     ;
(PID.TID 0000.0001) latBandClimRelax =   /* max. Lat. where relaxation */
(PID.TID 0000.0001)                 1.800000000000000E+02
(PID.TID 0000.0001)     ;
(PID.TID 0000.0001) //
(PID.TID 0000.0001) // Gridding paramters ( PARM04 in namelist )
(PID.TID 0000.0001) //
(PID.TID 0000.0001) usingCartesianGrid = /* Cartesian coordinates flag ( True/False ) */
(PID.TID 0000.0001)                   F
(PID.TID 0000.0001)     ;
(PID.TID 0000.0001) usingCylindricalGrid = /* Cylindrical coordinates flag ( True/False ) */
(PID.TID 0000.0001)                   F
(PID.TID 0000.0001)     ;
(PID.TID 0000.0001) usingSphericalPolarGrid = /* Spherical coordinates flag ( True/False ) */
(PID.TID 0000.0001)                   T
(PID.TID 0000.0001)     ;
(PID.TID 0000.0001) usingCurvilinearGrid = /* Curvilinear coordinates flag ( True/False ) */
(PID.TID 0000.0001)                   F
(PID.TID 0000.0001)     ;
(PID.TID 0000.0001) selectSigmaCoord = /* Hybrid-Sigma Vert. Coordinate option */
(PID.TID 0000.0001)                       0
(PID.TID 0000.0001)     ;
(PID.TID 0000.0001) Ro_SeaLevel = /* r(1) ( units of r == Pa ) */
(PID.TID 0000.0001)                 5.302312256608400E+07
(PID.TID 0000.0001)     ;
(PID.TID 0000.0001) rSigmaBnd = /* r/sigma transition ( units of r == Pa ) */
(PID.TID 0000.0001)                 1.234567000000000E+05
(PID.TID 0000.0001)     ;
(PID.TID 0000.0001) rkSign =   /* index orientation relative to vertical coordinate */
(PID.TID 0000.0001)                -1.000000000000000E+00
(PID.TID 0000.0001)     ;
(PID.TID 0000.0001) gravitySign = /* gravity orientation relative to vertical coordinate */
(PID.TID 0000.0001)                 1.000000000000000E+00
(PID.TID 0000.0001)     ;
(PID.TID 0000.0001) mass2rUnit = /* convert mass per unit area [kg/m2] to r-units [Pa] */
(PID.TID 0000.0001)                 9.810000000000000E+00
(PID.TID 0000.0001)     ;
(PID.TID 0000.0001) rUnit2mass = /* convert r-units [Pa] to mass per unit area [kg/m2] */
(PID.TID 0000.0001)                 1.019367991845056E-01
(PID.TID 0000.0001)     ;
(PID.TID 0000.0001) drC =   /* C spacing ( units of r ) */
(PID.TID 0000.0001)                 3.551650360010500E+06,      /* K =  1 */
(PID.TID 0000.0001)                 6.836924580405500E+06,      /* K =  2 */
(PID.TID 0000.0001)                 6.306109225519501E+06,      /* K =  3 */
(PID.TID 0000.0001)                 5.779053338153000E+06,      /* K =  4 */
(PID.TID 0000.0001)                 5.255519350233500E+06,      /* K =  5 */
(PID.TID 0000.0001)                 4.735252734850001E+06,      /* K =  6 */
(PID.TID 0000.0001)                 4.217983340545500E+06,      /* K =  7 */
(PID.TID 0000.0001)                 3.703426779226000E+06,      /* K =  8 */
(PID.TID 0000.0001)                 3.191285859157500E+06,      /* K =  9 */
(PID.TID 0000.0001)                 2.681252055355000E+06,      /* K = 10 */
(PID.TID 0000.0001)                 2.173007010517000E+06,      /* K = 11 */
(PID.TID 0000.0001)                 1.666224060479000E+06,      /* K = 12 */
(PID.TID 0000.0001)                 1.211001777568000E+06,      /* K = 13 */
(PID.TID 0000.0001)                 8.573828878235000E+05,      /* K = 14 */
(PID.TID 0000.0001)                 6.050043594899999E+05       /* K = 15 */
(PID.TID 0000.0001)     ;
(PID.TID 0000.0001) drF =   /* W spacing ( units of r ) */
(PID.TID 0000.0001)                 7.103300720021000E+06,      /* K =  1 */
(PID.TID 0000.0001)                 6.570548440790000E+06,      /* K =  2 */
(PID.TID 0000.0001)                 6.041670010249000E+06,      /* K =  3 */
(PID.TID 0000.0001)                 5.516436666057000E+06,      /* K =  4 */
(PID.TID 0000.0001)                 4.994602034410000E+06,      /* K =  5 */
(PID.TID 0000.0001)                 4.475903435290000E+06,      /* K =  6 */
(PID.TID 0000.0001)                 3.960063245801000E+06,      /* K =  7 */
(PID.TID 0000.0001)                 3.446790312651000E+06,      /* K =  8 */
(PID.TID 0000.0001)                 2.935781405664000E+06,      /* K =  9 */
(PID.TID 0000.0001)                 2.426722705046000E+06,      /* K = 10 */
(PID.TID 0000.0001)                 1.919291315988000E+06,      /* K = 11 */
(PID.TID 0000.0001)                 1.413156804970000E+06,      /* K = 12 */
(PID.TID 0000.0001)                 1.008846750166000E+06,      /* K = 13 */
(PID.TID 0000.0001)                 7.059190254810000E+05,      /* K = 14 */
(PID.TID 0000.0001)                 5.040896934990000E+05       /* K = 15 */
(PID.TID 0000.0001)     ;
(PID.TID 0000.0001) delX = /* U spacing ( m - cartesian, degrees - spherical ) */
(PID.TID 0000.0001)    90 @  4.000000000000000E+00              /* I =  1: 90 */
(PID.TID 0000.0001)     ;
(PID.TID 0000.0001) delY = /* V spacing ( m - cartesian, degrees - spherical ) */
(PID.TID 0000.0001)    40 @  4.000000000000000E+00              /* J =  1: 40 */
(PID.TID 0000.0001)     ;
(PID.TID 0000.0001) xgOrigin = /* X-axis origin of West  edge (cartesian: m, lat-lon: deg.) */
(PID.TID 0000.0001)                 0.000000000000000E+00
(PID.TID 0000.0001)     ;
(PID.TID 0000.0001) ygOrigin = /* Y-axis origin of South edge (cartesian: m, lat-lon: deg.) */
(PID.TID 0000.0001)                -8.000000000000000E+01
(PID.TID 0000.0001)     ;
(PID.TID 0000.0001) rSphere =  /* Radius ( ignored - cartesian, m - spherical ) */
(PID.TID 0000.0001)                 6.370000000000000E+06
(PID.TID 0000.0001)     ;
(PID.TID 0000.0001) deepAtmosphere = /* Deep/Shallow Atmosphere flag (True/False) */
(PID.TID 0000.0001)                   F
(PID.TID 0000.0001)     ;
(PID.TID 0000.0001) xC =  /* xC(:,1,:,1) : P-point X coord ( deg. or m if cartesian) */
(PID.TID 0000.0001)                 2.000000000000000E+00,      /* I =  1 */
(PID.TID 0000.0001)                 6.000000000000000E+00,      /* I =  2 */
(PID.TID 0000.0001)                 1.000000000000000E+01,      /* I =  3 */
(PID.TID 0000.0001)      . . .
(PID.TID 0000.0001)                 8.200000000000000E+01,      /* I = 21 */
(PID.TID 0000.0001)                 8.600000000000000E+01,      /* I = 22 */
(PID.TID 0000.0001)                 9.000000000000000E+01,      /* I = 23 */
(PID.TID 0000.0001)                 9.400000000000000E+01,      /* I = 24 */
(PID.TID 0000.0001)                 9.800000000000000E+01,      /* I = 25 */
(PID.TID 0000.0001)                 1.020000000000000E+02,      /* I = 26 */
(PID.TID 0000.0001)      . . .
(PID.TID 0000.0001)                 1.700000000000000E+02,      /* I = 43 */
(PID.TID 0000.0001)                 1.740000000000000E+02,      /* I = 44 */
(PID.TID 0000.0001)                 1.780000000000000E+02,      /* I = 45 */
(PID.TID 0000.0001)                 1.820000000000000E+02,      /* I = 46 */
(PID.TID 0000.0001)                 1.860000000000000E+02,      /* I = 47 */
(PID.TID 0000.0001)                 1.900000000000000E+02,      /* I = 48 */
(PID.TID 0000.0001)      . . .
(PID.TID 0000.0001)                 2.580000000000000E+02,      /* I = 65 */
(PID.TID 0000.0001)                 2.620000000000000E+02,      /* I = 66 */
(PID.TID 0000.0001)                 2.660000000000000E+02,      /* I = 67 */
(PID.TID 0000.0001)                 2.700000000000000E+02,      /* I = 68 */
(PID.TID 0000.0001)                 2.740000000000000E+02,      /* I = 69 */
(PID.TID 0000.0001)                 2.780000000000000E+02,      /* I = 70 */
(PID.TID 0000.0001)      . . .
(PID.TID 0000.0001)                 3.500000000000000E+02,      /* I = 88 */
(PID.TID 0000.0001)                 3.540000000000000E+02,      /* I = 89 */
(PID.TID 0000.0001)                 3.580000000000000E+02       /* I = 90 */
(PID.TID 0000.0001)     ;
(PID.TID 0000.0001) yC =  /* yC(1,:,1,:) : P-point Y coord ( deg. or m if cartesian) */
(PID.TID 0000.0001)                -7.800000000000000E+01,      /* J =  1 */
(PID.TID 0000.0001)                -7.400000000000000E+01,      /* J =  2 */
(PID.TID 0000.0001)                -7.000000000000000E+01,      /* J =  3 */
(PID.TID 0000.0001)                -6.600000000000000E+01,      /* J =  4 */
(PID.TID 0000.0001)                -6.200000000000000E+01,      /* J =  5 */
(PID.TID 0000.0001)                -5.800000000000000E+01,      /* J =  6 */
(PID.TID 0000.0001)                -5.400000000000000E+01,      /* J =  7 */
(PID.TID 0000.0001)                -5.000000000000000E+01,      /* J =  8 */
(PID.TID 0000.0001)                -4.600000000000000E+01,      /* J =  9 */
(PID.TID 0000.0001)                -4.200000000000000E+01,      /* J = 10 */
(PID.TID 0000.0001)                -3.800000000000000E+01,      /* J = 11 */
(PID.TID 0000.0001)                -3.400000000000000E+01,      /* J = 12 */
(PID.TID 0000.0001)                -3.000000000000000E+01,      /* J = 13 */
(PID.TID 0000.0001)                -2.600000000000000E+01,      /* J = 14 */
(PID.TID 0000.0001)                -2.200000000000000E+01,      /* J = 15 */
(PID.TID 0000.0001)                -1.800000000000000E+01,      /* J = 16 */
(PID.TID 0000.0001)                -1.400000000000000E+01,      /* J = 17 */
(PID.TID 0000.0001)                -1.000000000000000E+01,      /* J = 18 */
(PID.TID 0000.0001)                -6.000000000000000E+00,      /* J = 19 */
(PID.TID 0000.0001)                -2.000000000000000E+00,      /* J = 20 */
(PID.TID 0000.0001)                 2.000000000000000E+00,      /* J = 21 */
(PID.TID 0000.0001)                 6.000000000000000E+00,      /* J = 22 */
(PID.TID 0000.0001)                 1.000000000000000E+01,      /* J = 23 */
(PID.TID 0000.0001)                 1.400000000000000E+01,      /* J = 24 */
(PID.TID 0000.0001)                 1.800000000000000E+01,      /* J = 25 */
(PID.TID 0000.0001)                 2.200000000000000E+01,      /* J = 26 */
(PID.TID 0000.0001)                 2.600000000000000E+01,      /* J = 27 */
(PID.TID 0000.0001)                 3.000000000000000E+01,      /* J = 28 */
(PID.TID 0000.0001)                 3.400000000000000E+01,      /* J = 29 */
(PID.TID 0000.0001)                 3.800000000000000E+01,      /* J = 30 */
(PID.TID 0000.0001)                 4.200000000000000E+01,      /* J = 31 */
(PID.TID 0000.0001)                 4.600000000000000E+01,      /* J = 32 */
(PID.TID 0000.0001)                 5.000000000000000E+01,      /* J = 33 */
(PID.TID 0000.0001)                 5.400000000000000E+01,      /* J = 34 */
(PID.TID 0000.0001)                 5.800000000000000E+01,      /* J = 35 */
(PID.TID 0000.0001)                 6.200000000000000E+01,      /* J = 36 */
(PID.TID 0000.0001)                 6.600000000000000E+01,      /* J = 37 */
(PID.TID 0000.0001)                 7.000000000000000E+01,      /* J = 38 */
(PID.TID 0000.0001)                 7.400000000000000E+01,      /* J = 39 */
(PID.TID 0000.0001)                 7.800000000000000E+01       /* J = 40 */
(PID.TID 0000.0001)     ;
(PID.TID 0000.0001) rcoord = /* P-point R coordinate (  units of r ) */
(PID.TID 0000.0001)                 4.947147220607350E+07,      /* K =  1 */
(PID.TID 0000.0001)                 4.263454762566800E+07,      /* K =  2 */
(PID.TID 0000.0001)                 3.632843840014850E+07,      /* K =  3 */
(PID.TID 0000.0001)                 3.054938506199550E+07,      /* K =  4 */
(PID.TID 0000.0001)                 2.529386571176200E+07,      /* K =  5 */
(PID.TID 0000.0001)                 2.055861297691200E+07,      /* K =  6 */
(PID.TID 0000.0001)                 1.634062963636650E+07,      /* K =  7 */
(PID.TID 0000.0001)                 1.263720285714050E+07,      /* K =  8 */
(PID.TID 0000.0001)                 9.445916997983005E+06,      /* K =  9 */
(PID.TID 0000.0001)                 6.764664942628005E+06,      /* K = 10 */
(PID.TID 0000.0001)                 4.591657932111004E+06,      /* K = 11 */
(PID.TID 0000.0001)                 2.925433871632004E+06,      /* K = 12 */
(PID.TID 0000.0001)                 1.714432094064004E+06,      /* K = 13 */
(PID.TID 0000.0001)                 8.570492062405043E+05,      /* K = 14 */
(PID.TID 0000.0001)                 2.520448467505043E+05       /* K = 15 */
(PID.TID 0000.0001)     ;
(PID.TID 0000.0001) rF =   /* W-Interf. R coordinate (  units of r ) */
(PID.TID 0000.0001)                 5.302312256608400E+07,      /* K =  1 */
(PID.TID 0000.0001)                 4.591982184606300E+07,      /* K =  2 */
(PID.TID 0000.0001)                 3.934927340527300E+07,      /* K =  3 */
(PID.TID 0000.0001)                 3.330760339502400E+07,      /* K =  4 */
(PID.TID 0000.0001)                 2.779116672896700E+07,      /* K =  5 */
(PID.TID 0000.0001)                 2.279656469455700E+07,      /* K =  6 */
(PID.TID 0000.0001)                 1.832066125926699E+07,      /* K =  7 */
(PID.TID 0000.0001)                 1.436059801346599E+07,      /* K =  8 */
(PID.TID 0000.0001)                 1.091380770081500E+07,      /* K =  9 */
(PID.TID 0000.0001)                 7.978026295150995E+06,      /* K = 10 */
(PID.TID 0000.0001)                 5.551303590104995E+06,      /* K = 11 */
(PID.TID 0000.0001)                 3.632012274116995E+06,      /* K = 12 */
(PID.TID 0000.0001)                 2.218855469146995E+06,      /* K = 13 */
(PID.TID 0000.0001)                 1.210008718980995E+06,      /* K = 14 */
(PID.TID 0000.0001)                 5.040896934999955E+05,      /* K = 15 */
(PID.TID 0000.0001)                 9.955256246030331E-07       /* K = 16 */
(PID.TID 0000.0001)     ;
(PID.TID 0000.0001) deepFacC = /* deep-model grid factor @ cell-Center (-) */
(PID.TID 0000.0001)    15 @  1.000000000000000E+00              /* K =  1: 15 */
(PID.TID 0000.0001)     ;
(PID.TID 0000.0001) deepFacF = /* deep-model grid factor @ W-Interface (-) */
(PID.TID 0000.0001)    16 @  1.000000000000000E+00              /* K =  1: 16 */
(PID.TID 0000.0001)     ;
(PID.TID 0000.0001) rVel2wUnit = /* convert units: rVel -> wSpeed (=1 if z-coord)*/
(PID.TID 0000.0001)                 9.741857413830955E-05,      /* K =  1 */
(PID.TID 0000.0001)                 9.767560854698387E-05,      /* K =  2 */
(PID.TID 0000.0001)                 9.791810961961699E-05,      /* K =  3 */
(PID.TID 0000.0001)                 9.814523044582380E-05,      /* K =  4 */
(PID.TID 0000.0001)                 9.835616206441658E-05,      /* K =  5 */
(PID.TID 0000.0001)                 9.855013950127949E-05,      /* K =  6 */
(PID.TID 0000.0001)                 9.872644762905337E-05,      /* K =  7 */
(PID.TID 0000.0001)                 9.888442677437525E-05,      /* K =  8 */
(PID.TID 0000.0001)                 9.902347799921741E-05,      /* K =  9 */
(PID.TID 0000.0001)                 9.914306798509472E-05,      /* K = 10 */
(PID.TID 0000.0001)                 9.924273345256813E-05,      /* K = 11 */
(PID.TID 0000.0001)                 9.932208505354885E-05,      /* K = 12 */
(PID.TID 0000.0001)                 9.938081068032788E-05,      /* K = 13 */
(PID.TID 0000.0001)                 9.942289122372219E-05,      /* K = 14 */
(PID.TID 0000.0001)                 9.945241412037006E-05,      /* K = 15 */
(PID.TID 0000.0001)                 9.947353552744130E-05       /* K = 16 */
(PID.TID 0000.0001)     ;
(PID.TID 0000.0001) wUnit2rVel = /* convert units: wSpeed -> rVel (=1 if z-coord)*/
(PID.TID 0000.0001)                 1.026498292389555E+04,      /* K =  1 */
(PID.TID 0000.0001)                 1.023797051153237E+04,      /* K =  2 */
(PID.TID 0000.0001)                 1.021261545882274E+04,      /* K =  3 */
(PID.TID 0000.0001)                 1.018898213858696E+04,      /* K =  4 */
(PID.TID 0000.0001)                 1.016713115895136E+04,      /* K =  5 */
(PID.TID 0000.0001)                 1.014711907117104E+04,      /* K =  6 */
(PID.TID 0000.0001)                 1.012899809539707E+04,      /* K =  7 */
(PID.TID 0000.0001)                 1.011281586615961E+04,      /* K =  8 */
(PID.TID 0000.0001)                 1.009861519919451E+04,      /* K =  9 */
(PID.TID 0000.0001)                 1.008643388108931E+04,      /* K = 10 */
(PID.TID 0000.0001)                 1.007630448306765E+04,      /* K = 11 */
(PID.TID 0000.0001)                 1.006825420006896E+04,      /* K = 12 */
(PID.TID 0000.0001)                 1.006230471611505E+04,      /* K = 13 */
(PID.TID 0000.0001)                 1.005804586541134E+04,      /* K = 14 */
(PID.TID 0000.0001)                 1.005506008923697E+04,      /* K = 15 */
(PID.TID 0000.0001)                 1.005292507899385E+04       /* K = 16 */
(PID.TID 0000.0001)     ;
(PID.TID 0000.0001) dBdrRef = /* Vertical grad. of reference buoyancy [(m/s/r)^2] */
(PID.TID 0000.0001)    15 @  0.000000000000000E+00              /* K =  1: 15 */
(PID.TID 0000.0001)     ;
(PID.TID 0000.0001) rotateGrid = /* use rotated grid ( True/False ) */
(PID.TID 0000.0001)                   F
(PID.TID 0000.0001)     ;
(PID.TID 0000.0001) phiEuler = /* Euler angle, rotation about original z-coordinate [rad] */
(PID.TID 0000.0001)                 0.000000000000000E+00
(PID.TID 0000.0001)     ;
(PID.TID 0000.0001) thetaEuler = /* Euler angle, rotation about new x-coordinate [rad] */
(PID.TID 0000.0001)                 0.000000000000000E+00
(PID.TID 0000.0001)     ;
(PID.TID 0000.0001) psiEuler = /* Euler angle, rotation about new z-coordinate [rad] */
(PID.TID 0000.0001)                 0.000000000000000E+00
(PID.TID 0000.0001)     ;
(PID.TID 0000.0001) dxF =  /* dxF(:,1,:,1) ( units: m ) */
(PID.TID 0000.0001)    90 @  9.246038586187513E+04              /* I =  1: 90 */
(PID.TID 0000.0001)     ;
(PID.TID 0000.0001) dxF =  /* dxF(1,:,1,:) ( units: m ) */
(PID.TID 0000.0001)                 9.246038586187513E+04,      /* J =  1 */
(PID.TID 0000.0001)                 1.225786591246834E+05,      /* J =  2 */
(PID.TID 0000.0001)                 1.520997414818001E+05,      /* J =  3 */
(PID.TID 0000.0001)                 1.808798091874300E+05,      /* J =  4 */
(PID.TID 0000.0001)                 2.087786486446736E+05,      /* J =  5 */
(PID.TID 0000.0001)                 2.356603395120765E+05,      /* J =  6 */
(PID.TID 0000.0001)                 2.613939168938713E+05,      /* J =  7 */
(PID.TID 0000.0001)                 2.858540093877838E+05,      /* J =  8 */
(PID.TID 0000.0001)                 3.089214498819034E+05,      /* J =  9 */
(PID.TID 0000.0001)                 3.304838561248741E+05,      /* J = 10 */
(PID.TID 0000.0001)                 3.504361782409254E+05,      /* J = 11 */
(PID.TID 0000.0001)                 3.686812105223082E+05,      /* J = 12 */
(PID.TID 0000.0001)                 3.851300650057323E+05,      /* J = 13 */
(PID.TID 0000.0001)                 3.997026045255871E+05,      /* J = 14 */
(PID.TID 0000.0001)                 4.123278331341585E+05,      /* J = 15 */
(PID.TID 0000.0001)                 4.229442419867491E+05,      /* J = 16 */
(PID.TID 0000.0001)                 4.315001090065870E+05,      /* J = 17 */
(PID.TID 0000.0001)                 4.379537508695838E+05,      /* J = 18 */
(PID.TID 0000.0001)                 4.422737260813012E+05,      /* J = 19 */
(PID.TID 0000.0001)     2 @  4.444389881567502E+05,             /* J = 20: 21 */
(PID.TID 0000.0001)                 4.422737260813012E+05,      /* J = 22 */
(PID.TID 0000.0001)                 4.379537508695838E+05,      /* J = 23 */
(PID.TID 0000.0001)                 4.315001090065870E+05,      /* J = 24 */
(PID.TID 0000.0001)                 4.229442419867491E+05,      /* J = 25 */
(PID.TID 0000.0001)                 4.123278331341585E+05,      /* J = 26 */
(PID.TID 0000.0001)                 3.997026045255871E+05,      /* J = 27 */
(PID.TID 0000.0001)                 3.851300650057323E+05,      /* J = 28 */
(PID.TID 0000.0001)                 3.686812105223082E+05,      /* J = 29 */
(PID.TID 0000.0001)                 3.504361782409254E+05,      /* J = 30 */
(PID.TID 0000.0001)                 3.304838561248741E+05,      /* J = 31 */
(PID.TID 0000.0001)                 3.089214498819034E+05,      /* J = 32 */
(PID.TID 0000.0001)                 2.858540093877838E+05,      /* J = 33 */
(PID.TID 0000.0001)                 2.613939168938713E+05,      /* J = 34 */
(PID.TID 0000.0001)                 2.356603395120765E+05,      /* J = 35 */
(PID.TID 0000.0001)                 2.087786486446736E+05,      /* J = 36 */
(PID.TID 0000.0001)                 1.808798091874300E+05,      /* J = 37 */
(PID.TID 0000.0001)                 1.520997414818001E+05,      /* J = 38 */
(PID.TID 0000.0001)                 1.225786591246834E+05,      /* J = 39 */
(PID.TID 0000.0001)                 9.246038586187513E+04       /* J = 40 */
(PID.TID 0000.0001)     ;
(PID.TID 0000.0001) dyF =  /* dyF(:,1,:,1) ( units: m ) */
(PID.TID 0000.0001)    90 @  4.447098934081552E+05              /* I =  1: 90 */
(PID.TID 0000.0001)     ;
(PID.TID 0000.0001) dyF =  /* dyF(1,:,1,:) ( units: m ) */
(PID.TID 0000.0001)    40 @  4.447098934081552E+05              /* J =  1: 40 */
(PID.TID 0000.0001)     ;
(PID.TID 0000.0001) dxG =  /* dxG(:,1,:,1) ( units: m ) */
(PID.TID 0000.0001)    90 @  7.722306258078101E+04              /* I =  1: 90 */
(PID.TID 0000.0001)     ;
(PID.TID 0000.0001) dxG =  /* dxG(1,:,1,:) ( units: m ) */
(PID.TID 0000.0001)                 7.722306258078101E+04,      /* J =  1 */
(PID.TID 0000.0001)                 1.075850604052271E+05,      /* J =  2 */
(PID.TID 0000.0001)                 1.374229146297914E+05,      /* J =  3 */
(PID.TID 0000.0001)                 1.665912582279823E+05,      /* J =  4 */
(PID.TID 0000.0001)                 1.949479859617814E+05,      /* J =  5 */
(PID.TID 0000.0001)                 2.223549467040777E+05,      /* J =  6 */
(PID.TID 0000.0001)                 2.486786164970726E+05,      /* J =  7 */
(PID.TID 0000.0001)                 2.737907490675810E+05,      /* J =  8 */
(PID.TID 0000.0001)                 2.975690006299821E+05,      /* J =  9 */
(PID.TID 0000.0001)                 3.198975259328452E+05,      /* J = 10 */
(PID.TID 0000.0001)                 3.406675426453503E+05,      /* J = 11 */
(PID.TID 0000.0001)                 3.597778613338690E+05,      /* J = 12 */
(PID.TID 0000.0001)                 3.771353784467131E+05,      /* J = 13 */
(PID.TID 0000.0001)                 3.926555299052806E+05,      /* J = 14 */
(PID.TID 0000.0001)                 4.062627030917454E+05,      /* J = 15 */
(PID.TID 0000.0001)                 4.178906052261313E+05,      /* J = 16 */
(PID.TID 0000.0001)                 4.274825863380723E+05,      /* J = 17 */
(PID.TID 0000.0001)                 4.349919152597734E+05,      /* J = 18 */
(PID.TID 0000.0001)                 4.403820072955634E+05,      /* J = 19 */
(PID.TID 0000.0001)                 4.436266024588540E+05,      /* J = 20 */
(PID.TID 0000.0001)                 4.447098934081552E+05,      /* J = 21 */
(PID.TID 0000.0001)                 4.436266024588540E+05,      /* J = 22 */
(PID.TID 0000.0001)                 4.403820072955634E+05,      /* J = 23 */
(PID.TID 0000.0001)                 4.349919152597734E+05,      /* J = 24 */
(PID.TID 0000.0001)                 4.274825863380723E+05,      /* J = 25 */
(PID.TID 0000.0001)                 4.178906052261313E+05,      /* J = 26 */
(PID.TID 0000.0001)                 4.062627030917454E+05,      /* J = 27 */
(PID.TID 0000.0001)                 3.926555299052806E+05,      /* J = 28 */
(PID.TID 0000.0001)                 3.771353784467131E+05,      /* J = 29 */
(PID.TID 0000.0001)                 3.597778613338690E+05,      /* J = 30 */
(PID.TID 0000.0001)                 3.406675426453503E+05,      /* J = 31 */
(PID.TID 0000.0001)                 3.198975259328452E+05,      /* J = 32 */
(PID.TID 0000.0001)                 2.975690006299821E+05,      /* J = 33 */
(PID.TID 0000.0001)                 2.737907490675810E+05,      /* J = 34 */
(PID.TID 0000.0001)                 2.486786164970726E+05,      /* J = 35 */
(PID.TID 0000.0001)                 2.223549467040777E+05,      /* J = 36 */
(PID.TID 0000.0001)                 1.949479859617814E+05,      /* J = 37 */
(PID.TID 0000.0001)                 1.665912582279823E+05,      /* J = 38 */
(PID.TID 0000.0001)                 1.374229146297914E+05,      /* J = 39 */
(PID.TID 0000.0001)                 1.075850604052271E+05       /* J = 40 */
(PID.TID 0000.0001)     ;
(PID.TID 0000.0001) dyG =  /* dyG(:,1,:,1) ( units: m ) */
(PID.TID 0000.0001)    90 @  4.447098934081552E+05              /* I =  1: 90 */
(PID.TID 0000.0001)     ;
(PID.TID 0000.0001) dyG =  /* dyG(1,:,1,:) ( units: m ) */
(PID.TID 0000.0001)    40 @  4.447098934081552E+05              /* J =  1: 40 */
(PID.TID 0000.0001)     ;
(PID.TID 0000.0001) dxC =  /* dxC(:,1,:,1) ( units: m ) */
(PID.TID 0000.0001)    90 @  9.246038586187513E+04              /* I =  1: 90 */
(PID.TID 0000.0001)     ;
(PID.TID 0000.0001) dxC =  /* dxC(1,:,1,:) ( units: m ) */
(PID.TID 0000.0001)                 9.246038586187513E+04,      /* J =  1 */
(PID.TID 0000.0001)                 1.225786591246834E+05,      /* J =  2 */
(PID.TID 0000.0001)                 1.520997414818001E+05,      /* J =  3 */
(PID.TID 0000.0001)                 1.808798091874300E+05,      /* J =  4 */
(PID.TID 0000.0001)                 2.087786486446736E+05,      /* J =  5 */
(PID.TID 0000.0001)                 2.356603395120765E+05,      /* J =  6 */
(PID.TID 0000.0001)                 2.613939168938713E+05,      /* J =  7 */
(PID.TID 0000.0001)                 2.858540093877838E+05,      /* J =  8 */
(PID.TID 0000.0001)                 3.089214498819034E+05,      /* J =  9 */
(PID.TID 0000.0001)                 3.304838561248741E+05,      /* J = 10 */
(PID.TID 0000.0001)                 3.504361782409254E+05,      /* J = 11 */
(PID.TID 0000.0001)                 3.686812105223082E+05,      /* J = 12 */
(PID.TID 0000.0001)                 3.851300650057323E+05,      /* J = 13 */
(PID.TID 0000.0001)                 3.997026045255871E+05,      /* J = 14 */
(PID.TID 0000.0001)                 4.123278331341585E+05,      /* J = 15 */
(PID.TID 0000.0001)                 4.229442419867491E+05,      /* J = 16 */
(PID.TID 0000.0001)                 4.315001090065870E+05,      /* J = 17 */
(PID.TID 0000.0001)                 4.379537508695838E+05,      /* J = 18 */
(PID.TID 0000.0001)                 4.422737260813012E+05,      /* J = 19 */
(PID.TID 0000.0001)     2 @  4.444389881567502E+05,             /* J = 20: 21 */
(PID.TID 0000.0001)                 4.422737260813012E+05,      /* J = 22 */
(PID.TID 0000.0001)                 4.379537508695838E+05,      /* J = 23 */
(PID.TID 0000.0001)                 4.315001090065870E+05,      /* J = 24 */
(PID.TID 0000.0001)                 4.229442419867491E+05,      /* J = 25 */
(PID.TID 0000.0001)                 4.123278331341585E+05,      /* J = 26 */
(PID.TID 0000.0001)                 3.997026045255871E+05,      /* J = 27 */
(PID.TID 0000.0001)                 3.851300650057323E+05,      /* J = 28 */
(PID.TID 0000.0001)                 3.686812105223082E+05,      /* J = 29 */
(PID.TID 0000.0001)                 3.504361782409254E+05,      /* J = 30 */
(PID.TID 0000.0001)                 3.304838561248741E+05,      /* J = 31 */
(PID.TID 0000.0001)                 3.089214498819034E+05,      /* J = 32 */
(PID.TID 0000.0001)                 2.858540093877838E+05,      /* J = 33 */
(PID.TID 0000.0001)                 2.613939168938713E+05,      /* J = 34 */
(PID.TID 0000.0001)                 2.356603395120765E+05,      /* J = 35 */
(PID.TID 0000.0001)                 2.087786486446736E+05,      /* J = 36 */
(PID.TID 0000.0001)                 1.808798091874300E+05,      /* J = 37 */
(PID.TID 0000.0001)                 1.520997414818001E+05,      /* J = 38 */
(PID.TID 0000.0001)                 1.225786591246834E+05,      /* J = 39 */
(PID.TID 0000.0001)                 9.246038586187513E+04       /* J = 40 */
(PID.TID 0000.0001)     ;
(PID.TID 0000.0001) dyC =  /* dyC(:,1,:,1) ( units: m ) */
(PID.TID 0000.0001)    90 @  4.447098934081552E+05              /* I =  1: 90 */
(PID.TID 0000.0001)     ;
(PID.TID 0000.0001) dyC =  /* dyC(1,:,1,:) ( units: m ) */
(PID.TID 0000.0001)    40 @  4.447098934081552E+05              /* J =  1: 40 */
(PID.TID 0000.0001)     ;
(PID.TID 0000.0001) dxV =  /* dxV(:,1,:,1) ( units: m ) */
(PID.TID 0000.0001)    90 @  7.722306258078101E+04              /* I =  1: 90 */
(PID.TID 0000.0001)     ;
(PID.TID 0000.0001) dxV =  /* dxV(1,:,1,:) ( units: m ) */
(PID.TID 0000.0001)                 7.722306258078101E+04,      /* J =  1 */
(PID.TID 0000.0001)                 1.075850604052271E+05,      /* J =  2 */
(PID.TID 0000.0001)                 1.374229146297914E+05,      /* J =  3 */
(PID.TID 0000.0001)                 1.665912582279823E+05,      /* J =  4 */
(PID.TID 0000.0001)                 1.949479859617814E+05,      /* J =  5 */
(PID.TID 0000.0001)                 2.223549467040777E+05,      /* J =  6 */
(PID.TID 0000.0001)                 2.486786164970726E+05,      /* J =  7 */
(PID.TID 0000.0001)                 2.737907490675810E+05,      /* J =  8 */
(PID.TID 0000.0001)                 2.975690006299821E+05,      /* J =  9 */
(PID.TID 0000.0001)                 3.198975259328452E+05,      /* J = 10 */
(PID.TID 0000.0001)                 3.406675426453503E+05,      /* J = 11 */
(PID.TID 0000.0001)                 3.597778613338690E+05,      /* J = 12 */
(PID.TID 0000.0001)                 3.771353784467131E+05,      /* J = 13 */
(PID.TID 0000.0001)                 3.926555299052806E+05,      /* J = 14 */
(PID.TID 0000.0001)                 4.062627030917454E+05,      /* J = 15 */
(PID.TID 0000.0001)                 4.178906052261313E+05,      /* J = 16 */
(PID.TID 0000.0001)                 4.274825863380723E+05,      /* J = 17 */
(PID.TID 0000.0001)                 4.349919152597734E+05,      /* J = 18 */
(PID.TID 0000.0001)                 4.403820072955634E+05,      /* J = 19 */
(PID.TID 0000.0001)                 4.436266024588540E+05,      /* J = 20 */
(PID.TID 0000.0001)                 4.447098934081552E+05,      /* J = 21 */
(PID.TID 0000.0001)                 4.436266024588540E+05,      /* J = 22 */
(PID.TID 0000.0001)                 4.403820072955634E+05,      /* J = 23 */
(PID.TID 0000.0001)                 4.349919152597734E+05,      /* J = 24 */
(PID.TID 0000.0001)                 4.274825863380723E+05,      /* J = 25 */
(PID.TID 0000.0001)                 4.178906052261313E+05,      /* J = 26 */
(PID.TID 0000.0001)                 4.062627030917454E+05,      /* J = 27 */
(PID.TID 0000.0001)                 3.926555299052806E+05,      /* J = 28 */
(PID.TID 0000.0001)                 3.771353784467131E+05,      /* J = 29 */
(PID.TID 0000.0001)                 3.597778613338690E+05,      /* J = 30 */
(PID.TID 0000.0001)                 3.406675426453503E+05,      /* J = 31 */
(PID.TID 0000.0001)                 3.198975259328452E+05,      /* J = 32 */
(PID.TID 0000.0001)                 2.975690006299821E+05,      /* J = 33 */
(PID.TID 0000.0001)                 2.737907490675810E+05,      /* J = 34 */
(PID.TID 0000.0001)                 2.486786164970726E+05,      /* J = 35 */
(PID.TID 0000.0001)                 2.223549467040777E+05,      /* J = 36 */
(PID.TID 0000.0001)                 1.949479859617814E+05,      /* J = 37 */
(PID.TID 0000.0001)                 1.665912582279823E+05,      /* J = 38 */
(PID.TID 0000.0001)                 1.374229146297914E+05,      /* J = 39 */
(PID.TID 0000.0001)                 1.075850604052271E+05       /* J = 40 */
(PID.TID 0000.0001)     ;
(PID.TID 0000.0001) dyU =  /* dyU(:,1,:,1) ( units: m ) */
(PID.TID 0000.0001)    90 @  4.447098934081552E+05              /* I =  1: 90 */
(PID.TID 0000.0001)     ;
(PID.TID 0000.0001) dyU =  /* dyU(1,:,1,:) ( units: m ) */
(PID.TID 0000.0001)    40 @  4.447098934081552E+05              /* J =  1: 40 */
(PID.TID 0000.0001)     ;
(PID.TID 0000.0001) rA  =  /* rA (:,1,:,1) ( units: m^2 ) */
(PID.TID 0000.0001)    90 @  4.110969866729047E+10              /* I =  1: 90 */
(PID.TID 0000.0001)     ;
(PID.TID 0000.0001) rA  =  /* rA (1,:,1,:) ( units: m^2 ) */
(PID.TID 0000.0001)                 4.110969866729047E+10,      /* J =  1 */
(PID.TID 0000.0001)                 5.450087291636665E+10,      /* J =  2 */
(PID.TID 0000.0001)                 6.762652439100235E+10,      /* J =  3 */
(PID.TID 0000.0001)                 8.042270623659998E+10,      /* J =  4 */
(PID.TID 0000.0001)                 9.282707674147523E+10,      /* J =  5 */
(PID.TID 0000.0001)                 1.047792030594103E+11,      /* J =  6 */
(PID.TID 0000.0001)                 1.162208556324093E+11,      /* J =  7 */
(PID.TID 0000.0001)                 1.270962918792468E+11,      /* J =  8 */
(PID.TID 0000.0001)                 1.373525277677229E+11,      /* J =  9 */
(PID.TID 0000.0001)                 1.469395959475426E+11,      /* J = 10 */
(PID.TID 0000.0001)                 1.558107891862220E+11,      /* J = 11 */
(PID.TID 0000.0001)                 1.639228879220326E+11,      /* J = 12 */
(PID.TID 0000.0001)                 1.712363708253573E+11,      /* J = 13 */
(PID.TID 0000.0001)                 1.777156073426415E+11,      /* J = 14 */
(PID.TID 0000.0001)                 1.833290312848623E+11,      /* J = 15 */
(PID.TID 0000.0001)                 1.880492946148330E+11,      /* J = 16 */
(PID.TID 0000.0001)                 1.918534006840893E+11,      /* J = 17 */
(PID.TID 0000.0001)                 1.947228162702492E+11,      /* J = 18 */
(PID.TID 0000.0001)                 1.966435618690094E+11,      /* J = 19 */
(PID.TID 0000.0001)     2 @  1.976062798008856E+11,             /* J = 20: 21 */
(PID.TID 0000.0001)                 1.966435618690094E+11,      /* J = 22 */
(PID.TID 0000.0001)                 1.947228162702492E+11,      /* J = 23 */
(PID.TID 0000.0001)                 1.918534006840893E+11,      /* J = 24 */
(PID.TID 0000.0001)                 1.880492946148330E+11,      /* J = 25 */
(PID.TID 0000.0001)                 1.833290312848623E+11,      /* J = 26 */
(PID.TID 0000.0001)                 1.777156073426415E+11,      /* J = 27 */
(PID.TID 0000.0001)                 1.712363708253573E+11,      /* J = 28 */
(PID.TID 0000.0001)                 1.639228879220326E+11,      /* J = 29 */
(PID.TID 0000.0001)                 1.558107891862220E+11,      /* J = 30 */
(PID.TID 0000.0001)                 1.469395959475426E+11,      /* J = 31 */
(PID.TID 0000.0001)                 1.373525277677229E+11,      /* J = 32 */
(PID.TID 0000.0001)                 1.270962918792468E+11,      /* J = 33 */
(PID.TID 0000.0001)                 1.162208556324093E+11,      /* J = 34 */
(PID.TID 0000.0001)                 1.047792030594103E+11,      /* J = 35 */
(PID.TID 0000.0001)                 9.282707674147523E+10,      /* J = 36 */
(PID.TID 0000.0001)                 8.042270623659998E+10,      /* J = 37 */
(PID.TID 0000.0001)                 6.762652439100235E+10,      /* J = 38 */
(PID.TID 0000.0001)                 5.450087291636665E+10,      /* J = 39 */
(PID.TID 0000.0001)                 4.110969866729047E+10       /* J = 40 */
(PID.TID 0000.0001)     ;
(PID.TID 0000.0001) rAw =  /* rAw(:,1,:,1) ( units: m^2 ) */
(PID.TID 0000.0001)    90 @  4.110969866729047E+10              /* I =  1: 90 */
(PID.TID 0000.0001)     ;
(PID.TID 0000.0001) rAw =  /* rAw(1,:,1,:) ( units: m^2 ) */
(PID.TID 0000.0001)                 4.110969866729047E+10,      /* J =  1 */
(PID.TID 0000.0001)                 5.450087291636665E+10,      /* J =  2 */
(PID.TID 0000.0001)                 6.762652439100235E+10,      /* J =  3 */
(PID.TID 0000.0001)                 8.042270623659998E+10,      /* J =  4 */
(PID.TID 0000.0001)                 9.282707674147523E+10,      /* J =  5 */
(PID.TID 0000.0001)                 1.047792030594103E+11,      /* J =  6 */
(PID.TID 0000.0001)                 1.162208556324093E+11,      /* J =  7 */
(PID.TID 0000.0001)                 1.270962918792468E+11,      /* J =  8 */
(PID.TID 0000.0001)                 1.373525277677229E+11,      /* J =  9 */
(PID.TID 0000.0001)                 1.469395959475426E+11,      /* J = 10 */
(PID.TID 0000.0001)                 1.558107891862220E+11,      /* J = 11 */
(PID.TID 0000.0001)                 1.639228879220326E+11,      /* J = 12 */
(PID.TID 0000.0001)                 1.712363708253573E+11,      /* J = 13 */
(PID.TID 0000.0001)                 1.777156073426415E+11,      /* J = 14 */
(PID.TID 0000.0001)                 1.833290312848623E+11,      /* J = 15 */
(PID.TID 0000.0001)                 1.880492946148330E+11,      /* J = 16 */
(PID.TID 0000.0001)                 1.918534006840893E+11,      /* J = 17 */
(PID.TID 0000.0001)                 1.947228162702492E+11,      /* J = 18 */
(PID.TID 0000.0001)                 1.966435618690094E+11,      /* J = 19 */
(PID.TID 0000.0001)     2 @  1.976062798008856E+11,             /* J = 20: 21 */
(PID.TID 0000.0001)                 1.966435618690094E+11,      /* J = 22 */
(PID.TID 0000.0001)                 1.947228162702492E+11,      /* J = 23 */
(PID.TID 0000.0001)                 1.918534006840893E+11,      /* J = 24 */
(PID.TID 0000.0001)                 1.880492946148330E+11,      /* J = 25 */
(PID.TID 0000.0001)                 1.833290312848623E+11,      /* J = 26 */
(PID.TID 0000.0001)                 1.777156073426415E+11,      /* J = 27 */
(PID.TID 0000.0001)                 1.712363708253573E+11,      /* J = 28 */
(PID.TID 0000.0001)                 1.639228879220326E+11,      /* J = 29 */
(PID.TID 0000.0001)                 1.558107891862220E+11,      /* J = 30 */
(PID.TID 0000.0001)                 1.469395959475426E+11,      /* J = 31 */
(PID.TID 0000.0001)                 1.373525277677229E+11,      /* J = 32 */
(PID.TID 0000.0001)                 1.270962918792468E+11,      /* J = 33 */
(PID.TID 0000.0001)                 1.162208556324093E+11,      /* J = 34 */
(PID.TID 0000.0001)                 1.047792030594103E+11,      /* J = 35 */
(PID.TID 0000.0001)                 9.282707674147523E+10,      /* J = 36 */
(PID.TID 0000.0001)                 8.042270623659998E+10,      /* J = 37 */
(PID.TID 0000.0001)                 6.762652439100235E+10,      /* J = 38 */
(PID.TID 0000.0001)                 5.450087291636665E+10,      /* J = 39 */
(PID.TID 0000.0001)                 4.110969866729047E+10       /* J = 40 */
(PID.TID 0000.0001)     ;
(PID.TID 0000.0001) rAs =  /* rAs(:,1,:,1) ( units: m^2 ) */
(PID.TID 0000.0001)    90 @  3.433488626798250E+10              /* I =  1: 90 */
(PID.TID 0000.0001)     ;
(PID.TID 0000.0001) rAs =  /* rAs(1,:,1,:) ( units: m^2 ) */
(PID.TID 0000.0001)                 3.433488626798250E+10,      /* J =  1 */
(PID.TID 0000.0001)                 4.783442523123625E+10,      /* J =  2 */
(PID.TID 0000.0001)                 6.110091968306414E+10,      /* J =  3 */
(PID.TID 0000.0001)                 7.406973659603818E+10,      /* J =  4 */
(PID.TID 0000.0001)                 8.667769319778079E+10,      /* J =  5 */
(PID.TID 0000.0001)                 9.886336479107463E+10,      /* J =  6 */
(PID.TID 0000.0001)                 1.105673840088173E+11,      /* J =  7 */
(PID.TID 0000.0001)                 1.217327300458638E+11,      /* J =  8 */
(PID.TID 0000.0001)                 1.323050064586578E+11,      /* J =  9 */
(PID.TID 0000.0001)                 1.422327061792377E+11,      /* J = 10 */
(PID.TID 0000.0001)                 1.514674624524945E+11,      /* J = 11 */
(PID.TID 0000.0001)                 1.599642844741385E+11,      /* J = 12 */
(PID.TID 0000.0001)                 1.676817765813788E+11,      /* J = 13 */
(PID.TID 0000.0001)                 1.745823399284268E+11,      /* J = 14 */
(PID.TID 0000.0001)                 1.806323556642996E+11,      /* J = 15 */
(PID.TID 0000.0001)                 1.858023487204767E+11,      /* J = 16 */
(PID.TID 0000.0001)                 1.900671314104743E+11,      /* J = 17 */
(PID.TID 0000.0001)                 1.934059261417216E+11,      /* J = 18 */
(PID.TID 0000.0001)                 1.958024666419019E+11,      /* J = 19 */
(PID.TID 0000.0001)                 1.972450772065981E+11,      /* J = 20 */
(PID.TID 0000.0001)                 1.977267295821495E+11,      /* J = 21 */
(PID.TID 0000.0001)                 1.972450772065981E+11,      /* J = 22 */
(PID.TID 0000.0001)                 1.958024666419019E+11,      /* J = 23 */
(PID.TID 0000.0001)                 1.934059261417216E+11,      /* J = 24 */
(PID.TID 0000.0001)                 1.900671314104743E+11,      /* J = 25 */
(PID.TID 0000.0001)                 1.858023487204767E+11,      /* J = 26 */
(PID.TID 0000.0001)                 1.806323556642996E+11,      /* J = 27 */
(PID.TID 0000.0001)                 1.745823399284268E+11,      /* J = 28 */
(PID.TID 0000.0001)                 1.676817765813788E+11,      /* J = 29 */
(PID.TID 0000.0001)                 1.599642844741385E+11,      /* J = 30 */
(PID.TID 0000.0001)                 1.514674624524945E+11,      /* J = 31 */
(PID.TID 0000.0001)                 1.422327061792377E+11,      /* J = 32 */
(PID.TID 0000.0001)                 1.323050064586578E+11,      /* J = 33 */
(PID.TID 0000.0001)                 1.217327300458638E+11,      /* J = 34 */
(PID.TID 0000.0001)                 1.105673840088173E+11,      /* J = 35 */
(PID.TID 0000.0001)                 9.886336479107463E+10,      /* J = 36 */
(PID.TID 0000.0001)                 8.667769319778079E+10,      /* J = 37 */
(PID.TID 0000.0001)                 7.406973659603818E+10,      /* J = 38 */
(PID.TID 0000.0001)                 6.110091968306414E+10,      /* J = 39 */
(PID.TID 0000.0001)                 4.783442523123625E+10       /* J = 40 */
(PID.TID 0000.0001)     ;
(PID.TID 0000.0001) globalArea = /* Integrated horizontal Area (m^2) */
(PID.TID 0000.0001)                 3.444981130405358E+14
(PID.TID 0000.0001)     ;
(PID.TID 0000.0001) // =======================================================
(PID.TID 0000.0001) // End of Model config. summary
(PID.TID 0000.0001) // =======================================================
(PID.TID 0000.0001) 
(PID.TID 0000.0001) == Packages configuration : Check & print summary ==
(PID.TID 0000.0001) 
(PID.TID 0000.0001) GAD_CHECK: #define ALLOW_GENERIC_ADVDIFF
(PID.TID 0000.0001) // =======================================================
(PID.TID 0000.0001) // CONFIG_CHECK : Normal End
(PID.TID 0000.0001) // =======================================================
(PID.TID 0000.0001) 
(PID.TID 0000.0001)  MDS_READ_FIELD: opening global file: lev_t.bin
(PID.TID 0000.0001)  MDS_READ_FIELD: opening global file: lev_s.bin
(PID.TID 0000.0001) Start initial hydrostatic pressure computation
(PID.TID 0000.0001) Pressure is predetermined for buoyancyRelation OCEANICP
(PID.TID 0000.0001) 
(PID.TID 0000.0001)  MDS_READ_FIELD: opening global file: trenberth_taux.bin
(PID.TID 0000.0001)  MDS_READ_FIELD: opening global file: trenberth_tauy.bin
(PID.TID 0000.0001)  MDS_READ_FIELD: opening global file: shi_qnet.bin
(PID.TID 0000.0001)  MDS_READ_FIELD: opening global file: shi_empmr.bin
(PID.TID 0000.0001)  MDS_READ_FIELD: opening global file: lev_sst.bin
(PID.TID 0000.0001)  MDS_READ_FIELD: opening global file: deltageopotjmd95.bin
(PID.TID 0000.0001) // =======================================================
(PID.TID 0000.0001) // Model current state
(PID.TID 0000.0001) // =======================================================
(PID.TID 0000.0001) 
(PID.TID 0000.0001) // =======================================================
(PID.TID 0000.0001) // Begin MONITOR dynamic field statistics
(PID.TID 0000.0001) // =======================================================
(PID.TID 0000.0001) %MON time_tsnumber                =                     0
(PID.TID 0000.0001) %MON time_secondsf                =   0.0000000000000E+00
(PID.TID 0000.0001) %MON dynstat_eta_max              =   0.0000000000000E+00
(PID.TID 0000.0001) %MON dynstat_eta_min              =   0.0000000000000E+00
(PID.TID 0000.0001) %MON dynstat_eta_mean             =   0.0000000000000E+00
(PID.TID 0000.0001) %MON dynstat_eta_sd               =   0.0000000000000E+00
(PID.TID 0000.0001) %MON dynstat_eta_del2             =   0.0000000000000E+00
(PID.TID 0000.0001) %MON dynstat_uvel_max             =   0.0000000000000E+00
(PID.TID 0000.0001) %MON dynstat_uvel_min             =   0.0000000000000E+00
(PID.TID 0000.0001) %MON dynstat_uvel_mean            =   0.0000000000000E+00
(PID.TID 0000.0001) %MON dynstat_uvel_sd              =   0.0000000000000E+00
(PID.TID 0000.0001) %MON dynstat_uvel_del2            =   0.0000000000000E+00
(PID.TID 0000.0001) %MON dynstat_vvel_max             =   0.0000000000000E+00
(PID.TID 0000.0001) %MON dynstat_vvel_min             =   0.0000000000000E+00
(PID.TID 0000.0001) %MON dynstat_vvel_mean            =   0.0000000000000E+00
(PID.TID 0000.0001) %MON dynstat_vvel_sd              =   0.0000000000000E+00
(PID.TID 0000.0001) %MON dynstat_vvel_del2            =   0.0000000000000E+00
(PID.TID 0000.0001) %MON dynstat_wvel_max             =  -0.0000000000000E+00
(PID.TID 0000.0001) %MON dynstat_wvel_min             =  -0.0000000000000E+00
(PID.TID 0000.0001) %MON dynstat_wvel_mean            =   0.0000000000000E+00
(PID.TID 0000.0001) %MON dynstat_wvel_sd              =   0.0000000000000E+00
(PID.TID 0000.0001) %MON dynstat_wvel_del2            =   0.0000000000000E+00
(PID.TID 0000.0001) %MON dynstat_theta_max            =   2.9733511003948E+01
(PID.TID 0000.0001) %MON dynstat_theta_min            =  -2.6263839329562E+00
(PID.TID 0000.0001) %MON dynstat_theta_mean           =   3.6018664655656E+00
(PID.TID 0000.0001) %MON dynstat_theta_sd             =   4.4018845380981E+00
(PID.TID 0000.0001) %MON dynstat_theta_del2           =   5.7770997867767E-03
(PID.TID 0000.0001) %MON dynstat_salt_max             =   3.7475629659304E+01
(PID.TID 0000.0001) %MON dynstat_salt_min             =   2.9752769471420E+01
(PID.TID 0000.0001) %MON dynstat_salt_mean            =   3.4718001015839E+01
(PID.TID 0000.0001) %MON dynstat_salt_sd              =   2.9462524950605E-01
(PID.TID 0000.0001) %MON dynstat_salt_del2            =   1.0382303854229E-03
(PID.TID 0000.0001) %MON forcing_qnet_max             =   4.7889539846945E+02
(PID.TID 0000.0001) %MON forcing_qnet_min             =  -2.1234592141945E+02
(PID.TID 0000.0001) %MON forcing_qnet_mean            =  -1.5407959491527E+01
(PID.TID 0000.0001) %MON forcing_qnet_sd              =   1.1749008355619E+02
(PID.TID 0000.0001) %MON forcing_qnet_del2            =   7.6292848491878E-01
(PID.TID 0000.0001) %MON forcing_qsw_max              =   0.0000000000000E+00
(PID.TID 0000.0001) %MON forcing_qsw_min              =   0.0000000000000E+00
(PID.TID 0000.0001) %MON forcing_qsw_mean             =   0.0000000000000E+00
(PID.TID 0000.0001) %MON forcing_qsw_sd               =   0.0000000000000E+00
(PID.TID 0000.0001) %MON forcing_qsw_del2             =   0.0000000000000E+00
(PID.TID 0000.0001) %MON forcing_empmr_max            =   5.2302461935749E-05
(PID.TID 0000.0001) %MON forcing_empmr_min            =  -1.3705199332603E-04
(PID.TID 0000.0001) %MON forcing_empmr_mean           =   0.0000000000000E+00
(PID.TID 0000.0001) %MON forcing_empmr_sd             =   2.3550327612301E-05
(PID.TID 0000.0001) %MON forcing_empmr_del2           =   2.4956923451985E-07
(PID.TID 0000.0001) %MON forcing_fu_max               =   2.7877888530287E-01
(PID.TID 0000.0001) %MON forcing_fu_min               =  -1.7088057632071E-01
(PID.TID 0000.0001) %MON forcing_fu_mean              =   1.6077639705783E-02
(PID.TID 0000.0001) %MON forcing_fu_sd                =   9.1121692265396E-02
(PID.TID 0000.0001) %MON forcing_fu_del2              =   7.1645420756246E-04
(PID.TID 0000.0001) %MON forcing_fv_max               =   2.3312132027950E-01
(PID.TID 0000.0001) %MON forcing_fv_min               =  -1.7813690234636E-01
(PID.TID 0000.0001) %MON forcing_fv_mean              =  -5.2123713348980E-03
(PID.TID 0000.0001) %MON forcing_fv_sd                =   4.8244503985680E-02
(PID.TID 0000.0001) %MON forcing_fv_del2              =   4.8353727932034E-04
(PID.TID 0000.0001) %MON advcfl_uvel_max              =   0.0000000000000E+00
(PID.TID 0000.0001) %MON advcfl_vvel_max              =   0.0000000000000E+00
(PID.TID 0000.0001) %MON advcfl_wvel_max              =   0.0000000000000E+00
(PID.TID 0000.0001) %MON advcfl_W_hf_max              =   0.0000000000000E+00
(PID.TID 0000.0001) %MON pe_b_mean                    =   0.0000000000000E+00
(PID.TID 0000.0001) %MON ke_max                       =   0.0000000000000E+00
(PID.TID 0000.0001) %MON ke_mean                      =   0.0000000000000E+00
(PID.TID 0000.0001) %MON ke_vol                       =   1.3442141716554E+22
(PID.TID 0000.0001) %MON vort_r_min                   =   0.0000000000000E+00
(PID.TID 0000.0001) %MON vort_r_max                   =   0.0000000000000E+00
(PID.TID 0000.0001) %MON vort_a_mean                  =  -2.4531015880775E-05
(PID.TID 0000.0001) %MON vort_a_sd                    =   7.3436042941020E-05
(PID.TID 0000.0001) %MON vort_p_mean                  =  -2.9390264918859E-05
(PID.TID 0000.0001) %MON vort_p_sd                    =   1.0331963168452E-04
(PID.TID 0000.0001) %MON surfExpan_theta_mean         =   0.0000000000000E+00
(PID.TID 0000.0001) %MON surfExpan_salt_mean          =   0.0000000000000E+00
(PID.TID 0000.0001) // =======================================================
(PID.TID 0000.0001) // End MONITOR dynamic field statistics
(PID.TID 0000.0001) // =======================================================
 EXTERNAL_FIELDS_LOAD,         0 : iP,iLd,i0,i1=   12    0   12    1 ; Wght=  0.5000000000  0.5000000000
 EXTERNAL_FIELDS_LOAD, it=         0 : Reading new data, i0,i1=   12    1 (prev=   12    0 )
(PID.TID 0000.0001)  MDS_READ_FIELD: opening global file: trenberth_taux.bin
(PID.TID 0000.0001)  MDS_READ_FIELD: opening global file: trenberth_taux.bin
(PID.TID 0000.0001)  MDS_READ_FIELD: opening global file: trenberth_tauy.bin
(PID.TID 0000.0001)  MDS_READ_FIELD: opening global file: trenberth_tauy.bin
(PID.TID 0000.0001)  MDS_READ_FIELD: opening global file: shi_qnet.bin
(PID.TID 0000.0001)  MDS_READ_FIELD: opening global file: shi_qnet.bin
(PID.TID 0000.0001)  MDS_READ_FIELD: opening global file: shi_empmr.bin
(PID.TID 0000.0001)  MDS_READ_FIELD: opening global file: shi_empmr.bin
(PID.TID 0000.0001)  MDS_READ_FIELD: opening global file: lev_sst.bin
(PID.TID 0000.0001)  MDS_READ_FIELD: opening global file: lev_sst.bin
(PID.TID 0000.0001)  MDS_READ_FIELD: opening global file: deltageopotjmd95.bin
(PID.TID 0000.0001)  MDS_READ_FIELD: opening global file: deltageopotjmd95.bin
(PID.TID 0000.0001) SOLVE_FOR_PRESSURE: putPmEinXvector =    F
 cg2d: Sum(rhs),rhsMax =  -6.10622663543836E-16  1.71163414373126E+02
(PID.TID 0000.0001)                    cg2d_init_res =    9.36692383621740E+00
(PID.TID 0000.0001)                       cg2d_iters =   107
(PID.TID 0000.0001)                         cg2d_res =    9.62519078670608E-10
(PID.TID 0000.0001) // =======================================================
(PID.TID 0000.0001) // Begin MONITOR dynamic field statistics
(PID.TID 0000.0001) // =======================================================
(PID.TID 0000.0001) %MON time_tsnumber                =                     1
(PID.TID 0000.0001) %MON time_secondsf                =   1.7280000000000E+05
(PID.TID 0000.0001) %MON dynstat_eta_max              =   4.1656786839423E+04
(PID.TID 0000.0001) %MON dynstat_eta_min              =  -8.8276374725145E+04
(PID.TID 0000.0001) %MON dynstat_eta_mean             =  -2.1939302981644E-13
(PID.TID 0000.0001) %MON dynstat_eta_sd               =   3.6901397170278E+04
(PID.TID 0000.0001) %MON dynstat_eta_del2             =   2.0856467227143E+03
(PID.TID 0000.0001) %MON dynstat_uvel_max             =   3.5106109517859E-02
(PID.TID 0000.0001) %MON dynstat_uvel_min             =  -3.5372108944508E-02
(PID.TID 0000.0001) %MON dynstat_uvel_mean            =  -8.4135916903908E-04
(PID.TID 0000.0001) %MON dynstat_uvel_sd              =   2.2143004930635E-03
(PID.TID 0000.0001) %MON dynstat_uvel_del2            =   2.3793586526361E-05
(PID.TID 0000.0001) %MON dynstat_vvel_max             =   3.5008782265621E-02
(PID.TID 0000.0001) %MON dynstat_vvel_min             =  -2.4496142225807E-02
(PID.TID 0000.0001) %MON dynstat_vvel_mean            =   1.0871733172810E-03
(PID.TID 0000.0001) %MON dynstat_vvel_sd              =   2.2887791274522E-03
(PID.TID 0000.0001) %MON dynstat_vvel_del2            =   2.5440556997751E-05
(PID.TID 0000.0001) %MON dynstat_wvel_max             =   5.0250051231517E-01
(PID.TID 0000.0001) %MON dynstat_wvel_min             =  -6.2689518742395E-01
(PID.TID 0000.0001) %MON dynstat_wvel_mean            =  -6.6716894910156E-03
(PID.TID 0000.0001) %MON dynstat_wvel_sd              =   1.5353611024476E-01
(PID.TID 0000.0001) %MON dynstat_wvel_del2            =   1.7671817735107E-03
(PID.TID 0000.0001) %MON dynstat_theta_max            =   2.9711296896544E+01
(PID.TID 0000.0001) %MON dynstat_theta_min            =  -2.6183665629211E+00
(PID.TID 0000.0001) %MON dynstat_theta_mean           =   3.6019879855479E+00
(PID.TID 0000.0001) %MON dynstat_theta_sd             =   4.4015171771318E+00
(PID.TID 0000.0001) %MON dynstat_theta_del2           =   5.7674232155852E-03
(PID.TID 0000.0001) %MON dynstat_salt_max             =   3.7478618521905E+01
(PID.TID 0000.0001) %MON dynstat_salt_min             =   2.9762213911218E+01
(PID.TID 0000.0001) %MON dynstat_salt_mean            =   3.4718001015839E+01
(PID.TID 0000.0001) %MON dynstat_salt_sd              =   2.9451022507208E-01
(PID.TID 0000.0001) %MON dynstat_salt_del2            =   1.0393012595704E-03
(PID.TID 0000.0001) %MON forcing_qnet_max             =   4.4145258709576E+02
(PID.TID 0000.0001) %MON forcing_qnet_min             =  -2.2440550854923E+02
(PID.TID 0000.0001) %MON forcing_qnet_mean            =  -1.5958423861174E+01
(PID.TID 0000.0001) %MON forcing_qnet_sd              =   1.1936714639352E+02
(PID.TID 0000.0001) %MON forcing_qnet_del2            =   6.9568601022103E-01
(PID.TID 0000.0001) %MON forcing_qsw_max              =   0.0000000000000E+00
(PID.TID 0000.0001) %MON forcing_qsw_min              =   0.0000000000000E+00
(PID.TID 0000.0001) %MON forcing_qsw_mean             =   0.0000000000000E+00
(PID.TID 0000.0001) %MON forcing_qsw_sd               =   0.0000000000000E+00
(PID.TID 0000.0001) %MON forcing_qsw_del2             =   0.0000000000000E+00
(PID.TID 0000.0001) %MON forcing_empmr_max            =   5.2302461935749E-05
(PID.TID 0000.0001) %MON forcing_empmr_min            =  -1.3705199332603E-04
(PID.TID 0000.0001) %MON forcing_empmr_mean           =   0.0000000000000E+00
(PID.TID 0000.0001) %MON forcing_empmr_sd             =   2.3550327612301E-05
(PID.TID 0000.0001) %MON forcing_empmr_del2           =   2.4956923451985E-07
(PID.TID 0000.0001) %MON forcing_fu_max               =   2.7488999084141E-01
(PID.TID 0000.0001) %MON forcing_fu_min               =  -1.6014088069750E-01
(PID.TID 0000.0001) %MON forcing_fu_mean              =   1.6225461269972E-02
(PID.TID 0000.0001) %MON forcing_fu_sd                =   9.0178097883684E-02
(PID.TID 0000.0001) %MON forcing_fu_del2              =   6.4160979257353E-04
(PID.TID 0000.0001) %MON forcing_fv_max               =   2.0835298033582E-01
(PID.TID 0000.0001) %MON forcing_fv_min               =  -1.8690676624267E-01
(PID.TID 0000.0001) %MON forcing_fv_mean              =  -6.3112500932584E-03
(PID.TID 0000.0001) %MON forcing_fv_sd                =   4.5147209559071E-02
(PID.TID 0000.0001) %MON forcing_fv_del2              =   4.3058787478848E-04
(PID.TID 0000.0001) %MON advcfl_uvel_max              =   2.1979552871283E-02
(PID.TID 0000.0001) %MON advcfl_vvel_max              =   1.3603289841692E-02
(PID.TID 0000.0001) %MON advcfl_wvel_max              =   4.1332940427638E-02
(PID.TID 0000.0001) %MON advcfl_W_hf_max              =   5.0201445983039E-02
(PID.TID 0000.0001) %MON pe_b_mean                    =  -6.4368668120800E-03
(PID.TID 0000.0001) %MON ke_max                       =   5.7521020041948E-04
(PID.TID 0000.0001) %MON ke_mean                      =   5.4208464415534E-06
(PID.TID 0000.0001) %MON ke_vol                       =   1.3442141716554E+22
(PID.TID 0000.0001) %MON vort_r_min                   =  -1.1936131053982E-07
(PID.TID 0000.0001) %MON vort_r_max                   =   1.5595297437961E-07
(PID.TID 0000.0001) %MON vort_a_mean                  =  -2.4531015891370E-05
(PID.TID 0000.0001) %MON vort_a_sd                    =   7.3435845881612E-05
(PID.TID 0000.0001) %MON vort_p_mean                  =  -2.9390264931553E-05
(PID.TID 0000.0001) %MON vort_p_sd                    =   1.0331909363522E-04
(PID.TID 0000.0001) %MON surfExpan_theta_mean         =   6.7339858775841E-02
(PID.TID 0000.0001) %MON surfExpan_salt_mean          =  -2.2611127517298E-04
(PID.TID 0000.0001) // =======================================================
(PID.TID 0000.0001) // End MONITOR dynamic field statistics
(PID.TID 0000.0001) // =======================================================
 EXTERNAL_FIELDS_LOAD,         1 : iP,iLd,i0,i1=   12    1   12    1 ; Wght=  0.4333333333  0.5666666667
 cg2d: Sum(rhs),rhsMax =   3.19189119579733E-16  1.74491039075476E+02
(PID.TID 0000.0001)                    cg2d_init_res =    2.47708253820961E-01
(PID.TID 0000.0001)                       cg2d_iters =   100
(PID.TID 0000.0001)                         cg2d_res =    8.69759642370348E-10
(PID.TID 0000.0001) // =======================================================
(PID.TID 0000.0001) // Begin MONITOR dynamic field statistics
(PID.TID 0000.0001) // =======================================================
(PID.TID 0000.0001) %MON time_tsnumber                =                     2
(PID.TID 0000.0001) %MON time_secondsf                =   3.4560000000000E+05
(PID.TID 0000.0001) %MON dynstat_eta_max              =   4.8800479054279E+04
(PID.TID 0000.0001) %MON dynstat_eta_min              =  -8.9518932390801E+04
(PID.TID 0000.0001) %MON dynstat_eta_mean             =  -1.7551442385315E-12
(PID.TID 0000.0001) %MON dynstat_eta_sd               =   3.9643950021115E+04
(PID.TID 0000.0001) %MON dynstat_eta_del2             =   2.1458168289546E+03
(PID.TID 0000.0001) %MON dynstat_uvel_max             =   6.3598031054050E-02
(PID.TID 0000.0001) %MON dynstat_uvel_min             =  -4.0801690827365E-02
(PID.TID 0000.0001) %MON dynstat_uvel_mean            =  -1.1815780795749E-03
(PID.TID 0000.0001) %MON dynstat_uvel_sd              =   2.2777992684346E-03
(PID.TID 0000.0001) %MON dynstat_uvel_del2            =   2.7658807767190E-05
(PID.TID 0000.0001) %MON dynstat_vvel_max             =   5.2226156360700E-02
(PID.TID 0000.0001) %MON dynstat_vvel_min             =  -3.0725719488348E-02
(PID.TID 0000.0001) %MON dynstat_vvel_mean            =   1.5483293033052E-03
(PID.TID 0000.0001) %MON dynstat_vvel_sd              =   2.9965179257105E-03
(PID.TID 0000.0001) %MON dynstat_vvel_del2            =   3.2778990581369E-05
(PID.TID 0000.0001) %MON dynstat_wvel_max             =   6.3728698802109E-01
(PID.TID 0000.0001) %MON dynstat_wvel_min             =  -7.8831034039808E-01
(PID.TID 0000.0001) %MON dynstat_wvel_mean            =  -3.3031803503131E-03
(PID.TID 0000.0001) %MON dynstat_wvel_sd              =   8.9419601137566E-02
(PID.TID 0000.0001) %MON dynstat_wvel_del2            =   1.4685021323704E-03
(PID.TID 0000.0001) %MON dynstat_theta_max            =   2.9684508324331E+01
(PID.TID 0000.0001) %MON dynstat_theta_min            =  -2.6127577628499E+00
(PID.TID 0000.0001) %MON dynstat_theta_mean           =   3.6019391474411E+00
(PID.TID 0000.0001) %MON dynstat_theta_sd             =   4.4012383021214E+00
(PID.TID 0000.0001) %MON dynstat_theta_del2           =   5.7346981369420E-03
(PID.TID 0000.0001) %MON dynstat_salt_max             =   3.7481694830700E+01
(PID.TID 0000.0001) %MON dynstat_salt_min             =   2.9765602069367E+01
(PID.TID 0000.0001) %MON dynstat_salt_mean            =   3.4718001616647E+01
(PID.TID 0000.0001) %MON dynstat_salt_sd              =   2.9441680029036E-01
(PID.TID 0000.0001) %MON dynstat_salt_del2            =   1.0443747763834E-03
(PID.TID 0000.0001) %MON forcing_qnet_max             =   4.4097305510790E+02
(PID.TID 0000.0001) %MON forcing_qnet_min             =  -2.2101759470857E+02
(PID.TID 0000.0001) %MON forcing_qnet_mean            =  -1.5885028611888E+01
(PID.TID 0000.0001) %MON forcing_qnet_sd              =   1.1890885874093E+02
(PID.TID 0000.0001) %MON forcing_qnet_del2            =   6.9758199760840E-01
(PID.TID 0000.0001) %MON forcing_qsw_max              =   0.0000000000000E+00
(PID.TID 0000.0001) %MON forcing_qsw_min              =   0.0000000000000E+00
(PID.TID 0000.0001) %MON forcing_qsw_mean             =   0.0000000000000E+00
(PID.TID 0000.0001) %MON forcing_qsw_sd               =   0.0000000000000E+00
(PID.TID 0000.0001) %MON forcing_qsw_del2             =   0.0000000000000E+00
(PID.TID 0000.0001) %MON forcing_empmr_max            =   5.2302461935749E-05
(PID.TID 0000.0001) %MON forcing_empmr_min            =  -1.3705199332603E-04
(PID.TID 0000.0001) %MON forcing_empmr_mean           =   0.0000000000000E+00
(PID.TID 0000.0001) %MON forcing_empmr_sd             =   2.3550327612301E-05
(PID.TID 0000.0001) %MON forcing_empmr_del2           =   2.4956923451985E-07
(PID.TID 0000.0001) %MON forcing_fu_max               =   2.7317289557073E-01
(PID.TID 0000.0001) %MON forcing_fu_min               =  -1.6030611397112E-01
(PID.TID 0000.0001) %MON forcing_fu_mean              =   1.6205751728080E-02
(PID.TID 0000.0001) %MON forcing_fu_sd                =   9.0163314984710E-02
(PID.TID 0000.0001) %MON forcing_fu_del2              =   6.4499680240129E-04
(PID.TID 0000.0001) %MON forcing_fv_max               =   2.0930016589587E-01
(PID.TID 0000.0001) %MON forcing_fv_min               =  -1.8573745105650E-01
(PID.TID 0000.0001) %MON forcing_fv_mean              =  -6.1647329254770E-03
(PID.TID 0000.0001) %MON forcing_fv_sd                =   4.5369550755658E-02
(PID.TID 0000.0001) %MON forcing_fv_del2              =   4.3066747124620E-04
(PID.TID 0000.0001) %MON advcfl_uvel_max              =   3.3770369818651E-02
(PID.TID 0000.0001) %MON advcfl_vvel_max              =   2.0293409148076E-02
(PID.TID 0000.0001) %MON advcfl_wvel_max              =   5.3361879702353E-02
(PID.TID 0000.0001) %MON advcfl_W_hf_max              =   6.4811346439798E-02
(PID.TID 0000.0001) %MON pe_b_mean                    =  -7.1799587298412E-03
(PID.TID 0000.0001) %MON ke_max                       =   1.7096848449960E-03
(PID.TID 0000.0001) %MON ke_mean                      =   8.0815105316531E-06
(PID.TID 0000.0001) %MON ke_vol                       =   1.3442141716554E+22
(PID.TID 0000.0001) %MON vort_r_min                   =  -1.7585777744653E-07
(PID.TID 0000.0001) %MON vort_r_max                   =   1.8514022070587E-07
(PID.TID 0000.0001) %MON vort_a_mean                  =  -2.4531016005675E-05
(PID.TID 0000.0001) %MON vort_a_sd                    =   7.3435759250337E-05
(PID.TID 0000.0001) %MON vort_p_mean                  =  -2.9399877546210E-05
(PID.TID 0000.0001) %MON vort_p_sd                    =   1.0336783847560E-04
(PID.TID 0000.0001) %MON surfExpan_theta_mean         =   3.6682471884179E-02
(PID.TID 0000.0001) %MON surfExpan_salt_mean          =  -9.6700311022374E-05
(PID.TID 0000.0001) // =======================================================
(PID.TID 0000.0001) // End MONITOR dynamic field statistics
(PID.TID 0000.0001) // =======================================================
 EXTERNAL_FIELDS_LOAD,         2 : iP,iLd,i0,i1=   12    1   12    1 ; Wght=  0.3666666667  0.6333333333
 cg2d: Sum(rhs),rhsMax =   3.58046925441613E-15  1.72945906194167E+02
(PID.TID 0000.0001)                    cg2d_init_res =    1.06015560493329E-01
(PID.TID 0000.0001)                       cg2d_iters =    99
(PID.TID 0000.0001)                         cg2d_res =    8.15263728304937E-10
(PID.TID 0000.0001) // =======================================================
(PID.TID 0000.0001) // Begin MONITOR dynamic field statistics
(PID.TID 0000.0001) // =======================================================
(PID.TID 0000.0001) %MON time_tsnumber                =                     3
(PID.TID 0000.0001) %MON time_secondsf                =   5.1840000000000E+05
(PID.TID 0000.0001) %MON dynstat_eta_max              =   5.1296410269206E+04
(PID.TID 0000.0001) %MON dynstat_eta_min              =  -9.1295320678198E+04
(PID.TID 0000.0001) %MON dynstat_eta_mean             =  -5.2654327155946E-12
(PID.TID 0000.0001) %MON dynstat_eta_sd               =   3.9696765983850E+04
(PID.TID 0000.0001) %MON dynstat_eta_del2             =   2.1204178433262E+03
(PID.TID 0000.0001) %MON dynstat_uvel_max             =   7.1924415947209E-02
(PID.TID 0000.0001) %MON dynstat_uvel_min             =  -5.2023452588002E-02
(PID.TID 0000.0001) %MON dynstat_uvel_mean            =  -1.1613483932250E-03
(PID.TID 0000.0001) %MON dynstat_uvel_sd              =   2.7063339493389E-03
(PID.TID 0000.0001) %MON dynstat_uvel_del2            =   3.6727150160608E-05
(PID.TID 0000.0001) %MON dynstat_vvel_max             =   5.4064691700264E-02
(PID.TID 0000.0001) %MON dynstat_vvel_min             =  -4.5578802571380E-02
(PID.TID 0000.0001) %MON dynstat_vvel_mean            =   1.5246854273090E-03
(PID.TID 0000.0001) %MON dynstat_vvel_sd              =   4.1661854298604E-03
(PID.TID 0000.0001) %MON dynstat_vvel_del2            =   4.5412075343018E-05
(PID.TID 0000.0001) %MON dynstat_wvel_max             =   8.8864353079921E-01
(PID.TID 0000.0001) %MON dynstat_wvel_min             =  -1.0818429535141E+00
(PID.TID 0000.0001) %MON dynstat_wvel_mean            =  -1.5497021260791E-03
(PID.TID 0000.0001) %MON dynstat_wvel_sd              =   1.2224116114445E-01
(PID.TID 0000.0001) %MON dynstat_wvel_del2            =   1.9792402257255E-03
(PID.TID 0000.0001) %MON dynstat_theta_max            =   2.9669473527585E+01
(PID.TID 0000.0001) %MON dynstat_theta_min            =  -2.6038558037965E+00
(PID.TID 0000.0001) %MON dynstat_theta_mean           =   3.6021517656159E+00
(PID.TID 0000.0001) %MON dynstat_theta_sd             =   4.4012401388504E+00
(PID.TID 0000.0001) %MON dynstat_theta_del2           =   5.6505933550814E-03
(PID.TID 0000.0001) %MON dynstat_salt_max             =   3.7435159987254E+01
(PID.TID 0000.0001) %MON dynstat_salt_min             =   2.9770613333879E+01
(PID.TID 0000.0001) %MON dynstat_salt_mean            =   3.4718001272785E+01
(PID.TID 0000.0001) %MON dynstat_salt_sd              =   2.9442248146374E-01
(PID.TID 0000.0001) %MON dynstat_salt_del2            =   1.0402776217466E-03
(PID.TID 0000.0001) %MON forcing_qnet_max             =   4.4049352312003E+02
(PID.TID 0000.0001) %MON forcing_qnet_min             =  -2.1762968086790E+02
(PID.TID 0000.0001) %MON forcing_qnet_mean            =  -1.5811633362602E+01
(PID.TID 0000.0001) %MON forcing_qnet_sd              =   1.1851361770403E+02
(PID.TID 0000.0001) %MON forcing_qnet_del2            =   7.0176440912652E-01
(PID.TID 0000.0001) %MON forcing_qsw_max              =   0.0000000000000E+00
(PID.TID 0000.0001) %MON forcing_qsw_min              =   0.0000000000000E+00
(PID.TID 0000.0001) %MON forcing_qsw_mean             =   0.0000000000000E+00
(PID.TID 0000.0001) %MON forcing_qsw_sd               =   0.0000000000000E+00
(PID.TID 0000.0001) %MON forcing_qsw_del2             =   0.0000000000000E+00
(PID.TID 0000.0001) %MON forcing_empmr_max            =   5.2302461935749E-05
(PID.TID 0000.0001) %MON forcing_empmr_min            =  -1.3705199332603E-04
(PID.TID 0000.0001) %MON forcing_empmr_mean           =   0.0000000000000E+00
(PID.TID 0000.0001) %MON forcing_empmr_sd             =   2.3550327612301E-05
(PID.TID 0000.0001) %MON forcing_empmr_del2           =   2.4956923451985E-07
(PID.TID 0000.0001) %MON forcing_fu_max               =   2.7145580030005E-01
(PID.TID 0000.0001) %MON forcing_fu_min               =  -1.6193295433260E-01
(PID.TID 0000.0001) %MON forcing_fu_mean              =   1.6186042186188E-02
(PID.TID 0000.0001) %MON forcing_fu_sd                =   9.0191995746640E-02
(PID.TID 0000.0001) %MON forcing_fu_del2              =   6.5054420938253E-04
(PID.TID 0000.0001) %MON forcing_fv_max               =   2.1244236100063E-01
(PID.TID 0000.0001) %MON forcing_fv_min               =  -1.8456813587032E-01
(PID.TID 0000.0001) %MON forcing_fv_mean              =  -6.0182157576956E-03
(PID.TID 0000.0001) %MON forcing_fv_sd                =   4.5652999799994E-02
(PID.TID 0000.0001) %MON forcing_fv_del2              =   4.3302155748244E-04
(PID.TID 0000.0001) %MON advcfl_uvel_max              =   4.2056461478432E-02
(PID.TID 0000.0001) %MON advcfl_vvel_max              =   2.1007805007907E-02
(PID.TID 0000.0001) %MON advcfl_wvel_max              =   6.7813457603892E-02
(PID.TID 0000.0001) %MON advcfl_W_hf_max              =   7.9957450076658E-02
(PID.TID 0000.0001) %MON pe_b_mean                    =  -8.1523590810263E-03
(PID.TID 0000.0001) %MON ke_max                       =   2.0295755196427E-03
(PID.TID 0000.0001) %MON ke_mean                      =   1.2749956667740E-05
(PID.TID 0000.0001) %MON ke_vol                       =   1.3442141716554E+22
(PID.TID 0000.0001) %MON vort_r_min                   =  -2.0964887683634E-07
(PID.TID 0000.0001) %MON vort_r_max                   =   2.3824267860696E-07
(PID.TID 0000.0001) %MON vort_a_mean                  =  -2.4531016156342E-05
(PID.TID 0000.0001) %MON vort_a_sd                    =   7.3435757779203E-05
(PID.TID 0000.0001) %MON vort_p_mean                  =  -2.9400606296370E-05
(PID.TID 0000.0001) %MON vort_p_sd                    =   1.0337416768729E-04
(PID.TID 0000.0001) %MON surfExpan_theta_mean         =   1.7625148710549E-02
(PID.TID 0000.0001) %MON surfExpan_salt_mean          =  -2.8906304338574E-04
(PID.TID 0000.0001) // =======================================================
(PID.TID 0000.0001) // End MONITOR dynamic field statistics
(PID.TID 0000.0001) // =======================================================
 EXTERNAL_FIELDS_LOAD,         3 : iP,iLd,i0,i1=   12    1   12    1 ; Wght=  0.3000000000  0.7000000000
 cg2d: Sum(rhs),rhsMax =   3.94129173741931E-15  1.72905598765760E+02
(PID.TID 0000.0001)                    cg2d_init_res =    8.88318139630725E-03
(PID.TID 0000.0001)                       cg2d_iters =    91
(PID.TID 0000.0001)                         cg2d_res =    9.16096614059467E-10
(PID.TID 0000.0001) // =======================================================
(PID.TID 0000.0001) // Begin MONITOR dynamic field statistics
(PID.TID 0000.0001) // =======================================================
(PID.TID 0000.0001) %MON time_tsnumber                =                     4
(PID.TID 0000.0001) %MON time_secondsf                =   6.9120000000000E+05
(PID.TID 0000.0001) %MON dynstat_eta_max              =   5.1017036574627E+04
(PID.TID 0000.0001) %MON dynstat_eta_min              =  -9.2901708402115E+04
(PID.TID 0000.0001) %MON dynstat_eta_mean             =  -3.9490745366959E-12
(PID.TID 0000.0001) %MON dynstat_eta_sd               =   4.0207162089694E+04
(PID.TID 0000.0001) %MON dynstat_eta_del2             =   2.1191537589093E+03
(PID.TID 0000.0001) %MON dynstat_uvel_max             =   6.1547113841351E-02
(PID.TID 0000.0001) %MON dynstat_uvel_min             =  -7.8226945382398E-02
(PID.TID 0000.0001) %MON dynstat_uvel_mean            =  -8.8759731675775E-04
(PID.TID 0000.0001) %MON dynstat_uvel_sd              =   3.1025455834035E-03
(PID.TID 0000.0001) %MON dynstat_uvel_del2            =   4.4760326325429E-05
(PID.TID 0000.0001) %MON dynstat_vvel_max             =   5.0484434077265E-02
(PID.TID 0000.0001) %MON dynstat_vvel_min             =  -5.9548160415527E-02
(PID.TID 0000.0001) %MON dynstat_vvel_mean            =   1.2053112574867E-03
(PID.TID 0000.0001) %MON dynstat_vvel_sd              =   5.2714307465601E-03
(PID.TID 0000.0001) %MON dynstat_vvel_del2            =   5.7636302296812E-05
(PID.TID 0000.0001) %MON dynstat_wvel_max             =   1.1534924073642E+00
(PID.TID 0000.0001) %MON dynstat_wvel_min             =  -1.3278307546183E+00
(PID.TID 0000.0001) %MON dynstat_wvel_mean            =  -9.7444595402038E-04
(PID.TID 0000.0001) %MON dynstat_wvel_sd              =   1.4928543708373E-01
(PID.TID 0000.0001) %MON dynstat_wvel_del2            =   2.3643034456573E-03
(PID.TID 0000.0001) %MON dynstat_theta_max            =   2.9657559077276E+01
(PID.TID 0000.0001) %MON dynstat_theta_min            =  -2.5955256101461E+00
(PID.TID 0000.0001) %MON dynstat_theta_mean           =   3.6023340634708E+00
(PID.TID 0000.0001) %MON dynstat_theta_sd             =   4.4012726553763E+00
(PID.TID 0000.0001) %MON dynstat_theta_del2           =   5.5544473352323E-03
(PID.TID 0000.0001) %MON dynstat_salt_max             =   3.7435136750223E+01
(PID.TID 0000.0001) %MON dynstat_salt_min             =   2.9775227970650E+01
(PID.TID 0000.0001) %MON dynstat_salt_mean            =   3.4718001783918E+01
(PID.TID 0000.0001) %MON dynstat_salt_sd              =   2.9441617127750E-01
(PID.TID 0000.0001) %MON dynstat_salt_del2            =   1.0350558999070E-03
(PID.TID 0000.0001) %MON forcing_qnet_max             =   4.4001399113216E+02
(PID.TID 0000.0001) %MON forcing_qnet_min             =  -2.1424176702723E+02
(PID.TID 0000.0001) %MON forcing_qnet_mean            =  -1.5738238113315E+01
(PID.TID 0000.0001) %MON forcing_qnet_sd              =   1.1818205583255E+02
(PID.TID 0000.0001) %MON forcing_qnet_del2            =   7.0819273676404E-01
(PID.TID 0000.0001) %MON forcing_qsw_max              =   0.0000000000000E+00
(PID.TID 0000.0001) %MON forcing_qsw_min              =   0.0000000000000E+00
(PID.TID 0000.0001) %MON forcing_qsw_mean             =   0.0000000000000E+00
(PID.TID 0000.0001) %MON forcing_qsw_sd               =   0.0000000000000E+00
(PID.TID 0000.0001) %MON forcing_qsw_del2             =   0.0000000000000E+00
(PID.TID 0000.0001) %MON forcing_empmr_max            =   5.2302461935749E-05
(PID.TID 0000.0001) %MON forcing_empmr_min            =  -1.3705199332603E-04
(PID.TID 0000.0001) %MON forcing_empmr_mean           =   2.0432568138134E-22
(PID.TID 0000.0001) %MON forcing_empmr_sd             =   2.3550327612301E-05
(PID.TID 0000.0001) %MON forcing_empmr_del2           =   2.4956923451985E-07
(PID.TID 0000.0001) %MON forcing_fu_max               =   2.6977392188535E-01
(PID.TID 0000.0001) %MON forcing_fu_min               =  -1.6355979469407E-01
(PID.TID 0000.0001) %MON forcing_fu_mean              =   1.6166332644296E-02
(PID.TID 0000.0001) %MON forcing_fu_sd                =   9.0264098738697E-02
(PID.TID 0000.0001) %MON forcing_fu_del2              =   6.5819739112670E-04
(PID.TID 0000.0001) %MON forcing_fv_max               =   2.1620217177861E-01
(PID.TID 0000.0001) %MON forcing_fv_min               =  -1.8339882068415E-01
(PID.TID 0000.0001) %MON forcing_fv_mean              =  -5.8716985899142E-03
(PID.TID 0000.0001) %MON forcing_fv_sd                =   4.5996426990309E-02
(PID.TID 0000.0001) %MON forcing_fv_del2              =   4.3761342904399E-04
(PID.TID 0000.0001) %MON advcfl_uvel_max              =   4.9477981807378E-02
(PID.TID 0000.0001) %MON advcfl_vvel_max              =   2.3138505062128E-02
(PID.TID 0000.0001) %MON advcfl_wvel_max              =   8.2187741402118E-02
(PID.TID 0000.0001) %MON advcfl_W_hf_max              =   9.6895324273651E-02
(PID.TID 0000.0001) %MON pe_b_mean                    =  -8.3973340910162E-03
(PID.TID 0000.0001) %MON ke_max                       =   2.4159997729025E-03
(PID.TID 0000.0001) %MON ke_mean                      =   1.7822986138330E-05
(PID.TID 0000.0001) %MON ke_vol                       =   1.3442141716554E+22
(PID.TID 0000.0001) %MON vort_r_min                   =  -2.2392452534902E-07
(PID.TID 0000.0001) %MON vort_r_max                   =   2.8413878990955E-07
(PID.TID 0000.0001) %MON vort_a_mean                  =  -2.4531016293601E-05
(PID.TID 0000.0001) %MON vort_a_sd                    =   7.3435817999271E-05
(PID.TID 0000.0001) %MON vort_p_mean                  =  -2.9400708509899E-05
(PID.TID 0000.0001) %MON vort_p_sd                    =   1.0337649674057E-04
(PID.TID 0000.0001) %MON surfExpan_theta_mean         =   1.0063253313360E-02
(PID.TID 0000.0001) %MON surfExpan_salt_mean          =  -2.3700839706689E-04
(PID.TID 0000.0001) // =======================================================
(PID.TID 0000.0001) // End MONITOR dynamic field statistics
(PID.TID 0000.0001) // =======================================================
 EXTERNAL_FIELDS_LOAD,         4 : iP,iLd,i0,i1=   12    1   12    1 ; Wght=  0.2333333333  0.7666666667
 cg2d: Sum(rhs),rhsMax =   1.66533453693773E-16  1.72918666885493E+02
(PID.TID 0000.0001)                    cg2d_init_res =    4.68681323769942E-03
(PID.TID 0000.0001)                       cg2d_iters =    94
(PID.TID 0000.0001)                         cg2d_res =    9.71917581957306E-10
(PID.TID 0000.0001) // =======================================================
(PID.TID 0000.0001) // Begin MONITOR dynamic field statistics
(PID.TID 0000.0001) // =======================================================
(PID.TID 0000.0001) %MON time_tsnumber                =                     5
(PID.TID 0000.0001) %MON time_secondsf                =   8.6400000000000E+05
(PID.TID 0000.0001) %MON dynstat_eta_max              =   5.8776692687089E+04
(PID.TID 0000.0001) %MON dynstat_eta_min              =  -9.4342853383129E+04
(PID.TID 0000.0001) %MON dynstat_eta_mean             =   2.6327163577973E-12
(PID.TID 0000.0001) %MON dynstat_eta_sd               =   4.0652997366242E+04
(PID.TID 0000.0001) %MON dynstat_eta_del2             =   2.1193064264269E+03
(PID.TID 0000.0001) %MON dynstat_uvel_max             =   5.9698235347898E-02
(PID.TID 0000.0001) %MON dynstat_uvel_min             =  -9.1858987400137E-02
(PID.TID 0000.0001) %MON dynstat_uvel_mean            =  -4.7316301305074E-04
(PID.TID 0000.0001) %MON dynstat_uvel_sd              =   3.5780560549407E-03
(PID.TID 0000.0001) %MON dynstat_uvel_del2            =   5.1897759016299E-05
(PID.TID 0000.0001) %MON dynstat_vvel_max             =   6.0261607399171E-02
(PID.TID 0000.0001) %MON dynstat_vvel_min             =  -7.2328671585697E-02
(PID.TID 0000.0001) %MON dynstat_vvel_mean            =   7.4641499575621E-04
(PID.TID 0000.0001) %MON dynstat_vvel_sd              =   6.3125096540234E-03
(PID.TID 0000.0001) %MON dynstat_vvel_del2            =   6.8994565565277E-05
(PID.TID 0000.0001) %MON dynstat_wvel_max             =   1.4020815322792E+00
(PID.TID 0000.0001) %MON dynstat_wvel_min             =  -1.5220739845212E+00
(PID.TID 0000.0001) %MON dynstat_wvel_mean            =  -6.8508045396282E-04
(PID.TID 0000.0001) %MON dynstat_wvel_sd              =   1.7381136261320E-01
(PID.TID 0000.0001) %MON dynstat_wvel_del2            =   2.6984924420308E-03
(PID.TID 0000.0001) %MON dynstat_theta_max            =   2.9654557715688E+01
(PID.TID 0000.0001) %MON dynstat_theta_min            =  -2.5873090682177E+00
(PID.TID 0000.0001) %MON dynstat_theta_mean           =   3.6024844023109E+00
(PID.TID 0000.0001) %MON dynstat_theta_sd             =   4.4013195661748E+00
(PID.TID 0000.0001) %MON dynstat_theta_del2           =   5.4518209680224E-03
(PID.TID 0000.0001) %MON dynstat_salt_max             =   3.7435037085056E+01
(PID.TID 0000.0001) %MON dynstat_salt_min             =   2.9777929351147E+01
(PID.TID 0000.0001) %MON dynstat_salt_mean            =   3.4718001645602E+01
(PID.TID 0000.0001) %MON dynstat_salt_sd              =   2.9441808368988E-01
(PID.TID 0000.0001) %MON dynstat_salt_del2            =   1.0316920018080E-03
(PID.TID 0000.0001) %MON forcing_qnet_max             =   4.3953445914429E+02
(PID.TID 0000.0001) %MON forcing_qnet_min             =  -2.1304556232427E+02
(PID.TID 0000.0001) %MON forcing_qnet_mean            =  -1.5664842864029E+01
(PID.TID 0000.0001) %MON forcing_qnet_sd              =   1.1791471030201E+02
(PID.TID 0000.0001) %MON forcing_qnet_del2            =   7.1680655887993E-01
(PID.TID 0000.0001) %MON forcing_qsw_max              =   0.0000000000000E+00
(PID.TID 0000.0001) %MON forcing_qsw_min              =   0.0000000000000E+00
(PID.TID 0000.0001) %MON forcing_qsw_mean             =   0.0000000000000E+00
(PID.TID 0000.0001) %MON forcing_qsw_sd               =   0.0000000000000E+00
(PID.TID 0000.0001) %MON forcing_qsw_del2             =   0.0000000000000E+00
(PID.TID 0000.0001) %MON forcing_empmr_max            =   5.2302461935749E-05
(PID.TID 0000.0001) %MON forcing_empmr_min            =  -1.3705199332603E-04
(PID.TID 0000.0001) %MON forcing_empmr_mean           =   2.0432568138134E-22
(PID.TID 0000.0001) %MON forcing_empmr_sd             =   2.3550327612301E-05
(PID.TID 0000.0001) %MON forcing_empmr_del2           =   2.4956923451985E-07
(PID.TID 0000.0001) %MON forcing_fu_max               =   2.6993649979941E-01
(PID.TID 0000.0001) %MON forcing_fu_min               =  -1.6518663505555E-01
(PID.TID 0000.0001) %MON forcing_fu_mean              =   1.6146623102404E-02
(PID.TID 0000.0001) %MON forcing_fu_sd                =   9.0379520036752E-02
(PID.TID 0000.0001) %MON forcing_fu_del2              =   6.6788396228870E-04
(PID.TID 0000.0001) %MON forcing_fv_max               =   2.1996198255658E-01
(PID.TID 0000.0001) %MON forcing_fv_min               =  -1.8222950549797E-01
(PID.TID 0000.0001) %MON forcing_fv_mean              =  -5.7251814221328E-03
(PID.TID 0000.0001) %MON forcing_fv_sd                =   4.6398500527278E-02
(PID.TID 0000.0001) %MON forcing_fv_del2              =   4.4437371985182E-04
(PID.TID 0000.0001) %MON advcfl_uvel_max              =   5.3919439698896E-02
(PID.TID 0000.0001) %MON advcfl_vvel_max              =   2.8104601753344E-02
(PID.TID 0000.0001) %MON advcfl_wvel_max              =   9.5633640079455E-02
(PID.TID 0000.0001) %MON advcfl_W_hf_max              =   1.0866872856372E-01
(PID.TID 0000.0001) %MON pe_b_mean                    =  -8.4398871104983E-03
(PID.TID 0000.0001) %MON ke_max                       =   3.6320681430769E-03
(PID.TID 0000.0001) %MON ke_mean                      =   2.4010399463843E-05
(PID.TID 0000.0001) %MON ke_vol                       =   1.3442141716554E+22
(PID.TID 0000.0001) %MON vort_r_min                   =  -2.5872113325693E-07
(PID.TID 0000.0001) %MON vort_r_max                   =   3.0050900051205E-07
(PID.TID 0000.0001) %MON vort_a_mean                  =  -2.4531016372736E-05
(PID.TID 0000.0001) %MON vort_a_sd                    =   7.3435913031010E-05
(PID.TID 0000.0001) %MON vort_p_mean                  =  -2.9400840462569E-05
(PID.TID 0000.0001) %MON vort_p_sd                    =   1.0337803035052E-04
(PID.TID 0000.0001) %MON surfExpan_theta_mean         =   6.0162625275847E-03
(PID.TID 0000.0001) %MON surfExpan_salt_mean          =  -1.1534432610440E-04
(PID.TID 0000.0001) // =======================================================
(PID.TID 0000.0001) // End MONITOR dynamic field statistics
(PID.TID 0000.0001) // =======================================================
 EXTERNAL_FIELDS_LOAD,         5 : iP,iLd,i0,i1=   12    1   12    1 ; Wght=  0.1666666667  0.8333333333
 cg2d: Sum(rhs),rhsMax =   2.55351295663786E-15  1.72928002685626E+02
(PID.TID 0000.0001)                    cg2d_init_res =    3.45144446999691E-03
(PID.TID 0000.0001)                       cg2d_iters =    91
(PID.TID 0000.0001)                         cg2d_res =    9.79045578281042E-10
(PID.TID 0000.0001) // =======================================================
(PID.TID 0000.0001) // Begin MONITOR dynamic field statistics
(PID.TID 0000.0001) // =======================================================
(PID.TID 0000.0001) %MON time_tsnumber                =                     6
(PID.TID 0000.0001) %MON time_secondsf                =   1.0368000000000E+06
(PID.TID 0000.0001) %MON dynstat_eta_max              =   6.2212557798597E+04
(PID.TID 0000.0001) %MON dynstat_eta_min              =  -9.5072864738661E+04
(PID.TID 0000.0001) %MON dynstat_eta_mean             =  -4.3878605963288E-12
(PID.TID 0000.0001) %MON dynstat_eta_sd               =   4.0801286384113E+04
(PID.TID 0000.0001) %MON dynstat_eta_del2             =   2.1193956134663E+03
(PID.TID 0000.0001) %MON dynstat_uvel_max             =   7.4168035364358E-02
(PID.TID 0000.0001) %MON dynstat_uvel_min             =  -9.0269526538725E-02
(PID.TID 0000.0001) %MON dynstat_uvel_mean            =  -3.8776985581467E-05
(PID.TID 0000.0001) %MON dynstat_uvel_sd              =   4.2139398079612E-03
(PID.TID 0000.0001) %MON dynstat_uvel_del2            =   5.8197098311252E-05
(PID.TID 0000.0001) %MON dynstat_vvel_max             =   6.8597299023253E-02
(PID.TID 0000.0001) %MON dynstat_vvel_min             =  -8.3538964900172E-02
(PID.TID 0000.0001) %MON dynstat_vvel_mean            =   2.7830076229602E-04
(PID.TID 0000.0001) %MON dynstat_vvel_sd              =   7.2909660159355E-03
(PID.TID 0000.0001) %MON dynstat_vvel_del2            =   7.9271206638531E-05
(PID.TID 0000.0001) %MON dynstat_wvel_max             =   1.6177923411145E+00
(PID.TID 0000.0001) %MON dynstat_wvel_min             =  -1.6533419314891E+00
(PID.TID 0000.0001) %MON dynstat_wvel_mean            =  -3.9190112438701E-04
(PID.TID 0000.0001) %MON dynstat_wvel_sd              =   1.9514469193526E-01
(PID.TID 0000.0001) %MON dynstat_wvel_del2            =   2.9668658728693E-03
(PID.TID 0000.0001) %MON dynstat_theta_max            =   2.9698006984264E+01
(PID.TID 0000.0001) %MON dynstat_theta_min            =  -2.5802614686325E+00
(PID.TID 0000.0001) %MON dynstat_theta_mean           =   3.6026226304284E+00
(PID.TID 0000.0001) %MON dynstat_theta_sd             =   4.4013862718318E+00
(PID.TID 0000.0001) %MON dynstat_theta_del2           =   5.3470662672688E-03
(PID.TID 0000.0001) %MON dynstat_salt_max             =   3.7434855502674E+01
(PID.TID 0000.0001) %MON dynstat_salt_min             =   2.9779048214694E+01
(PID.TID 0000.0001) %MON dynstat_salt_mean            =   3.4718001322325E+01
(PID.TID 0000.0001) %MON dynstat_salt_sd              =   2.9441930776022E-01
(PID.TID 0000.0001) %MON dynstat_salt_del2            =   1.0276119447791E-03
(PID.TID 0000.0001) %MON forcing_qnet_max             =   4.4037724209196E+02
(PID.TID 0000.0001) %MON forcing_qnet_min             =  -2.1284566492290E+02
(PID.TID 0000.0001) %MON forcing_qnet_mean            =  -1.5591447614743E+01
(PID.TID 0000.0001) %MON forcing_qnet_sd              =   1.1771201865440E+02
(PID.TID 0000.0001) %MON forcing_qnet_del2            =   7.2752825186415E-01
(PID.TID 0000.0001) %MON forcing_qsw_max              =   0.0000000000000E+00
(PID.TID 0000.0001) %MON forcing_qsw_min              =   0.0000000000000E+00
(PID.TID 0000.0001) %MON forcing_qsw_mean             =   0.0000000000000E+00
(PID.TID 0000.0001) %MON forcing_qsw_sd               =   0.0000000000000E+00
(PID.TID 0000.0001) %MON forcing_qsw_del2             =   0.0000000000000E+00
(PID.TID 0000.0001) %MON forcing_empmr_max            =   5.2302461935749E-05
(PID.TID 0000.0001) %MON forcing_empmr_min            =  -1.3705199332603E-04
(PID.TID 0000.0001) %MON forcing_empmr_mean           =   2.0432568138134E-22
(PID.TID 0000.0001) %MON forcing_empmr_sd             =   2.3550327612301E-05
(PID.TID 0000.0001) %MON forcing_empmr_del2           =   2.4956923451985E-07
(PID.TID 0000.0001) %MON forcing_fu_max               =   2.7009907771346E-01
(PID.TID 0000.0001) %MON forcing_fu_min               =  -1.6681347541702E-01
(PID.TID 0000.0001) %MON forcing_fu_mean              =   1.6126913560513E-02
(PID.TID 0000.0001) %MON forcing_fu_sd                =   9.0538093969639E-02
(PID.TID 0000.0001) %MON forcing_fu_del2              =   6.7951697002394E-04
(PID.TID 0000.0001) %MON forcing_fv_max               =   2.2372179333456E-01
(PID.TID 0000.0001) %MON forcing_fv_min               =  -1.8106019031180E-01
(PID.TID 0000.0001) %MON forcing_fv_mean              =  -5.5786642543514E-03
(PID.TID 0000.0001) %MON forcing_fv_sd                =   4.6857710749175E-02
(PID.TID 0000.0001) %MON forcing_fv_del2              =   4.5320540386280E-04
(PID.TID 0000.0001) %MON advcfl_uvel_max              =   5.3874491952612E-02
(PID.TID 0000.0001) %MON advcfl_vvel_max              =   3.2460562152371E-02
(PID.TID 0000.0001) %MON advcfl_wvel_max              =   1.0549042240292E-01
(PID.TID 0000.0001) %MON advcfl_W_hf_max              =   1.1943545282282E-01
(PID.TID 0000.0001) %MON pe_b_mean                    =  -8.5178898161325E-03
(PID.TID 0000.0001) %MON ke_max                       =   3.8516788598374E-03
(PID.TID 0000.0001) %MON ke_mean                      =   3.1904732189995E-05
(PID.TID 0000.0001) %MON ke_vol                       =   1.3442141716554E+22
(PID.TID 0000.0001) %MON vort_r_min                   =  -2.9345252707255E-07
(PID.TID 0000.0001) %MON vort_r_max                   =   3.0167386955863E-07
(PID.TID 0000.0001) %MON vort_a_mean                  =  -2.4531016357185E-05
(PID.TID 0000.0001) %MON vort_a_sd                    =   7.3436014145740E-05
(PID.TID 0000.0001) %MON vort_p_mean                  =  -2.9400918676803E-05
(PID.TID 0000.0001) %MON vort_p_sd                    =   1.0337864471717E-04
(PID.TID 0000.0001) %MON surfExpan_theta_mean         =   2.1319344511924E-03
(PID.TID 0000.0001) %MON surfExpan_salt_mean          =  -6.0515265316154E-05
(PID.TID 0000.0001) // =======================================================
(PID.TID 0000.0001) // End MONITOR dynamic field statistics
(PID.TID 0000.0001) // =======================================================
 EXTERNAL_FIELDS_LOAD,         6 : iP,iLd,i0,i1=   12    1   12    1 ; Wght=  0.1000000000  0.9000000000
 cg2d: Sum(rhs),rhsMax =  -2.16493489801906E-15  1.72940021566491E+02
(PID.TID 0000.0001)                    cg2d_init_res =    3.58751303014707E-03
(PID.TID 0000.0001)                       cg2d_iters =    91
(PID.TID 0000.0001)                         cg2d_res =    9.19966766313885E-10
(PID.TID 0000.0001) // =======================================================
(PID.TID 0000.0001) // Begin MONITOR dynamic field statistics
(PID.TID 0000.0001) // =======================================================
(PID.TID 0000.0001) %MON time_tsnumber                =                     7
(PID.TID 0000.0001) %MON time_secondsf                =   1.2096000000000E+06
(PID.TID 0000.0001) %MON dynstat_eta_max              =   6.1158527026560E+04
(PID.TID 0000.0001) %MON dynstat_eta_min              =  -9.5059627628673E+04
(PID.TID 0000.0001) %MON dynstat_eta_mean             =   1.2286009669721E-11
(PID.TID 0000.0001) %MON dynstat_eta_sd               =   4.0659388202298E+04
(PID.TID 0000.0001) %MON dynstat_eta_del2             =   2.1195064032662E+03
(PID.TID 0000.0001) %MON dynstat_uvel_max             =   8.8437755980599E-02
(PID.TID 0000.0001) %MON dynstat_uvel_min             =  -7.5585528790639E-02
(PID.TID 0000.0001) %MON dynstat_uvel_mean            =   3.1923399387708E-04
(PID.TID 0000.0001) %MON dynstat_uvel_sd              =   4.9836317416684E-03
(PID.TID 0000.0001) %MON dynstat_uvel_del2            =   6.3638000007659E-05
(PID.TID 0000.0001) %MON dynstat_vvel_max             =   7.5441080016517E-02
(PID.TID 0000.0001) %MON dynstat_vvel_min             =  -9.4862733157470E-02
(PID.TID 0000.0001) %MON dynstat_vvel_mean            =  -9.9641940834532E-05
(PID.TID 0000.0001) %MON dynstat_vvel_sd              =   8.1821626887052E-03
(PID.TID 0000.0001) %MON dynstat_vvel_del2            =   8.8243818923395E-05
(PID.TID 0000.0001) %MON dynstat_wvel_max             =   1.7916634905147E+00
(PID.TID 0000.0001) %MON dynstat_wvel_min             =  -1.7236811002094E+00
(PID.TID 0000.0001) %MON dynstat_wvel_mean            =  -8.5358636225054E-05
(PID.TID 0000.0001) %MON dynstat_wvel_sd              =   2.1276548635000E-01
(PID.TID 0000.0001) %MON dynstat_wvel_del2            =   3.1658475934687E-03
(PID.TID 0000.0001) %MON dynstat_theta_max            =   2.9742931173575E+01
(PID.TID 0000.0001) %MON dynstat_theta_min            =  -2.6584103885841E+00
(PID.TID 0000.0001) %MON dynstat_theta_mean           =   3.6027578366176E+00
(PID.TID 0000.0001) %MON dynstat_theta_sd             =   4.4014793817277E+00
(PID.TID 0000.0001) %MON dynstat_theta_del2           =   5.2543116484805E-03
(PID.TID 0000.0001) %MON dynstat_salt_max             =   3.7434629201886E+01
(PID.TID 0000.0001) %MON dynstat_salt_min             =   2.9779160994812E+01
(PID.TID 0000.0001) %MON dynstat_salt_mean            =   3.4718001176636E+01
(PID.TID 0000.0001) %MON dynstat_salt_sd              =   2.9441992492303E-01
(PID.TID 0000.0001) %MON dynstat_salt_del2            =   1.0257687996518E-03
(PID.TID 0000.0001) %MON forcing_qnet_max             =   4.5578450464295E+02
(PID.TID 0000.0001) %MON forcing_qnet_min             =  -2.1264576752152E+02
(PID.TID 0000.0001) %MON forcing_qnet_mean            =  -1.5518052365456E+01
(PID.TID 0000.0001) %MON forcing_qnet_sd              =   1.1757431526940E+02
(PID.TID 0000.0001) %MON forcing_qnet_del2            =   7.4026623293719E-01
(PID.TID 0000.0001) %MON forcing_qsw_max              =   0.0000000000000E+00
(PID.TID 0000.0001) %MON forcing_qsw_min              =   0.0000000000000E+00
(PID.TID 0000.0001) %MON forcing_qsw_mean             =   0.0000000000000E+00
(PID.TID 0000.0001) %MON forcing_qsw_sd               =   0.0000000000000E+00
(PID.TID 0000.0001) %MON forcing_qsw_del2             =   0.0000000000000E+00
(PID.TID 0000.0001) %MON forcing_empmr_max            =   5.2302461935749E-05
(PID.TID 0000.0001) %MON forcing_empmr_min            =  -1.3705199332603E-04
(PID.TID 0000.0001) %MON forcing_empmr_mean           =   2.0432568138134E-22
(PID.TID 0000.0001) %MON forcing_empmr_sd             =   2.3550327612301E-05
(PID.TID 0000.0001) %MON forcing_empmr_del2           =   2.4956923451985E-07
(PID.TID 0000.0001) %MON forcing_fu_max               =   2.7026165562751E-01
(PID.TID 0000.0001) %MON forcing_fu_min               =  -1.6844031577850E-01
(PID.TID 0000.0001) %MON forcing_fu_mean              =   1.6107204018621E-02
(PID.TID 0000.0001) %MON forcing_fu_sd                =   9.0739594300691E-02
(PID.TID 0000.0001) %MON forcing_fu_del2              =   6.9299839977463E-04
(PID.TID 0000.0001) %MON forcing_fv_max               =   2.2748160411253E-01
(PID.TID 0000.0001) %MON forcing_fv_min               =  -1.7989087512562E-01
(PID.TID 0000.0001) %MON forcing_fv_mean              =  -5.4321470865700E-03
(PID.TID 0000.0001) %MON forcing_fv_sd                =   4.7372396100423E-02
(PID.TID 0000.0001) %MON forcing_fv_del2              =   4.6399021419221E-04
(PID.TID 0000.0001) %MON advcfl_uvel_max              =   5.8463656748570E-02
(PID.TID 0000.0001) %MON advcfl_vvel_max              =   3.6860615274340E-02
(PID.TID 0000.0001) %MON advcfl_wvel_max              =   1.1178133195992E-01
(PID.TID 0000.0001) %MON advcfl_W_hf_max              =   1.2655797271130E-01
(PID.TID 0000.0001) %MON pe_b_mean                    =  -8.6501905915123E-03
(PID.TID 0000.0001) %MON ke_max                       =   5.0801121773172E-03
(PID.TID 0000.0001) %MON ke_mean                      =   4.1306915614178E-05
(PID.TID 0000.0001) %MON ke_vol                       =   1.3442141716554E+22
(PID.TID 0000.0001) %MON vort_r_min                   =  -2.7726043682411E-07
(PID.TID 0000.0001) %MON vort_r_max                   =   2.6914072104425E-07
(PID.TID 0000.0001) %MON vort_a_mean                  =  -2.4531016239528E-05
(PID.TID 0000.0001) %MON vort_a_sd                    =   7.3436098308956E-05
(PID.TID 0000.0001) %MON vort_p_mean                  =  -2.9400918813702E-05
(PID.TID 0000.0001) %MON vort_p_sd                    =   1.0337849910809E-04
(PID.TID 0000.0001) %MON surfExpan_theta_mean         =  -1.6210418990768E-03
(PID.TID 0000.0001) %MON surfExpan_salt_mean          =  -5.5015335042575E-05
(PID.TID 0000.0001) // =======================================================
(PID.TID 0000.0001) // End MONITOR dynamic field statistics
(PID.TID 0000.0001) // =======================================================
 EXTERNAL_FIELDS_LOAD,         7 : iP,iLd,i0,i1=   12    1   12    1 ; Wght=  0.0333333333  0.9666666667
 cg2d: Sum(rhs),rhsMax =  -4.44089209850063E-16  1.72953737578653E+02
(PID.TID 0000.0001)                    cg2d_init_res =    3.93584001970903E-03
(PID.TID 0000.0001)                       cg2d_iters =    90
(PID.TID 0000.0001)                         cg2d_res =    8.67207264473172E-10
(PID.TID 0000.0001) // =======================================================
(PID.TID 0000.0001) // Begin MONITOR dynamic field statistics
(PID.TID 0000.0001) // =======================================================
(PID.TID 0000.0001) %MON time_tsnumber                =                     8
(PID.TID 0000.0001) %MON time_secondsf                =   1.3824000000000E+06
(PID.TID 0000.0001) %MON dynstat_eta_max              =   5.6620362321889E+04
(PID.TID 0000.0001) %MON dynstat_eta_min              =  -9.4430091363484E+04
(PID.TID 0000.0001) %MON dynstat_eta_mean             =   0.0000000000000E+00
(PID.TID 0000.0001) %MON dynstat_eta_sd               =   4.0356564863297E+04
(PID.TID 0000.0001) %MON dynstat_eta_del2             =   2.1196098114003E+03
(PID.TID 0000.0001) %MON dynstat_uvel_max             =   1.0202539356139E-01
(PID.TID 0000.0001) %MON dynstat_uvel_min             =  -6.5349026028882E-02
(PID.TID 0000.0001) %MON dynstat_uvel_mean            =   5.4593351996982E-04
(PID.TID 0000.0001) %MON dynstat_uvel_sd              =   5.8257409050297E-03
(PID.TID 0000.0001) %MON dynstat_uvel_del2            =   6.8235770006292E-05
(PID.TID 0000.0001) %MON dynstat_vvel_max             =   8.0792330513431E-02
(PID.TID 0000.0001) %MON dynstat_vvel_min             =  -1.0475340591674E-01
(PID.TID 0000.0001) %MON dynstat_vvel_mean            =  -3.3376696966058E-04
(PID.TID 0000.0001) %MON dynstat_vvel_sd              =   8.9604212061857E-03
(PID.TID 0000.0001) %MON dynstat_vvel_del2            =   9.5758454865071E-05
(PID.TID 0000.0001) %MON dynstat_wvel_max             =   1.9172751619249E+00
(PID.TID 0000.0001) %MON dynstat_wvel_min             =  -1.7392537356536E+00
(PID.TID 0000.0001) %MON dynstat_wvel_mean            =   1.7825579817819E-04
(PID.TID 0000.0001) %MON dynstat_wvel_sd              =   2.2629960127797E-01
(PID.TID 0000.0001) %MON dynstat_wvel_del2            =   3.2972862129145E-03
(PID.TID 0000.0001) %MON dynstat_theta_max            =   2.9791544771575E+01
(PID.TID 0000.0001) %MON dynstat_theta_min            =  -2.7399708150674E+00
(PID.TID 0000.0001) %MON dynstat_theta_mean           =   3.6028882136244E+00
(PID.TID 0000.0001) %MON dynstat_theta_sd             =   4.4015951488916E+00
(PID.TID 0000.0001) %MON dynstat_theta_del2           =   5.1729638971497E-03
(PID.TID 0000.0001) %MON dynstat_salt_max             =   3.7434373068964E+01
(PID.TID 0000.0001) %MON dynstat_salt_min             =   2.9778577152071E+01
(PID.TID 0000.0001) %MON dynstat_salt_mean            =   3.4718001162022E+01
(PID.TID 0000.0001) %MON dynstat_salt_sd              =   2.9442242269085E-01
(PID.TID 0000.0001) %MON dynstat_salt_del2            =   1.0243295657865E-03
(PID.TID 0000.0001) %MON forcing_qnet_max             =   4.7119176719395E+02
(PID.TID 0000.0001) %MON forcing_qnet_min             =  -2.1244587012014E+02
(PID.TID 0000.0001) %MON forcing_qnet_mean            =  -1.5444657116170E+01
(PID.TID 0000.0001) %MON forcing_qnet_sd              =   1.1750182863142E+02
(PID.TID 0000.0001) %MON forcing_qnet_del2            =   7.5491844457055E-01
(PID.TID 0000.0001) %MON forcing_qsw_max              =   0.0000000000000E+00
(PID.TID 0000.0001) %MON forcing_qsw_min              =   0.0000000000000E+00
(PID.TID 0000.0001) %MON forcing_qsw_mean             =   0.0000000000000E+00
(PID.TID 0000.0001) %MON forcing_qsw_sd               =   0.0000000000000E+00
(PID.TID 0000.0001) %MON forcing_qsw_del2             =   0.0000000000000E+00
(PID.TID 0000.0001) %MON forcing_empmr_max            =   5.2302461935749E-05
(PID.TID 0000.0001) %MON forcing_empmr_min            =  -1.3705199332603E-04
(PID.TID 0000.0001) %MON forcing_empmr_mean           =   2.0432568138134E-22
(PID.TID 0000.0001) %MON forcing_empmr_sd             =   2.3550327612301E-05
(PID.TID 0000.0001) %MON forcing_empmr_del2           =   2.4956923451985E-07
(PID.TID 0000.0001) %MON forcing_fu_max               =   2.7545738964627E-01
(PID.TID 0000.0001) %MON forcing_fu_min               =  -1.7006715613998E-01
(PID.TID 0000.0001) %MON forcing_fu_mean              =   1.6087494476729E-02
(PID.TID 0000.0001) %MON forcing_fu_sd                =   9.0983735824982E-02
(PID.TID 0000.0001) %MON forcing_fu_del2              =   7.0822270205174E-04
(PID.TID 0000.0001) %MON forcing_fv_max               =   2.3124141489051E-01
(PID.TID 0000.0001) %MON forcing_fv_min               =  -1.7872155993945E-01
(PID.TID 0000.0001) %MON forcing_fv_mean              =  -5.2856299187887E-03
(PID.TID 0000.0001) %MON forcing_fv_sd                =   4.7940769894797E-02
(PID.TID 0000.0001) %MON forcing_fv_del2              =   4.7659557826527E-04
(PID.TID 0000.0001) %MON advcfl_uvel_max              =   6.7446053132773E-02
(PID.TID 0000.0001) %MON advcfl_vvel_max              =   4.0703813453951E-02
(PID.TID 0000.0001) %MON advcfl_wvel_max              =   1.1934959111879E-01
(PID.TID 0000.0001) %MON advcfl_W_hf_max              =   1.3513279260994E-01
(PID.TID 0000.0001) %MON pe_b_mean                    =  -8.7589822145882E-03
(PID.TID 0000.0001) %MON ke_max                       =   6.3878025698841E-03
(PID.TID 0000.0001) %MON ke_mean                      =   5.1543672025793E-05
(PID.TID 0000.0001) %MON ke_vol                       =   1.3442141716554E+22
(PID.TID 0000.0001) %MON vort_r_min                   =  -2.4222511907847E-07
(PID.TID 0000.0001) %MON vort_r_max                   =   2.1392174884995E-07
(PID.TID 0000.0001) %MON vort_a_mean                  =  -2.4531016038905E-05
(PID.TID 0000.0001) %MON vort_a_sd                    =   7.3436152167107E-05
(PID.TID 0000.0001) %MON vort_p_mean                  =  -2.9400852988277E-05
(PID.TID 0000.0001) %MON vort_p_sd                    =   1.0337784441671E-04
(PID.TID 0000.0001) %MON surfExpan_theta_mean         =  -4.3268252103217E-03
(PID.TID 0000.0001) %MON surfExpan_salt_mean          =  -5.6973556636801E-05
(PID.TID 0000.0001) // =======================================================
(PID.TID 0000.0001) // End MONITOR dynamic field statistics
(PID.TID 0000.0001) // =======================================================
 EXTERNAL_FIELDS_LOAD,         8 : iP,iLd,i0,i1=   12    1    1    2 ; Wght=  0.9666666667  0.0333333333
 EXTERNAL_FIELDS_LOAD, it=         8 : Reading new data, i0,i1=    1    2 (prev=   12    1 )
(PID.TID 0000.0001)  MDS_READ_FIELD: opening global file: trenberth_taux.bin
(PID.TID 0000.0001)  MDS_READ_FIELD: opening global file: trenberth_taux.bin
(PID.TID 0000.0001)  MDS_READ_FIELD: opening global file: trenberth_tauy.bin
(PID.TID 0000.0001)  MDS_READ_FIELD: opening global file: trenberth_tauy.bin
(PID.TID 0000.0001)  MDS_READ_FIELD: opening global file: shi_qnet.bin
(PID.TID 0000.0001)  MDS_READ_FIELD: opening global file: shi_qnet.bin
(PID.TID 0000.0001)  MDS_READ_FIELD: opening global file: shi_empmr.bin
(PID.TID 0000.0001)  MDS_READ_FIELD: opening global file: shi_empmr.bin
(PID.TID 0000.0001)  MDS_READ_FIELD: opening global file: lev_sst.bin
(PID.TID 0000.0001)  MDS_READ_FIELD: opening global file: lev_sst.bin
(PID.TID 0000.0001)  MDS_READ_FIELD: opening global file: deltageopotjmd95.bin
(PID.TID 0000.0001)  MDS_READ_FIELD: opening global file: deltageopotjmd95.bin
 cg2d: Sum(rhs),rhsMax =  -1.66533453693773E-15  1.72967914192273E+02
(PID.TID 0000.0001)                    cg2d_init_res =    3.96266093536526E-03
(PID.TID 0000.0001)                       cg2d_iters =    92
(PID.TID 0000.0001)                         cg2d_res =    9.26973476864816E-10
(PID.TID 0000.0001) // =======================================================
(PID.TID 0000.0001) // Begin MONITOR dynamic field statistics
(PID.TID 0000.0001) // =======================================================
(PID.TID 0000.0001) %MON time_tsnumber                =                     9
(PID.TID 0000.0001) %MON time_secondsf                =   1.5552000000000E+06
(PID.TID 0000.0001) %MON dynstat_eta_max              =   5.2284221469915E+04
(PID.TID 0000.0001) %MON dynstat_eta_min              =  -9.3568418279736E+04
(PID.TID 0000.0001) %MON dynstat_eta_mean             =   9.2145072522905E-12
(PID.TID 0000.0001) %MON dynstat_eta_sd               =   4.0032054998497E+04
(PID.TID 0000.0001) %MON dynstat_eta_del2             =   2.1196955275797E+03
(PID.TID 0000.0001) %MON dynstat_uvel_max             =   1.1473100822927E-01
(PID.TID 0000.0001) %MON dynstat_uvel_min             =  -6.6919658177739E-02
(PID.TID 0000.0001) %MON dynstat_uvel_mean            =   6.2915442711099E-04
(PID.TID 0000.0001) %MON dynstat_uvel_sd              =   6.7065921000273E-03
(PID.TID 0000.0001) %MON dynstat_uvel_del2            =   7.2120000641003E-05
(PID.TID 0000.0001) %MON dynstat_vvel_max             =   8.4391272069758E-02
(PID.TID 0000.0001) %MON dynstat_vvel_min             =  -1.1294500662206E-01
(PID.TID 0000.0001) %MON dynstat_vvel_mean            =  -4.1847967175935E-04
(PID.TID 0000.0001) %MON dynstat_vvel_sd              =   9.6108899673712E-03
(PID.TID 0000.0001) %MON dynstat_vvel_del2            =   1.0176138426857E-04
(PID.TID 0000.0001) %MON dynstat_wvel_max             =   1.9912516698397E+00
(PID.TID 0000.0001) %MON dynstat_wvel_min             =  -1.7055088454035E+00
(PID.TID 0000.0001) %MON dynstat_wvel_mean            =   3.5952417952913E-04
(PID.TID 0000.0001) %MON dynstat_wvel_sd              =   2.3569287561342E-01
(PID.TID 0000.0001) %MON dynstat_wvel_del2            =   3.3677886902549E-03
(PID.TID 0000.0001) %MON dynstat_theta_max            =   2.9837807412315E+01
(PID.TID 0000.0001) %MON dynstat_theta_min            =  -2.8177728640668E+00
(PID.TID 0000.0001) %MON dynstat_theta_mean           =   3.6030115733916E+00
(PID.TID 0000.0001) %MON dynstat_theta_sd             =   4.4017288033530E+00
(PID.TID 0000.0001) %MON dynstat_theta_del2           =   5.1081369117304E-03
(PID.TID 0000.0001) %MON dynstat_salt_max             =   3.7434099929017E+01
(PID.TID 0000.0001) %MON dynstat_salt_min             =   2.9777481214696E+01
(PID.TID 0000.0001) %MON dynstat_salt_mean            =   3.4718001167225E+01
(PID.TID 0000.0001) %MON dynstat_salt_sd              =   2.9442389187513E-01
(PID.TID 0000.0001) %MON dynstat_salt_del2            =   1.0236344027269E-03
(PID.TID 0000.0001) %MON forcing_qnet_max             =   4.7142477748630E+02
(PID.TID 0000.0001) %MON forcing_qnet_min             =  -2.0867118774499E+02
(PID.TID 0000.0001) %MON forcing_qnet_mean            =  -1.5466374378120E+01
(PID.TID 0000.0001) %MON forcing_qnet_sd              =   1.1627486818170E+02
(PID.TID 0000.0001) %MON forcing_qnet_del2            =   7.5505908519335E-01
(PID.TID 0000.0001) %MON forcing_qsw_max              =   0.0000000000000E+00
(PID.TID 0000.0001) %MON forcing_qsw_min              =   0.0000000000000E+00
(PID.TID 0000.0001) %MON forcing_qsw_mean             =   0.0000000000000E+00
(PID.TID 0000.0001) %MON forcing_qsw_sd               =   0.0000000000000E+00
(PID.TID 0000.0001) %MON forcing_qsw_del2             =   0.0000000000000E+00
(PID.TID 0000.0001) %MON forcing_empmr_max            =   5.2302461935749E-05
(PID.TID 0000.0001) %MON forcing_empmr_min            =  -1.3705199332603E-04
(PID.TID 0000.0001) %MON forcing_empmr_mean           =  -2.0432568138134E-22
(PID.TID 0000.0001) %MON forcing_empmr_sd             =   2.3550327612301E-05
(PID.TID 0000.0001) %MON forcing_empmr_del2           =   2.4956923451985E-07
(PID.TID 0000.0001) %MON forcing_fu_max               =   2.7858281009884E-01
(PID.TID 0000.0001) %MON forcing_fu_min               =  -1.6918717679013E-01
(PID.TID 0000.0001) %MON forcing_fu_mean              =   1.6132577065933E-02
(PID.TID 0000.0001) %MON forcing_fu_sd                =   9.0934151581891E-02
(PID.TID 0000.0001) %MON forcing_fu_del2              =   7.0876784663481E-04
(PID.TID 0000.0001) %MON forcing_fv_max               =   2.2991287307515E-01
(PID.TID 0000.0001) %MON forcing_fv_min               =  -1.7714560259865E-01
(PID.TID 0000.0001) %MON forcing_fv_mean              =  -5.2783813973473E-03
(PID.TID 0000.0001) %MON forcing_fv_sd                =   4.7923548875222E-02
(PID.TID 0000.0001) %MON forcing_fv_del2              =   4.7743132754674E-04
(PID.TID 0000.0001) %MON advcfl_uvel_max              =   7.5845369538832E-02
(PID.TID 0000.0001) %MON advcfl_vvel_max              =   4.3886806733078E-02
(PID.TID 0000.0001) %MON advcfl_wvel_max              =   1.2741343937957E-01
(PID.TID 0000.0001) %MON advcfl_W_hf_max              =   1.4425652567670E-01
(PID.TID 0000.0001) %MON pe_b_mean                    =  -8.7717805906998E-03
(PID.TID 0000.0001) %MON ke_max                       =   7.7540851594086E-03
(PID.TID 0000.0001) %MON ke_mean                      =   6.2030646042302E-05
(PID.TID 0000.0001) %MON ke_vol                       =   1.3442141716554E+22
(PID.TID 0000.0001) %MON vort_r_min                   =  -3.2567512469074E-07
(PID.TID 0000.0001) %MON vort_r_max                   =   2.8415083347795E-07
(PID.TID 0000.0001) %MON vort_a_mean                  =  -2.4531015790613E-05
(PID.TID 0000.0001) %MON vort_a_sd                    =   7.3436172416082E-05
(PID.TID 0000.0001) %MON vort_p_mean                  =  -2.9400747398965E-05
(PID.TID 0000.0001) %MON vort_p_sd                    =   1.0337690812638E-04
(PID.TID 0000.0001) %MON surfExpan_theta_mean         =  -5.4602443572771E-03
(PID.TID 0000.0001) %MON surfExpan_salt_mean          =  -5.4265774010986E-05
(PID.TID 0000.0001) // =======================================================
(PID.TID 0000.0001) // End MONITOR dynamic field statistics
(PID.TID 0000.0001) // =======================================================
 EXTERNAL_FIELDS_LOAD,         9 : iP,iLd,i0,i1=    1    2    1    2 ; Wght=  0.9000000000  0.1000000000
 cg2d: Sum(rhs),rhsMax =  -3.33066907387547E-16  1.72980797393370E+02
(PID.TID 0000.0001)                    cg2d_init_res =    3.62681210056261E-03
(PID.TID 0000.0001)                       cg2d_iters =    93
(PID.TID 0000.0001)                         cg2d_res =    9.19479628663948E-10
(PID.TID 0000.0001) // =======================================================
(PID.TID 0000.0001) // Begin MONITOR dynamic field statistics
(PID.TID 0000.0001) // =======================================================
(PID.TID 0000.0001) %MON time_tsnumber                =                    10
(PID.TID 0000.0001) %MON time_secondsf                =   1.7280000000000E+06
(PID.TID 0000.0001) %MON dynstat_eta_max              =   5.1385396739101E+04
(PID.TID 0000.0001) %MON dynstat_eta_min              =  -9.2841880334983E+04
(PID.TID 0000.0001) %MON dynstat_eta_mean             =   5.2654327155946E-12
(PID.TID 0000.0001) %MON dynstat_eta_sd               =   3.9769781421286E+04
(PID.TID 0000.0001) %MON dynstat_eta_del2             =   2.1197587132082E+03
(PID.TID 0000.0001) %MON dynstat_uvel_max             =   1.2649915911660E-01
(PID.TID 0000.0001) %MON dynstat_uvel_min             =  -6.6683280380085E-02
(PID.TID 0000.0001) %MON dynstat_uvel_mean            =   5.9180425088554E-04
(PID.TID 0000.0001) %MON dynstat_uvel_sd              =   7.6225733057295E-03
(PID.TID 0000.0001) %MON dynstat_uvel_del2            =   7.5509480375302E-05
(PID.TID 0000.0001) %MON dynstat_vvel_max             =   8.6872665454675E-02
(PID.TID 0000.0001) %MON dynstat_vvel_min             =  -1.1933323627380E-01
(PID.TID 0000.0001) %MON dynstat_vvel_mean            =  -3.8439165425541E-04
(PID.TID 0000.0001) %MON dynstat_vvel_sd              =   1.0129514675037E-02
(PID.TID 0000.0001) %MON dynstat_vvel_del2            =   1.0628847145466E-04
(PID.TID 0000.0001) %MON dynstat_wvel_max             =   2.0210659578221E+00
(PID.TID 0000.0001) %MON dynstat_wvel_min             =  -1.6344744073792E+00
(PID.TID 0000.0001) %MON dynstat_wvel_mean            =   4.4750596885140E-04
(PID.TID 0000.0001) %MON dynstat_wvel_sd              =   2.4123675973797E-01
(PID.TID 0000.0001) %MON dynstat_wvel_del2            =   3.3877649091885E-03
(PID.TID 0000.0001) %MON dynstat_theta_max            =   2.9875703940533E+01
(PID.TID 0000.0001) %MON dynstat_theta_min            =  -2.8876406132651E+00
(PID.TID 0000.0001) %MON dynstat_theta_mean           =   3.6031263028208E+00
(PID.TID 0000.0001) %MON dynstat_theta_sd             =   4.4018783617823E+00
(PID.TID 0000.0001) %MON dynstat_theta_del2           =   5.0591856242670E-03
(PID.TID 0000.0001) %MON dynstat_salt_max             =   3.7433822011410E+01
(PID.TID 0000.0001) %MON dynstat_salt_min             =   2.9776110383447E+01
(PID.TID 0000.0001) %MON dynstat_salt_mean            =   3.4718001160031E+01
(PID.TID 0000.0001) %MON dynstat_salt_sd              =   2.9442369812552E-01
(PID.TID 0000.0001) %MON dynstat_salt_del2            =   1.0250481013042E-03
(PID.TID 0000.0001) %MON forcing_qnet_max             =   4.5648353552001E+02
(PID.TID 0000.0001) %MON forcing_qnet_min             =  -2.0132172039607E+02
(PID.TID 0000.0001) %MON forcing_qnet_mean            =  -1.5583204151305E+01
(PID.TID 0000.0001) %MON forcing_qnet_sd              =   1.1389045946676E+02
(PID.TID 0000.0001) %MON forcing_qnet_del2            =   7.4041337483018E-01
(PID.TID 0000.0001) %MON forcing_qsw_max              =   0.0000000000000E+00
(PID.TID 0000.0001) %MON forcing_qsw_min              =   0.0000000000000E+00
(PID.TID 0000.0001) %MON forcing_qsw_mean             =   0.0000000000000E+00
(PID.TID 0000.0001) %MON forcing_qsw_sd               =   0.0000000000000E+00
(PID.TID 0000.0001) %MON forcing_qsw_del2             =   0.0000000000000E+00
(PID.TID 0000.0001) %MON forcing_empmr_max            =   5.2302461935749E-05
(PID.TID 0000.0001) %MON forcing_empmr_min            =  -1.3705199332603E-04
(PID.TID 0000.0001) %MON forcing_empmr_mean           =   0.0000000000000E+00
(PID.TID 0000.0001) %MON forcing_empmr_sd             =   2.3550327612301E-05
(PID.TID 0000.0001) %MON forcing_empmr_del2           =   2.4956923451985E-07
(PID.TID 0000.0001) %MON forcing_fu_max               =   2.7819065969079E-01
(PID.TID 0000.0001) %MON forcing_fu_min               =  -1.7091440376031E-01
(PID.TID 0000.0001) %MON forcing_fu_mean              =   1.6242451786234E-02
(PID.TID 0000.0001) %MON forcing_fu_sd                =   9.0610414042248E-02
(PID.TID 0000.0001) %MON forcing_fu_del2              =   6.9495462547040E-04
(PID.TID 0000.0001) %MON forcing_fv_max               =   2.2349597866647E-01
(PID.TID 0000.0001) %MON forcing_fv_min               =  -1.7516300310322E-01
(PID.TID 0000.0001) %MON forcing_fv_mean              =  -5.4104015222459E-03
(PID.TID 0000.0001) %MON forcing_fv_sd                =   4.7320622627559E-02
(PID.TID 0000.0001) %MON forcing_fv_del2              =   4.6652458216358E-04
(PID.TID 0000.0001) %MON advcfl_uvel_max              =   8.3624955603780E-02
(PID.TID 0000.0001) %MON advcfl_vvel_max              =   4.6369067865974E-02
(PID.TID 0000.0001) %MON advcfl_wvel_max              =   1.3319602105043E-01
(PID.TID 0000.0001) %MON advcfl_W_hf_max              =   1.5080352060394E-01
(PID.TID 0000.0001) %MON pe_b_mean                    =  -8.6737313496455E-03
(PID.TID 0000.0001) %MON ke_max                       =   9.1592726767343E-03
(PID.TID 0000.0001) %MON ke_mean                      =   7.2530889675437E-05
(PID.TID 0000.0001) %MON ke_vol                       =   1.3442141716554E+22
(PID.TID 0000.0001) %MON vort_r_min                   =  -4.0741117641541E-07
(PID.TID 0000.0001) %MON vort_r_max                   =   3.6495810969274E-07
(PID.TID 0000.0001) %MON vort_a_mean                  =  -2.4531015536463E-05
(PID.TID 0000.0001) %MON vort_a_sd                    =   7.3436164030192E-05
(PID.TID 0000.0001) %MON vort_p_mean                  =  -2.9400633742272E-05
(PID.TID 0000.0001) %MON vort_p_sd                    =   1.0337595186107E-04
(PID.TID 0000.0001) %MON surfExpan_theta_mean         =  -5.1205152647135E-03
(PID.TID 0000.0001) %MON surfExpan_salt_mean          =  -5.2745616444361E-05
(PID.TID 0000.0001) // =======================================================
(PID.TID 0000.0001) // End MONITOR dynamic field statistics
(PID.TID 0000.0001) // =======================================================
 EXTERNAL_FIELDS_LOAD,        10 : iP,iLd,i0,i1=    1    2    1    2 ; Wght=  0.8333333333  0.1666666667
 cg2d: Sum(rhs),rhsMax =  -1.27675647831893E-15  1.72990801100944E+02
(PID.TID 0000.0001)                    cg2d_init_res =    3.12700099981835E-03
(PID.TID 0000.0001)                       cg2d_iters =    91
(PID.TID 0000.0001)                         cg2d_res =    9.41852622955161E-10
(PID.TID 0000.0001) // =======================================================
(PID.TID 0000.0001) // Begin MONITOR dynamic field statistics
(PID.TID 0000.0001) // =======================================================
(PID.TID 0000.0001) %MON time_tsnumber                =                    11
(PID.TID 0000.0001) %MON time_secondsf                =   1.9008000000000E+06
(PID.TID 0000.0001) %MON dynstat_eta_max              =   4.7521115785372E+04
(PID.TID 0000.0001) %MON dynstat_eta_min              =  -9.2588226209629E+04
(PID.TID 0000.0001) %MON dynstat_eta_mean             =   1.7551442385315E-12
(PID.TID 0000.0001) %MON dynstat_eta_sd               =   3.9595132940960E+04
(PID.TID 0000.0001) %MON dynstat_eta_del2             =   2.1197971234827E+03
(PID.TID 0000.0001) %MON dynstat_uvel_max             =   1.3725606361437E-01
(PID.TID 0000.0001) %MON dynstat_uvel_min             =  -6.4743527094896E-02
(PID.TID 0000.0001) %MON dynstat_uvel_mean            =   4.7909388115376E-04
(PID.TID 0000.0001) %MON dynstat_uvel_sd              =   8.5761595358249E-03
(PID.TID 0000.0001) %MON dynstat_uvel_del2            =   7.8643473811284E-05
(PID.TID 0000.0001) %MON dynstat_vvel_max             =   8.9472841351514E-02
(PID.TID 0000.0001) %MON dynstat_vvel_min             =  -1.2387206135818E-01
(PID.TID 0000.0001) %MON dynstat_vvel_mean            =  -2.8037859916877E-04
(PID.TID 0000.0001) %MON dynstat_vvel_sd              =   1.0518643806007E-02
(PID.TID 0000.0001) %MON dynstat_vvel_del2            =   1.0943367328892E-04
(PID.TID 0000.0001) %MON dynstat_wvel_max             =   2.1374676027409E+00
(PID.TID 0000.0001) %MON dynstat_wvel_min             =  -1.5548342689792E+00
(PID.TID 0000.0001) %MON dynstat_wvel_mean            =   4.5196390372489E-04
(PID.TID 0000.0001) %MON dynstat_wvel_sd              =   2.4343571513081E-01
(PID.TID 0000.0001) %MON dynstat_wvel_del2            =   3.3690335382212E-03
(PID.TID 0000.0001) %MON dynstat_theta_max            =   2.9908331948164E+01
(PID.TID 0000.0001) %MON dynstat_theta_min            =  -2.9525092476628E+00
(PID.TID 0000.0001) %MON dynstat_theta_mean           =   3.6032331045514E+00
(PID.TID 0000.0001) %MON dynstat_theta_sd             =   4.4020404067423E+00
(PID.TID 0000.0001) %MON dynstat_theta_del2           =   5.0265193255299E-03
(PID.TID 0000.0001) %MON dynstat_salt_max             =   3.7433555564977E+01
(PID.TID 0000.0001) %MON dynstat_salt_min             =   2.9774671991085E+01
(PID.TID 0000.0001) %MON dynstat_salt_mean            =   3.4718001155991E+01
(PID.TID 0000.0001) %MON dynstat_salt_sd              =   2.9442132951251E-01
(PID.TID 0000.0001) %MON dynstat_salt_del2            =   1.0259447193125E-03
(PID.TID 0000.0001) %MON forcing_qnet_max             =   4.4154229355371E+02
(PID.TID 0000.0001) %MON forcing_qnet_min             =  -1.9579136980453E+02
(PID.TID 0000.0001) %MON forcing_qnet_mean            =  -1.5700033924490E+01
(PID.TID 0000.0001) %MON forcing_qnet_sd              =   1.1157068146507E+02
(PID.TID 0000.0001) %MON forcing_qnet_del2            =   7.2729757987647E-01
(PID.TID 0000.0001) %MON forcing_qsw_max              =   0.0000000000000E+00
(PID.TID 0000.0001) %MON forcing_qsw_min              =   0.0000000000000E+00
(PID.TID 0000.0001) %MON forcing_qsw_mean             =   0.0000000000000E+00
(PID.TID 0000.0001) %MON forcing_qsw_sd               =   0.0000000000000E+00
(PID.TID 0000.0001) %MON forcing_qsw_del2             =   0.0000000000000E+00
(PID.TID 0000.0001) %MON forcing_empmr_max            =   5.2302461935749E-05
(PID.TID 0000.0001) %MON forcing_empmr_min            =  -1.3705199332603E-04
(PID.TID 0000.0001) %MON forcing_empmr_mean           =  -2.0432568138134E-22
(PID.TID 0000.0001) %MON forcing_empmr_sd             =   2.3550327612301E-05
(PID.TID 0000.0001) %MON forcing_empmr_del2           =   2.4956923451985E-07
(PID.TID 0000.0001) %MON forcing_fu_max               =   2.7779850928273E-01
(PID.TID 0000.0001) %MON forcing_fu_min               =  -1.7423425173542E-01
(PID.TID 0000.0001) %MON forcing_fu_mean              =   1.6352326506535E-02
(PID.TID 0000.0001) %MON forcing_fu_sd                =   9.0355731935459E-02
(PID.TID 0000.0001) %MON forcing_fu_del2              =   6.8332385210054E-04
(PID.TID 0000.0001) %MON forcing_fv_max               =   2.1707908425778E-01
(PID.TID 0000.0001) %MON forcing_fv_min               =  -1.7318040360779E-01
(PID.TID 0000.0001) %MON forcing_fv_mean              =  -5.5424216471445E-03
(PID.TID 0000.0001) %MON forcing_fv_sd                =   4.6771332121489E-02
(PID.TID 0000.0001) %MON forcing_fv_del2              =   4.5745971542986E-04
(PID.TID 0000.0001) %MON advcfl_uvel_max              =   9.0736035767020E-02
(PID.TID 0000.0001) %MON advcfl_vvel_max              =   4.8132709705757E-02
(PID.TID 0000.0001) %MON advcfl_wvel_max              =   1.3651430702452E-01
(PID.TID 0000.0001) %MON advcfl_W_hf_max              =   1.5456045871153E-01
(PID.TID 0000.0001) %MON pe_b_mean                    =  -8.5000161979354E-03
(PID.TID 0000.0001) %MON ke_max                       =   1.0595633062949E-02
(PID.TID 0000.0001) %MON ke_mean                      =   8.3042268422327E-05
(PID.TID 0000.0001) %MON ke_vol                       =   1.3442141716554E+22
(PID.TID 0000.0001) %MON vort_r_min                   =  -4.6995347626648E-07
(PID.TID 0000.0001) %MON vort_r_max                   =   4.2608989229494E-07
(PID.TID 0000.0001) %MON vort_a_mean                  =  -2.4531015315454E-05
(PID.TID 0000.0001) %MON vort_a_sd                    =   7.3436137286473E-05
(PID.TID 0000.0001) %MON vort_p_mean                  =  -2.9400538989666E-05
(PID.TID 0000.0001) %MON vort_p_sd                    =   1.0337519889848E-04
(PID.TID 0000.0001) %MON surfExpan_theta_mean         =  -3.7988258513165E-03
(PID.TID 0000.0001) %MON surfExpan_salt_mean          =  -5.6421633619704E-05
(PID.TID 0000.0001) // =======================================================
(PID.TID 0000.0001) // End MONITOR dynamic field statistics
(PID.TID 0000.0001) // =======================================================
 EXTERNAL_FIELDS_LOAD,        11 : iP,iLd,i0,i1=    1    2    1    2 ; Wght=  0.7666666667  0.2333333333
 cg2d: Sum(rhs),rhsMax =   7.49400541621981E-16  1.72997146486538E+02
(PID.TID 0000.0001)                    cg2d_init_res =    2.73174336539853E-03
(PID.TID 0000.0001)                       cg2d_iters =    84
(PID.TID 0000.0001)                         cg2d_res =    8.93637860739252E-10
(PID.TID 0000.0001) // =======================================================
(PID.TID 0000.0001) // Begin MONITOR dynamic field statistics
(PID.TID 0000.0001) // =======================================================
(PID.TID 0000.0001) %MON time_tsnumber                =                    12
(PID.TID 0000.0001) %MON time_secondsf                =   2.0736000000000E+06
(PID.TID 0000.0001) %MON dynstat_eta_max              =   4.2957620986865E+04
(PID.TID 0000.0001) %MON dynstat_eta_min              =  -9.2540333911326E+04
(PID.TID 0000.0001) %MON dynstat_eta_mean             =   3.9490745366959E-12
(PID.TID 0000.0001) %MON dynstat_eta_sd               =   3.9503443535255E+04
(PID.TID 0000.0001) %MON dynstat_eta_del2             =   2.1198109125282E+03
(PID.TID 0000.0001) %MON dynstat_uvel_max             =   1.4876153579379E-01
(PID.TID 0000.0001) %MON dynstat_uvel_min             =  -6.8854637146267E-02
(PID.TID 0000.0001) %MON dynstat_uvel_mean            =   3.4374460783045E-04
(PID.TID 0000.0001) %MON dynstat_uvel_sd              =   9.5581348448308E-03
(PID.TID 0000.0001) %MON dynstat_uvel_del2            =   8.1714605325966E-05
(PID.TID 0000.0001) %MON dynstat_vvel_max             =   9.0794313723940E-02
(PID.TID 0000.0001) %MON dynstat_vvel_min             =  -1.2719605070625E-01
(PID.TID 0000.0001) %MON dynstat_vvel_mean            =  -1.5652221805124E-04
(PID.TID 0000.0001) %MON dynstat_vvel_sd              =   1.0783028602765E-02
(PID.TID 0000.0001) %MON dynstat_vvel_del2            =   1.1132529038653E-04
(PID.TID 0000.0001) %MON dynstat_wvel_max             =   2.2828796159249E+00
(PID.TID 0000.0001) %MON dynstat_wvel_min             =  -1.4727405216114E+00
(PID.TID 0000.0001) %MON dynstat_wvel_mean            =   3.9579647423152E-04
(PID.TID 0000.0001) %MON dynstat_wvel_sd              =   2.4285198950408E-01
(PID.TID 0000.0001) %MON dynstat_wvel_del2            =   3.3230927186642E-03
(PID.TID 0000.0001) %MON dynstat_theta_max            =   2.9935881666222E+01
(PID.TID 0000.0001) %MON dynstat_theta_min            =  -3.0124226755712E+00
(PID.TID 0000.0001) %MON dynstat_theta_mean           =   3.6033335298504E+00
(PID.TID 0000.0001) %MON dynstat_theta_sd             =   4.4022155559482E+00
(PID.TID 0000.0001) %MON dynstat_theta_del2           =   5.0060681980961E-03
(PID.TID 0000.0001) %MON dynstat_salt_max             =   3.7433322660732E+01
(PID.TID 0000.0001) %MON dynstat_salt_min             =   2.9773268822793E+01
(PID.TID 0000.0001) %MON dynstat_salt_mean            =   3.4718001165759E+01
(PID.TID 0000.0001) %MON dynstat_salt_sd              =   2.9441702973944E-01
(PID.TID 0000.0001) %MON dynstat_salt_del2            =   1.0268208984287E-03
(PID.TID 0000.0001) %MON forcing_qnet_max             =   4.3015360557608E+02
(PID.TID 0000.0001) %MON forcing_qnet_min             =  -1.9420685395356E+02
(PID.TID 0000.0001) %MON forcing_qnet_mean            =  -1.5816863697674E+01
(PID.TID 0000.0001) %MON forcing_qnet_sd              =   1.0931964867196E+02
(PID.TID 0000.0001) %MON forcing_qnet_del2            =   7.1579580491456E-01
(PID.TID 0000.0001) %MON forcing_qsw_max              =   0.0000000000000E+00
(PID.TID 0000.0001) %MON forcing_qsw_min              =   0.0000000000000E+00
(PID.TID 0000.0001) %MON forcing_qsw_mean             =   0.0000000000000E+00
(PID.TID 0000.0001) %MON forcing_qsw_sd               =   0.0000000000000E+00
(PID.TID 0000.0001) %MON forcing_qsw_del2             =   0.0000000000000E+00
(PID.TID 0000.0001) %MON forcing_empmr_max            =   5.2302461935749E-05
(PID.TID 0000.0001) %MON forcing_empmr_min            =  -1.3705199332603E-04
(PID.TID 0000.0001) %MON forcing_empmr_mean           =  -6.1297704414401E-22
(PID.TID 0000.0001) %MON forcing_empmr_sd             =   2.3550327612301E-05
(PID.TID 0000.0001) %MON forcing_empmr_del2           =   2.4956923451985E-07
(PID.TID 0000.0001) %MON forcing_fu_max               =   2.7740635887467E-01
(PID.TID 0000.0001) %MON forcing_fu_min               =  -1.7755409971052E-01
(PID.TID 0000.0001) %MON forcing_fu_mean              =   1.6462201226836E-02
(PID.TID 0000.0001) %MON forcing_fu_sd                =   9.0170690393126E-02
(PID.TID 0000.0001) %MON forcing_fu_del2              =   6.7398852110683E-04
(PID.TID 0000.0001) %MON forcing_fv_max               =   2.1066218984909E-01
(PID.TID 0000.0001) %MON forcing_fv_min               =  -1.7119780411236E-01
(PID.TID 0000.0001) %MON forcing_fv_mean              =  -5.6744417720431E-03
(PID.TID 0000.0001) %MON forcing_fv_sd                =   4.6277587280153E-02
(PID.TID 0000.0001) %MON forcing_fv_del2              =   4.5034796430965E-04
(PID.TID 0000.0001) %MON advcfl_uvel_max              =   9.7157441750421E-02
(PID.TID 0000.0001) %MON advcfl_vvel_max              =   4.9424305345659E-02
(PID.TID 0000.0001) %MON advcfl_wvel_max              =   1.3722181102843E-01
(PID.TID 0000.0001) %MON advcfl_W_hf_max              =   1.5536148935636E-01
(PID.TID 0000.0001) %MON pe_b_mean                    =  -8.2993188110564E-03
(PID.TID 0000.0001) %MON ke_max                       =   1.2023232445891E-02
(PID.TID 0000.0001) %MON ke_mean                      =   9.3556428366607E-05
(PID.TID 0000.0001) %MON ke_vol                       =   1.3442141716554E+22
(PID.TID 0000.0001) %MON vort_r_min                   =  -5.0842343867572E-07
(PID.TID 0000.0001) %MON vort_r_max                   =   4.6254791888094E-07
(PID.TID 0000.0001) %MON vort_a_mean                  =  -2.4531015157458E-05
(PID.TID 0000.0001) %MON vort_a_sd                    =   7.3436104284450E-05
(PID.TID 0000.0001) %MON vort_p_mean                  =  -2.9400476003944E-05
(PID.TID 0000.0001) %MON vort_p_sd                    =   1.0337477683492E-04
(PID.TID 0000.0001) %MON surfExpan_theta_mean         =  -2.1044037891925E-03
(PID.TID 0000.0001) %MON surfExpan_salt_mean          =  -6.1623642820161E-05
(PID.TID 0000.0001) // =======================================================
(PID.TID 0000.0001) // End MONITOR dynamic field statistics
(PID.TID 0000.0001) // =======================================================
 EXTERNAL_FIELDS_LOAD,        12 : iP,iLd,i0,i1=    1    2    1    2 ; Wght=  0.7000000000  0.3000000000
 cg2d: Sum(rhs),rhsMax =   1.11022302462516E-15  1.72999998781337E+02
(PID.TID 0000.0001)                    cg2d_init_res =    2.58840789679455E-03
(PID.TID 0000.0001)                       cg2d_iters =    88
(PID.TID 0000.0001)                         cg2d_res =    8.46126451393808E-10
(PID.TID 0000.0001) // =======================================================
(PID.TID 0000.0001) // Begin MONITOR dynamic field statistics
(PID.TID 0000.0001) // =======================================================
(PID.TID 0000.0001) %MON time_tsnumber                =                    13
(PID.TID 0000.0001) %MON time_secondsf                =   2.2464000000000E+06
(PID.TID 0000.0001) %MON dynstat_eta_max              =   4.2948568005459E+04
(PID.TID 0000.0001) %MON dynstat_eta_min              =  -9.2456039155642E+04
(PID.TID 0000.0001) %MON dynstat_eta_mean             =   6.1430048348603E-12
(PID.TID 0000.0001) %MON dynstat_eta_sd               =   3.9482812262185E+04
(PID.TID 0000.0001) %MON dynstat_eta_del2             =   2.1198024704019E+03
(PID.TID 0000.0001) %MON dynstat_uvel_max             =   1.5936644584890E-01
(PID.TID 0000.0001) %MON dynstat_uvel_min             =  -7.4231979514187E-02
(PID.TID 0000.0001) %MON dynstat_uvel_mean            =   2.3222335853289E-04
(PID.TID 0000.0001) %MON dynstat_uvel_sd              =   1.0546788218152E-02
(PID.TID 0000.0001) %MON dynstat_uvel_del2            =   8.4846877594201E-05
(PID.TID 0000.0001) %MON dynstat_vvel_max             =   9.0956103417820E-02
(PID.TID 0000.0001) %MON dynstat_vvel_min             =  -1.3058959034453E-01
(PID.TID 0000.0001) %MON dynstat_vvel_mean            =  -5.1677723042129E-05
(PID.TID 0000.0001) %MON dynstat_vvel_sd              =   1.0928659339224E-02
(PID.TID 0000.0001) %MON dynstat_vvel_del2            =   1.1211535013678E-04
(PID.TID 0000.0001) %MON dynstat_wvel_max             =   2.4172022065531E+00
(PID.TID 0000.0001) %MON dynstat_wvel_min             =  -1.4406763522647E+00
(PID.TID 0000.0001) %MON dynstat_wvel_mean            =   3.0726856599412E-04
(PID.TID 0000.0001) %MON dynstat_wvel_sd              =   2.4000243101762E-01
(PID.TID 0000.0001) %MON dynstat_wvel_del2            =   3.2589896140033E-03
(PID.TID 0000.0001) %MON dynstat_theta_max            =   2.9958530803214E+01
(PID.TID 0000.0001) %MON dynstat_theta_min            =  -3.0674629258459E+00
(PID.TID 0000.0001) %MON dynstat_theta_mean           =   3.6034289150569E+00
(PID.TID 0000.0001) %MON dynstat_theta_sd             =   4.4024076617660E+00
(PID.TID 0000.0001) %MON dynstat_theta_del2           =   5.0020211588322E-03
(PID.TID 0000.0001) %MON dynstat_salt_max             =   3.7433147968658E+01
(PID.TID 0000.0001) %MON dynstat_salt_min             =   2.9771959674151E+01
(PID.TID 0000.0001) %MON dynstat_salt_mean            =   3.4718001179581E+01
(PID.TID 0000.0001) %MON dynstat_salt_sd              =   2.9441774918765E-01
(PID.TID 0000.0001) %MON dynstat_salt_del2            =   1.0290098733762E-03
(PID.TID 0000.0001) %MON forcing_qnet_max             =   4.2795289368731E+02
(PID.TID 0000.0001) %MON forcing_qnet_min             =  -1.9262233810258E+02
(PID.TID 0000.0001) %MON forcing_qnet_mean            =  -1.5933693470859E+01
(PID.TID 0000.0001) %MON forcing_qnet_sd              =   1.0714169415822E+02
(PID.TID 0000.0001) %MON forcing_qnet_del2            =   7.0598694006671E-01
(PID.TID 0000.0001) %MON forcing_qsw_max              =   0.0000000000000E+00
(PID.TID 0000.0001) %MON forcing_qsw_min              =   0.0000000000000E+00
(PID.TID 0000.0001) %MON forcing_qsw_mean             =   0.0000000000000E+00
(PID.TID 0000.0001) %MON forcing_qsw_sd               =   0.0000000000000E+00
(PID.TID 0000.0001) %MON forcing_qsw_del2             =   0.0000000000000E+00
(PID.TID 0000.0001) %MON forcing_empmr_max            =   5.2302461935749E-05
(PID.TID 0000.0001) %MON forcing_empmr_min            =  -1.3705199332603E-04
(PID.TID 0000.0001) %MON forcing_empmr_mean           =  -2.0432568138134E-22
(PID.TID 0000.0001) %MON forcing_empmr_sd             =   2.3550327612301E-05
(PID.TID 0000.0001) %MON forcing_empmr_del2           =   2.4956923451985E-07
(PID.TID 0000.0001) %MON forcing_fu_max               =   2.7701420846661E-01
(PID.TID 0000.0001) %MON forcing_fu_min               =  -1.8087394768562E-01
(PID.TID 0000.0001) %MON forcing_fu_mean              =   1.6572075947137E-02
(PID.TID 0000.0001) %MON forcing_fu_sd                =   9.0055718697089E-02
(PID.TID 0000.0001) %MON forcing_fu_del2              =   6.6704501397243E-04
(PID.TID 0000.0001) %MON forcing_fv_max               =   2.0424529544041E-01
(PID.TID 0000.0001) %MON forcing_fv_min               =  -1.6921520461693E-01
(PID.TID 0000.0001) %MON forcing_fv_mean              =  -5.8064618969417E-03
(PID.TID 0000.0001) %MON forcing_fv_sd                =   4.5841182947436E-02
(PID.TID 0000.0001) %MON forcing_fv_del2              =   4.4528292007770E-04
(PID.TID 0000.0001) %MON advcfl_uvel_max              =   1.0286791018693E-01
(PID.TID 0000.0001) %MON advcfl_vvel_max              =   5.0742925997431E-02
(PID.TID 0000.0001) %MON advcfl_wvel_max              =   1.3522098425071E-01
(PID.TID 0000.0001) %MON advcfl_W_hf_max              =   1.5309616851705E-01
(PID.TID 0000.0001) %MON pe_b_mean                    =  -8.1068022851214E-03
(PID.TID 0000.0001) %MON ke_max                       =   1.3408767961920E-02
(PID.TID 0000.0001) %MON ke_mean                      =   1.0393628562724E-04
(PID.TID 0000.0001) %MON ke_vol                       =   1.3442141716554E+22
(PID.TID 0000.0001) %MON vort_r_min                   =  -5.2212208473930E-07
(PID.TID 0000.0001) %MON vort_r_max                   =   4.7369026950785E-07
(PID.TID 0000.0001) %MON vort_a_mean                  =  -2.4531015079343E-05
(PID.TID 0000.0001) %MON vort_a_sd                    =   7.3436075745710E-05
(PID.TID 0000.0001) %MON vort_p_mean                  =  -2.9400449441336E-05
(PID.TID 0000.0001) %MON vort_p_sd                    =   1.0337471466005E-04
(PID.TID 0000.0001) %MON surfExpan_theta_mean         =  -5.6236788591122E-04
(PID.TID 0000.0001) %MON surfExpan_salt_mean          =  -6.0730519834488E-05
(PID.TID 0000.0001) // =======================================================
(PID.TID 0000.0001) // End MONITOR dynamic field statistics
(PID.TID 0000.0001) // =======================================================
 EXTERNAL_FIELDS_LOAD,        13 : iP,iLd,i0,i1=    1    2    1    2 ; Wght=  0.6333333333  0.3666666667
 cg2d: Sum(rhs),rhsMax =   9.15933995315754E-16  1.73000133352048E+02
(PID.TID 0000.0001)                    cg2d_init_res =    2.58982211705838E-03
(PID.TID 0000.0001)                       cg2d_iters =    88
(PID.TID 0000.0001)                         cg2d_res =    9.90439491851563E-10
(PID.TID 0000.0001) // =======================================================
(PID.TID 0000.0001) // Begin MONITOR dynamic field statistics
(PID.TID 0000.0001) // =======================================================
(PID.TID 0000.0001) %MON time_tsnumber                =                    14
(PID.TID 0000.0001) %MON time_secondsf                =   2.4192000000000E+06
(PID.TID 0000.0001) %MON dynstat_eta_max              =   4.3130364750644E+04
(PID.TID 0000.0001) %MON dynstat_eta_min              =  -9.2543846959607E+04
(PID.TID 0000.0001) %MON dynstat_eta_mean             =   1.3163581788986E-12
(PID.TID 0000.0001) %MON dynstat_eta_sd               =   3.9518138397077E+04
(PID.TID 0000.0001) %MON dynstat_eta_del2             =   2.1197762306365E+03
(PID.TID 0000.0001) %MON dynstat_uvel_max             =   1.6864670099473E-01
(PID.TID 0000.0001) %MON dynstat_uvel_min             =  -8.0148519784029E-02
(PID.TID 0000.0001) %MON dynstat_uvel_mean            =   1.7498623128412E-04
(PID.TID 0000.0001) %MON dynstat_uvel_sd              =   1.1516754667377E-02
(PID.TID 0000.0001) %MON dynstat_uvel_del2            =   8.8106140090959E-05
(PID.TID 0000.0001) %MON dynstat_vvel_max             =   9.0171689181540E-02
(PID.TID 0000.0001) %MON dynstat_vvel_min             =  -1.3248138496282E-01
(PID.TID 0000.0001) %MON dynstat_vvel_mean            =   1.2620568814033E-05
(PID.TID 0000.0001) %MON dynstat_vvel_sd              =   1.0963856746950E-02
(PID.TID 0000.0001) %MON dynstat_vvel_del2            =   1.1197962758643E-04
(PID.TID 0000.0001) %MON dynstat_wvel_max             =   2.5417835800544E+00
(PID.TID 0000.0001) %MON dynstat_wvel_min             =  -1.5095907185552E+00
(PID.TID 0000.0001) %MON dynstat_wvel_mean            =   2.1246825783464E-04
(PID.TID 0000.0001) %MON dynstat_wvel_sd              =   2.3537292471522E-01
(PID.TID 0000.0001) %MON dynstat_wvel_del2            =   3.1844961506857E-03
(PID.TID 0000.0001) %MON dynstat_theta_max            =   2.9976388202986E+01
(PID.TID 0000.0001) %MON dynstat_theta_min            =  -3.1177030756378E+00
(PID.TID 0000.0001) %MON dynstat_theta_mean           =   3.6035225367338E+00
(PID.TID 0000.0001) %MON dynstat_theta_sd             =   4.4026040889742E+00
(PID.TID 0000.0001) %MON dynstat_theta_del2           =   5.0071762881473E-03
(PID.TID 0000.0001) %MON dynstat_salt_max             =   3.7433056569814E+01
(PID.TID 0000.0001) %MON dynstat_salt_min             =   2.9770743817464E+01
(PID.TID 0000.0001) %MON dynstat_salt_mean            =   3.4718001177208E+01
(PID.TID 0000.0001) %MON dynstat_salt_sd              =   2.9440966224294E-01
(PID.TID 0000.0001) %MON dynstat_salt_del2            =   1.0325424032003E-03
(PID.TID 0000.0001) %MON forcing_qnet_max             =   4.2575218179855E+02
(PID.TID 0000.0001) %MON forcing_qnet_min             =  -1.9103782225161E+02
(PID.TID 0000.0001) %MON forcing_qnet_mean            =  -1.6050523244044E+01
(PID.TID 0000.0001) %MON forcing_qnet_sd              =   1.0504136369343E+02
(PID.TID 0000.0001) %MON forcing_qnet_del2            =   6.9794236533440E-01
(PID.TID 0000.0001) %MON forcing_qsw_max              =   0.0000000000000E+00
(PID.TID 0000.0001) %MON forcing_qsw_min              =   0.0000000000000E+00
(PID.TID 0000.0001) %MON forcing_qsw_mean             =   0.0000000000000E+00
(PID.TID 0000.0001) %MON forcing_qsw_sd               =   0.0000000000000E+00
(PID.TID 0000.0001) %MON forcing_qsw_del2             =   0.0000000000000E+00
(PID.TID 0000.0001) %MON forcing_empmr_max            =   5.2302461935749E-05
(PID.TID 0000.0001) %MON forcing_empmr_min            =  -1.3705199332603E-04
(PID.TID 0000.0001) %MON forcing_empmr_mean           =  -2.0432568138134E-22
(PID.TID 0000.0001) %MON forcing_empmr_sd             =   2.3550327612301E-05
(PID.TID 0000.0001) %MON forcing_empmr_del2           =   2.4956923451985E-07
(PID.TID 0000.0001) %MON forcing_fu_max               =   2.7827951307352E-01
(PID.TID 0000.0001) %MON forcing_fu_min               =  -1.8419379566072E-01
(PID.TID 0000.0001) %MON forcing_fu_mean              =   1.6681950667438E-02
(PID.TID 0000.0001) %MON forcing_fu_sd                =   9.0011085349644E-02
(PID.TID 0000.0001) %MON forcing_fu_del2              =   6.6256853162117E-04
(PID.TID 0000.0001) %MON forcing_fv_max               =   1.9782840103172E-01
(PID.TID 0000.0001) %MON forcing_fv_min               =  -1.6723260512150E-01
(PID.TID 0000.0001) %MON forcing_fv_mean              =  -5.9384820218404E-03
(PID.TID 0000.0001) %MON forcing_fv_sd                =   4.5463770378877E-02
(PID.TID 0000.0001) %MON forcing_fv_del2              =   4.4233489700273E-04
(PID.TID 0000.0001) %MON advcfl_uvel_max              =   1.0783263552410E-01
(PID.TID 0000.0001) %MON advcfl_vvel_max              =   5.1478016704622E-02
(PID.TID 0000.0001) %MON advcfl_wvel_max              =   1.3047507075734E-01
(PID.TID 0000.0001) %MON advcfl_W_hf_max              =   1.4772288140503E-01
(PID.TID 0000.0001) %MON pe_b_mean                    =  -7.9407207103509E-03
(PID.TID 0000.0001) %MON ke_max                       =   1.4723606355769E-02
(PID.TID 0000.0001) %MON ke_mean                      =   1.1396149735725E-04
(PID.TID 0000.0001) %MON ke_vol                       =   1.3442141716554E+22
(PID.TID 0000.0001) %MON vort_r_min                   =  -5.1424709245125E-07
(PID.TID 0000.0001) %MON vort_r_max                   =   4.6596758646723E-07
(PID.TID 0000.0001) %MON vort_a_mean                  =  -2.4531015083785E-05
(PID.TID 0000.0001) %MON vort_a_sd                    =   7.3436058762386E-05
(PID.TID 0000.0001) %MON vort_p_mean                  =  -2.9400455796267E-05
(PID.TID 0000.0001) %MON vort_p_sd                    =   1.0337495436585E-04
(PID.TID 0000.0001) %MON surfExpan_theta_mean         =   4.9185553254484E-04
(PID.TID 0000.0001) %MON surfExpan_salt_mean          =  -4.8026226283650E-05
(PID.TID 0000.0001) // =======================================================
(PID.TID 0000.0001) // End MONITOR dynamic field statistics
(PID.TID 0000.0001) // =======================================================
 EXTERNAL_FIELDS_LOAD,        14 : iP,iLd,i0,i1=    1    2    1    2 ; Wght=  0.5666666667  0.4333333333
 cg2d: Sum(rhs),rhsMax =   4.44089209850063E-16  1.72998525576594E+02
(PID.TID 0000.0001)                    cg2d_init_res =    2.55875705964639E-03
(PID.TID 0000.0001)                       cg2d_iters =    89
(PID.TID 0000.0001)                         cg2d_res =    8.26173445555557E-10
(PID.TID 0000.0001) // =======================================================
(PID.TID 0000.0001) // Begin MONITOR dynamic field statistics
(PID.TID 0000.0001) // =======================================================
(PID.TID 0000.0001) %MON time_tsnumber                =                    15
(PID.TID 0000.0001) %MON time_secondsf                =   2.5920000000000E+06
(PID.TID 0000.0001) %MON dynstat_eta_max              =   4.4277574432442E+04
(PID.TID 0000.0001) %MON dynstat_eta_min              =  -9.2733466066355E+04
(PID.TID 0000.0001) %MON dynstat_eta_mean             =  -4.8266466559617E-12
(PID.TID 0000.0001) %MON dynstat_eta_sd               =   3.9586755873696E+04
(PID.TID 0000.0001) %MON dynstat_eta_del2             =   2.1197357301310E+03
(PID.TID 0000.0001) %MON dynstat_uvel_max             =   1.7649601804069E-01
(PID.TID 0000.0001) %MON dynstat_uvel_min             =  -8.4708990631590E-02
(PID.TID 0000.0001) %MON dynstat_uvel_mean            =   1.8251591741598E-04
(PID.TID 0000.0001) %MON dynstat_uvel_sd              =   1.2446883600772E-02
(PID.TID 0000.0001) %MON dynstat_uvel_del2            =   9.1518724623501E-05
(PID.TID 0000.0001) %MON dynstat_vvel_max             =   8.8470221211007E-02
(PID.TID 0000.0001) %MON dynstat_vvel_min             =  -1.3287684539969E-01
(PID.TID 0000.0001) %MON dynstat_vvel_mean            =   3.2428147224816E-05
(PID.TID 0000.0001) %MON dynstat_vvel_sd              =   1.0900890335014E-02
(PID.TID 0000.0001) %MON dynstat_vvel_del2            =   1.1111851300739E-04
(PID.TID 0000.0001) %MON dynstat_wvel_max             =   2.6569992010386E+00
(PID.TID 0000.0001) %MON dynstat_wvel_min             =  -1.5542448349901E+00
(PID.TID 0000.0001) %MON dynstat_wvel_mean            =   1.2982717943903E-04
(PID.TID 0000.0001) %MON dynstat_wvel_sd              =   2.2947124519447E-01
(PID.TID 0000.0001) %MON dynstat_wvel_del2            =   3.1066409879101E-03
(PID.TID 0000.0001) %MON dynstat_theta_max            =   2.9989505634161E+01
(PID.TID 0000.0001) %MON dynstat_theta_min            =  -3.1632135130209E+00
(PID.TID 0000.0001) %MON dynstat_theta_mean           =   3.6036150279332E+00
(PID.TID 0000.0001) %MON dynstat_theta_sd             =   4.4028301123041E+00
(PID.TID 0000.0001) %MON dynstat_theta_del2           =   5.0161992865306E-03
(PID.TID 0000.0001) %MON dynstat_salt_max             =   3.7433071109445E+01
(PID.TID 0000.0001) %MON dynstat_salt_min             =   2.9769578913781E+01
(PID.TID 0000.0001) %MON dynstat_salt_mean            =   3.4718001143451E+01
(PID.TID 0000.0001) %MON dynstat_salt_sd              =   2.9440906675789E-01
(PID.TID 0000.0001) %MON dynstat_salt_del2            =   1.0351157036379E-03
(PID.TID 0000.0001) %MON forcing_qnet_max             =   4.2355146990978E+02
(PID.TID 0000.0001) %MON forcing_qnet_min             =  -1.8945330640064E+02
(PID.TID 0000.0001) %MON forcing_qnet_mean            =  -1.6167353017229E+01
(PID.TID 0000.0001) %MON forcing_qnet_sd              =   1.0302340493407E+02
(PID.TID 0000.0001) %MON forcing_qnet_del2            =   6.9172363822900E-01
(PID.TID 0000.0001) %MON forcing_qsw_max              =   0.0000000000000E+00
(PID.TID 0000.0001) %MON forcing_qsw_min              =   0.0000000000000E+00
(PID.TID 0000.0001) %MON forcing_qsw_mean             =   0.0000000000000E+00
(PID.TID 0000.0001) %MON forcing_qsw_sd               =   0.0000000000000E+00
(PID.TID 0000.0001) %MON forcing_qsw_del2             =   0.0000000000000E+00
(PID.TID 0000.0001) %MON forcing_empmr_max            =   5.2302461935749E-05
(PID.TID 0000.0001) %MON forcing_empmr_min            =  -1.3705199332603E-04
(PID.TID 0000.0001) %MON forcing_empmr_mean           =   0.0000000000000E+00
(PID.TID 0000.0001) %MON forcing_empmr_sd             =   2.3550327612301E-05
(PID.TID 0000.0001) %MON forcing_empmr_del2           =   2.4956923451985E-07
(PID.TID 0000.0001) %MON forcing_fu_max               =   2.8105382984197E-01
(PID.TID 0000.0001) %MON forcing_fu_min               =  -1.8751364363583E-01
(PID.TID 0000.0001) %MON forcing_fu_mean              =   1.6791825387739E-02
(PID.TID 0000.0001) %MON forcing_fu_sd                =   9.0036894955837E-02
(PID.TID 0000.0001) %MON forcing_fu_del2              =   6.6060922781266E-04
(PID.TID 0000.0001) %MON forcing_fv_max               =   1.9141846475999E-01
(PID.TID 0000.0001) %MON forcing_fv_min               =  -1.6525000562607E-01
(PID.TID 0000.0001) %MON forcing_fv_mean              =  -6.0705021467390E-03
(PID.TID 0000.0001) %MON forcing_fv_sd                =   4.5146829053665E-02
(PID.TID 0000.0001) %MON forcing_fv_del2              =   4.4154630056010E-04
(PID.TID 0000.0001) %MON advcfl_uvel_max              =   1.1200194702169E-01
(PID.TID 0000.0001) %MON advcfl_vvel_max              =   5.1631679945542E-02
(PID.TID 0000.0001) %MON advcfl_wvel_max              =   1.2301862586542E-01
(PID.TID 0000.0001) %MON advcfl_W_hf_max              =   1.3928075128716E-01
(PID.TID 0000.0001) %MON pe_b_mean                    =  -7.8117816815250E-03
(PID.TID 0000.0001) %MON ke_max                       =   1.5944316125949E-02
(PID.TID 0000.0001) %MON ke_mean                      =   1.2343967116266E-04
(PID.TID 0000.0001) %MON ke_vol                       =   1.3442141716554E+22
(PID.TID 0000.0001) %MON vort_r_min                   =  -4.9078317895200E-07
(PID.TID 0000.0001) %MON vort_r_max                   =   4.9939665103310E-07
(PID.TID 0000.0001) %MON vort_a_mean                  =  -2.4531015159691E-05
(PID.TID 0000.0001) %MON vort_a_sd                    =   7.3436055895950E-05
(PID.TID 0000.0001) %MON vort_p_mean                  =  -2.9400485725494E-05
(PID.TID 0000.0001) %MON vort_p_sd                    =   1.0337537900534E-04
(PID.TID 0000.0001) %MON surfExpan_theta_mean         =   9.4219990148027E-04
(PID.TID 0000.0001) %MON surfExpan_salt_mean          =  -2.2425070718080E-05
(PID.TID 0000.0001) // =======================================================
(PID.TID 0000.0001) // End MONITOR dynamic field statistics
(PID.TID 0000.0001) // =======================================================
 EXTERNAL_FIELDS_LOAD,        15 : iP,iLd,i0,i1=    1    2    1    2 ; Wght=  0.5000000000  0.5000000000
 cg2d: Sum(rhs),rhsMax =  -2.35922392732846E-15  1.72995996144334E+02
(PID.TID 0000.0001)                    cg2d_init_res =    2.45004698869639E-03
(PID.TID 0000.0001)                       cg2d_iters =    89
(PID.TID 0000.0001)                         cg2d_res =    7.72745229701688E-10
(PID.TID 0000.0001) // =======================================================
(PID.TID 0000.0001) // Begin MONITOR dynamic field statistics
(PID.TID 0000.0001) // =======================================================
(PID.TID 0000.0001) %MON time_tsnumber                =                    16
(PID.TID 0000.0001) %MON time_secondsf                =   2.7648000000000E+06
(PID.TID 0000.0001) %MON dynstat_eta_max              =   4.6794299028686E+04
(PID.TID 0000.0001) %MON dynstat_eta_min              =  -9.2852416876181E+04
(PID.TID 0000.0001) %MON dynstat_eta_mean             =  -4.3878605963288E-13
(PID.TID 0000.0001) %MON dynstat_eta_sd               =   3.9659553357794E+04
(PID.TID 0000.0001) %MON dynstat_eta_del2             =   2.1196853492197E+03
(PID.TID 0000.0001) %MON dynstat_uvel_max             =   1.8361114026434E-01
(PID.TID 0000.0001) %MON dynstat_uvel_min             =  -8.7967535529176E-02
(PID.TID 0000.0001) %MON dynstat_uvel_mean            =   2.4711622926010E-04
(PID.TID 0000.0001) %MON dynstat_uvel_sd              =   1.3322468337737E-02
(PID.TID 0000.0001) %MON dynstat_uvel_del2            =   9.5074604704744E-05
(PID.TID 0000.0001) %MON dynstat_vvel_max             =   8.9027606098540E-02
(PID.TID 0000.0001) %MON dynstat_vvel_min             =  -1.3178403249439E-01
(PID.TID 0000.0001) %MON dynstat_vvel_mean            =   1.7451897293291E-05
(PID.TID 0000.0001) %MON dynstat_vvel_sd              =   1.0756592598236E-02
(PID.TID 0000.0001) %MON dynstat_vvel_del2            =   1.0975776280952E-04
(PID.TID 0000.0001) %MON dynstat_wvel_max             =   2.7624250869624E+00
(PID.TID 0000.0001) %MON dynstat_wvel_min             =  -1.5762312099995E+00
(PID.TID 0000.0001) %MON dynstat_wvel_mean            =   6.7144133975577E-05
(PID.TID 0000.0001) %MON dynstat_wvel_sd              =   2.2284498616064E-01
(PID.TID 0000.0001) %MON dynstat_wvel_del2            =   3.0318507233779E-03
(PID.TID 0000.0001) %MON dynstat_theta_max            =   2.9997892395145E+01
(PID.TID 0000.0001) %MON dynstat_theta_min            =  -3.2040634103631E+00
(PID.TID 0000.0001) %MON dynstat_theta_mean           =   3.6037082262600E+00
(PID.TID 0000.0001) %MON dynstat_theta_sd             =   4.4030768987016E+00
(PID.TID 0000.0001) %MON dynstat_theta_del2           =   5.0264547691359E-03
(PID.TID 0000.0001) %MON dynstat_salt_max             =   3.7433209326110E+01
(PID.TID 0000.0001) %MON dynstat_salt_min             =   2.9768401785648E+01
(PID.TID 0000.0001) %MON dynstat_salt_mean            =   3.4718001075426E+01
(PID.TID 0000.0001) %MON dynstat_salt_sd              =   2.9441188062390E-01
(PID.TID 0000.0001) %MON dynstat_salt_del2            =   1.0377381573603E-03
(PID.TID 0000.0001) %MON forcing_qnet_max             =   4.2135075802102E+02
(PID.TID 0000.0001) %MON forcing_qnet_min             =  -1.8786879054966E+02
(PID.TID 0000.0001) %MON forcing_qnet_mean            =  -1.6284182790414E+01
(PID.TID 0000.0001) %MON forcing_qnet_sd              =   1.0109275077866E+02
(PID.TID 0000.0001) %MON forcing_qnet_del2            =   6.8738031584655E-01
(PID.TID 0000.0001) %MON forcing_qsw_max              =   0.0000000000000E+00
(PID.TID 0000.0001) %MON forcing_qsw_min              =   0.0000000000000E+00
(PID.TID 0000.0001) %MON forcing_qsw_mean             =   0.0000000000000E+00
(PID.TID 0000.0001) %MON forcing_qsw_sd               =   0.0000000000000E+00
(PID.TID 0000.0001) %MON forcing_qsw_del2             =   0.0000000000000E+00
(PID.TID 0000.0001) %MON forcing_empmr_max            =   5.2302461935749E-05
(PID.TID 0000.0001) %MON forcing_empmr_min            =  -1.3705199332603E-04
(PID.TID 0000.0001) %MON forcing_empmr_mean           =   0.0000000000000E+00
(PID.TID 0000.0001) %MON forcing_empmr_sd             =   2.3550327612301E-05
(PID.TID 0000.0001) %MON forcing_empmr_del2           =   2.4956923451985E-07
(PID.TID 0000.0001) %MON forcing_fu_max               =   2.8382814661043E-01
(PID.TID 0000.0001) %MON forcing_fu_min               =  -1.9083349161093E-01
(PID.TID 0000.0001) %MON forcing_fu_mean              =   1.6901700108040E-02
(PID.TID 0000.0001) %MON forcing_fu_sd                =   9.0133087001675E-02
(PID.TID 0000.0001) %MON forcing_fu_del2              =   6.6118948040277E-04
(PID.TID 0000.0001) %MON forcing_fv_max               =   1.8921542366079E-01
(PID.TID 0000.0001) %MON forcing_fv_min               =  -1.6326740613065E-01
(PID.TID 0000.0001) %MON forcing_fv_mean              =  -6.2025222716376E-03
(PID.TID 0000.0001) %MON forcing_fv_sd                =   4.4891639796661E-02
(PID.TID 0000.0001) %MON forcing_fv_del2              =   4.4292866492091E-04
(PID.TID 0000.0001) %MON advcfl_uvel_max              =   1.1531558892446E-01
(PID.TID 0000.0001) %MON advcfl_vvel_max              =   5.1207047903767E-02
(PID.TID 0000.0001) %MON advcfl_wvel_max              =   1.1296465572923E-01
(PID.TID 0000.0001) %MON advcfl_W_hf_max              =   1.2789772287063E-01
(PID.TID 0000.0001) %MON pe_b_mean                    =  -7.7299966236433E-03
(PID.TID 0000.0001) %MON ke_max                       =   1.7054210367176E-02
(PID.TID 0000.0001) %MON ke_mean                      =   1.3226873879157E-04
(PID.TID 0000.0001) %MON ke_vol                       =   1.3442141716554E+22
(PID.TID 0000.0001) %MON vort_r_min                   =  -4.8621916522908E-07
(PID.TID 0000.0001) %MON vort_r_max                   =   5.2699566630670E-07
(PID.TID 0000.0001) %MON vort_a_mean                  =  -2.4531015285165E-05
(PID.TID 0000.0001) %MON vort_a_sd                    =   7.3436065590494E-05
(PID.TID 0000.0001) %MON vort_p_mean                  =  -2.9400527430303E-05
(PID.TID 0000.0001) %MON vort_p_sd                    =   1.0337585330292E-04
(PID.TID 0000.0001) %MON surfExpan_theta_mean         =   8.6645305222138E-04
(PID.TID 0000.0001) %MON surfExpan_salt_mean          =   1.2430853194692E-05
(PID.TID 0000.0001) // =======================================================
(PID.TID 0000.0001) // End MONITOR dynamic field statistics
(PID.TID 0000.0001) // =======================================================
 EXTERNAL_FIELDS_LOAD,        16 : iP,iLd,i0,i1=    1    2    1    2 ; Wght=  0.4333333333  0.5666666667
 cg2d: Sum(rhs),rhsMax =  -1.74860126378462E-15  1.72993040295168E+02
(PID.TID 0000.0001)                    cg2d_init_res =    2.30541981419985E-03
(PID.TID 0000.0001)                       cg2d_iters =    86
(PID.TID 0000.0001)                         cg2d_res =    9.81689682095105E-10
(PID.TID 0000.0001) // =======================================================
(PID.TID 0000.0001) // Begin MONITOR dynamic field statistics
(PID.TID 0000.0001) // =======================================================
(PID.TID 0000.0001) %MON time_tsnumber                =                    17
(PID.TID 0000.0001) %MON time_secondsf                =   2.9376000000000E+06
(PID.TID 0000.0001) %MON dynstat_eta_max              =   4.8397719251057E+04
(PID.TID 0000.0001) %MON dynstat_eta_min              =  -9.2898655793988E+04
(PID.TID 0000.0001) %MON dynstat_eta_mean             =  -2.6327163577973E-12
(PID.TID 0000.0001) %MON dynstat_eta_sd               =   3.9709954530359E+04
(PID.TID 0000.0001) %MON dynstat_eta_del2             =   2.1196290883038E+03
(PID.TID 0000.0001) %MON dynstat_uvel_max             =   1.9111359451585E-01
(PID.TID 0000.0001) %MON dynstat_uvel_min             =  -9.0955559872346E-02
(PID.TID 0000.0001) %MON dynstat_uvel_mean            =   3.4889385504755E-04
(PID.TID 0000.0001) %MON dynstat_uvel_sd              =   1.4133155660106E-02
(PID.TID 0000.0001) %MON dynstat_uvel_del2            =   9.8728383150427E-05
(PID.TID 0000.0001) %MON dynstat_vvel_max             =   9.2079680437937E-02
(PID.TID 0000.0001) %MON dynstat_vvel_min             =  -1.2922148250732E-01
(PID.TID 0000.0001) %MON dynstat_vvel_mean            =  -1.5116151857382E-05
(PID.TID 0000.0001) %MON dynstat_vvel_sd              =   1.0551701825067E-02
(PID.TID 0000.0001) %MON dynstat_vvel_del2            =   1.0813183529591E-04
(PID.TID 0000.0001) %MON dynstat_wvel_max             =   2.8571726156982E+00
(PID.TID 0000.0001) %MON dynstat_wvel_min             =  -1.5799271942628E+00
(PID.TID 0000.0001) %MON dynstat_wvel_mean            =   2.3401815479991E-05
(PID.TID 0000.0001) %MON dynstat_wvel_sd              =   2.1606712651353E-01
(PID.TID 0000.0001) %MON dynstat_wvel_del2            =   2.9658161310931E-03
(PID.TID 0000.0001) %MON dynstat_theta_max            =   3.0001531395318E+01
(PID.TID 0000.0001) %MON dynstat_theta_min            =  -3.2403188850181E+00
(PID.TID 0000.0001) %MON dynstat_theta_mean           =   3.6038022300909E+00
(PID.TID 0000.0001) %MON dynstat_theta_sd             =   4.4033400385317E+00
(PID.TID 0000.0001) %MON dynstat_theta_del2           =   5.0356736190727E-03
(PID.TID 0000.0001) %MON dynstat_salt_max             =   3.7433482269441E+01
(PID.TID 0000.0001) %MON dynstat_salt_min             =   2.9767147215341E+01
(PID.TID 0000.0001) %MON dynstat_salt_mean            =   3.4718000982809E+01
(PID.TID 0000.0001) %MON dynstat_salt_sd              =   2.9441314758511E-01
(PID.TID 0000.0001) %MON dynstat_salt_del2            =   1.0412140219728E-03
(PID.TID 0000.0001) %MON forcing_qnet_max             =   4.1915004613225E+02
(PID.TID 0000.0001) %MON forcing_qnet_min             =  -1.8628427469869E+02
(PID.TID 0000.0001) %MON forcing_qnet_mean            =  -1.6401012563599E+01
(PID.TID 0000.0001) %MON forcing_qnet_sd              =   9.9254495988507E+01
(PID.TID 0000.0001) %MON forcing_qnet_del2            =   6.8494807548763E-01
(PID.TID 0000.0001) %MON forcing_qsw_max              =   0.0000000000000E+00
(PID.TID 0000.0001) %MON forcing_qsw_min              =   0.0000000000000E+00
(PID.TID 0000.0001) %MON forcing_qsw_mean             =   0.0000000000000E+00
(PID.TID 0000.0001) %MON forcing_qsw_sd               =   0.0000000000000E+00
(PID.TID 0000.0001) %MON forcing_qsw_del2             =   0.0000000000000E+00
(PID.TID 0000.0001) %MON forcing_empmr_max            =   5.2302461935749E-05
(PID.TID 0000.0001) %MON forcing_empmr_min            =  -1.3705199332603E-04
(PID.TID 0000.0001) %MON forcing_empmr_mean           =   0.0000000000000E+00
(PID.TID 0000.0001) %MON forcing_empmr_sd             =   2.3550327612301E-05
(PID.TID 0000.0001) %MON forcing_empmr_del2           =   2.4956923451985E-07
(PID.TID 0000.0001) %MON forcing_fu_max               =   2.8660246337888E-01
(PID.TID 0000.0001) %MON forcing_fu_min               =  -1.9415333958603E-01
(PID.TID 0000.0001) %MON forcing_fu_mean              =   1.7011574828341E-02
(PID.TID 0000.0001) %MON forcing_fu_sd                =   9.0299436561422E-02
(PID.TID 0000.0001) %MON forcing_fu_del2              =   6.6430263469806E-04
(PID.TID 0000.0001) %MON forcing_fv_max               =   1.8701238256158E-01
(PID.TID 0000.0001) %MON forcing_fv_min               =  -1.6128480663522E-01
(PID.TID 0000.0001) %MON forcing_fv_mean              =  -6.3345423965362E-03
(PID.TID 0000.0001) %MON forcing_fv_sd                =   4.4699260252941E-02
(PID.TID 0000.0001) %MON forcing_fv_del2              =   4.4646182492720E-04
(PID.TID 0000.0001) %MON advcfl_uvel_max              =   1.1859138147004E-01
(PID.TID 0000.0001) %MON advcfl_vvel_max              =   5.0211323175514E-02
(PID.TID 0000.0001) %MON advcfl_wvel_max              =   1.0050714959453E-01
(PID.TID 0000.0001) %MON advcfl_W_hf_max              =   1.1379342930209E-01
(PID.TID 0000.0001) %MON pe_b_mean                    =  -7.7031465202483E-03
(PID.TID 0000.0001) %MON ke_max                       =   1.8043054247354E-02
(PID.TID 0000.0001) %MON ke_mean                      =   1.4041854649900E-04
(PID.TID 0000.0001) %MON ke_vol                       =   1.3442141716554E+22
(PID.TID 0000.0001) %MON vort_r_min                   =  -5.1068960162805E-07
(PID.TID 0000.0001) %MON vort_r_max                   =   5.4894025139006E-07
(PID.TID 0000.0001) %MON vort_a_mean                  =  -2.4531015432005E-05
(PID.TID 0000.0001) %MON vort_a_sd                    =   7.3436083530625E-05
(PID.TID 0000.0001) %MON vort_p_mean                  =  -2.9400569150538E-05
(PID.TID 0000.0001) %MON vort_p_sd                    =   1.0337625314508E-04
(PID.TID 0000.0001) %MON surfExpan_theta_mean         =   4.6692497530314E-04
(PID.TID 0000.0001) %MON surfExpan_salt_mean          =   5.0668654711534E-05
(PID.TID 0000.0001) // =======================================================
(PID.TID 0000.0001) // End MONITOR dynamic field statistics
(PID.TID 0000.0001) // =======================================================
 EXTERNAL_FIELDS_LOAD,        17 : iP,iLd,i0,i1=    1    2    1    2 ; Wght=  0.3666666667  0.6333333333
 cg2d: Sum(rhs),rhsMax =   8.32667268468867E-16  1.72989785408649E+02
(PID.TID 0000.0001)                    cg2d_init_res =    2.20659133908641E-03
(PID.TID 0000.0001)                       cg2d_iters =    84
(PID.TID 0000.0001)                         cg2d_res =    8.42517639327643E-10
(PID.TID 0000.0001) // =======================================================
(PID.TID 0000.0001) // Begin MONITOR dynamic field statistics
(PID.TID 0000.0001) // =======================================================
(PID.TID 0000.0001) %MON time_tsnumber                =                    18
(PID.TID 0000.0001) %MON time_secondsf                =   3.1104000000000E+06
(PID.TID 0000.0001) %MON dynstat_eta_max              =   4.8839817009393E+04
(PID.TID 0000.0001) %MON dynstat_eta_min              =  -9.2835080836909E+04
(PID.TID 0000.0001) %MON dynstat_eta_mean             =  -1.3163581788986E-12
(PID.TID 0000.0001) %MON dynstat_eta_sd               =   3.9723825156521E+04
(PID.TID 0000.0001) %MON dynstat_eta_del2             =   2.1195714327379E+03
(PID.TID 0000.0001) %MON dynstat_uvel_max             =   1.9708018912128E-01
(PID.TID 0000.0001) %MON dynstat_uvel_min             =  -9.4855486097579E-02
(PID.TID 0000.0001) %MON dynstat_uvel_mean            =   4.6344978609647E-04
(PID.TID 0000.0001) %MON dynstat_uvel_sd              =   1.4870027677148E-02
(PID.TID 0000.0001) %MON dynstat_uvel_del2            =   1.0240031138437E-04
(PID.TID 0000.0001) %MON dynstat_vvel_max             =   9.4660579575925E-02
(PID.TID 0000.0001) %MON dynstat_vvel_min             =  -1.2522698191642E-01
(PID.TID 0000.0001) %MON dynstat_vvel_mean            =  -4.6962124677754E-05
(PID.TID 0000.0001) %MON dynstat_vvel_sd              =   1.0309653638541E-02
(PID.TID 0000.0001) %MON dynstat_vvel_del2            =   1.0646924857228E-04
(PID.TID 0000.0001) %MON dynstat_wvel_max             =   2.9402434425779E+00
(PID.TID 0000.0001) %MON dynstat_wvel_min             =  -1.6420987954896E+00
(PID.TID 0000.0001) %MON dynstat_wvel_mean            =  -8.0130483167689E-06
(PID.TID 0000.0001) %MON dynstat_wvel_sd              =   2.0968119392035E-01
(PID.TID 0000.0001) %MON dynstat_wvel_del2            =   2.9128071158909E-03
(PID.TID 0000.0001) %MON dynstat_theta_max            =   3.0000394314696E+01
(PID.TID 0000.0001) %MON dynstat_theta_min            =  -3.2720402222281E+00
(PID.TID 0000.0001) %MON dynstat_theta_mean           =   3.6038970100573E+00
(PID.TID 0000.0001) %MON dynstat_theta_sd             =   4.4036219583095E+00
(PID.TID 0000.0001) %MON dynstat_theta_del2           =   5.0425375583737E-03
(PID.TID 0000.0001) %MON dynstat_salt_max             =   3.7433893381565E+01
(PID.TID 0000.0001) %MON dynstat_salt_min             =   2.9765762921999E+01
(PID.TID 0000.0001) %MON dynstat_salt_mean            =   3.4718000881206E+01
(PID.TID 0000.0001) %MON dynstat_salt_sd              =   2.9441345464010E-01
(PID.TID 0000.0001) %MON dynstat_salt_del2            =   1.0434783303631E-03
(PID.TID 0000.0001) %MON forcing_qnet_max             =   4.1694933424348E+02
(PID.TID 0000.0001) %MON forcing_qnet_min             =  -1.8469975884772E+02
(PID.TID 0000.0001) %MON forcing_qnet_mean            =  -1.6517842336784E+01
(PID.TID 0000.0001) %MON forcing_qnet_sd              =   9.7513866224350E+01
(PID.TID 0000.0001) %MON forcing_qnet_del2            =   6.8444729102208E-01
(PID.TID 0000.0001) %MON forcing_qsw_max              =   0.0000000000000E+00
(PID.TID 0000.0001) %MON forcing_qsw_min              =   0.0000000000000E+00
(PID.TID 0000.0001) %MON forcing_qsw_mean             =   0.0000000000000E+00
(PID.TID 0000.0001) %MON forcing_qsw_sd               =   0.0000000000000E+00
(PID.TID 0000.0001) %MON forcing_qsw_del2             =   0.0000000000000E+00
(PID.TID 0000.0001) %MON forcing_empmr_max            =   5.2302461935749E-05
(PID.TID 0000.0001) %MON forcing_empmr_min            =  -1.3705199332603E-04
(PID.TID 0000.0001) %MON forcing_empmr_mean           =   0.0000000000000E+00
(PID.TID 0000.0001) %MON forcing_empmr_sd             =   2.3550327612301E-05
(PID.TID 0000.0001) %MON forcing_empmr_del2           =   2.4956923451985E-07
(PID.TID 0000.0001) %MON forcing_fu_max               =   2.8937678014733E-01
(PID.TID 0000.0001) %MON forcing_fu_min               =  -1.9747318756114E-01
(PID.TID 0000.0001) %MON forcing_fu_mean              =   1.7121449548642E-02
(PID.TID 0000.0001) %MON forcing_fu_sd                =   9.0535556914754E-02
(PID.TID 0000.0001) %MON forcing_fu_del2              =   6.6991337968855E-04
(PID.TID 0000.0001) %MON forcing_fv_max               =   1.8480934146237E-01
(PID.TID 0000.0001) %MON forcing_fv_min               =  -1.6478836967949E-01
(PID.TID 0000.0001) %MON forcing_fv_mean              =  -6.4665625214348E-03
(PID.TID 0000.0001) %MON forcing_fv_sd                =   4.4570503746109E-02
(PID.TID 0000.0001) %MON forcing_fv_del2              =   4.5209535749048E-04
(PID.TID 0000.0001) %MON advcfl_uvel_max              =   1.2349595683480E-01
(PID.TID 0000.0001) %MON advcfl_vvel_max              =   4.8659188374064E-02
(PID.TID 0000.0001) %MON advcfl_wvel_max              =   9.8317240327810E-02
(PID.TID 0000.0001) %MON advcfl_W_hf_max              =   1.0807620974071E-01
(PID.TID 0000.0001) %MON pe_b_mean                    =  -7.7317501923383E-03
(PID.TID 0000.0001) %MON ke_max                       =   1.8905522520305E-02
(PID.TID 0000.0001) %MON ke_mean                      =   1.4787619166955E-04
(PID.TID 0000.0001) %MON ke_vol                       =   1.3442141716554E+22
(PID.TID 0000.0001) %MON vort_r_min                   =  -5.3045929837417E-07
(PID.TID 0000.0001) %MON vort_r_max                   =   5.6585759309922E-07
(PID.TID 0000.0001) %MON vort_a_mean                  =  -2.4531015571304E-05
(PID.TID 0000.0001) %MON vort_a_sd                    =   7.3436104378931E-05
(PID.TID 0000.0001) %MON vort_p_mean                  =  -2.9400602151547E-05
(PID.TID 0000.0001) %MON vort_p_sd                    =   1.0337650145789E-04
(PID.TID 0000.0001) %MON surfExpan_theta_mean         =  -1.2997663151447E-05
(PID.TID 0000.0001) %MON surfExpan_salt_mean          =   8.5236863285294E-05
(PID.TID 0000.0001) // =======================================================
(PID.TID 0000.0001) // End MONITOR dynamic field statistics
(PID.TID 0000.0001) // =======================================================
 EXTERNAL_FIELDS_LOAD,        18 : iP,iLd,i0,i1=    1    2    1    2 ; Wght=  0.3000000000  0.7000000000
 cg2d: Sum(rhs),rhsMax =   1.74860126378462E-15  1.72986070263667E+02
(PID.TID 0000.0001)                    cg2d_init_res =    2.18087518554639E-03
(PID.TID 0000.0001)                       cg2d_iters =    87
(PID.TID 0000.0001)                         cg2d_res =    8.56315850239725E-10
(PID.TID 0000.0001) // =======================================================
(PID.TID 0000.0001) // Begin MONITOR dynamic field statistics
(PID.TID 0000.0001) // =======================================================
(PID.TID 0000.0001) %MON time_tsnumber                =                    19
(PID.TID 0000.0001) %MON time_secondsf                =   3.2832000000000E+06
(PID.TID 0000.0001) %MON dynstat_eta_max              =   4.8229255494397E+04
(PID.TID 0000.0001) %MON dynstat_eta_min              =  -9.2711945180055E+04
(PID.TID 0000.0001) %MON dynstat_eta_mean             =   7.0205769541261E-12
(PID.TID 0000.0001) %MON dynstat_eta_sd               =   3.9703058945038E+04
(PID.TID 0000.0001) %MON dynstat_eta_del2             =   2.1195162647664E+03
(PID.TID 0000.0001) %MON dynstat_uvel_max             =   2.0143409902444E-01
(PID.TID 0000.0001) %MON dynstat_uvel_min             =  -9.8242369645744E-02
(PID.TID 0000.0001) %MON dynstat_uvel_mean            =   5.6898344433046E-04
(PID.TID 0000.0001) %MON dynstat_uvel_sd              =   1.5524123743352E-02
(PID.TID 0000.0001) %MON dynstat_uvel_del2            =   1.0598762408453E-04
(PID.TID 0000.0001) %MON dynstat_vvel_max             =   9.6793845918059E-02
(PID.TID 0000.0001) %MON dynstat_vvel_min             =  -1.1986427084736E-01
(PID.TID 0000.0001) %MON dynstat_vvel_mean            =  -6.3744025164410E-05
(PID.TID 0000.0001) %MON dynstat_vvel_sd              =   1.0055315202828E-02
(PID.TID 0000.0001) %MON dynstat_vvel_del2            =   1.0497771956111E-04
(PID.TID 0000.0001) %MON dynstat_wvel_max             =   3.0108154859319E+00
(PID.TID 0000.0001) %MON dynstat_wvel_min             =  -1.7722309069805E+00
(PID.TID 0000.0001) %MON dynstat_wvel_mean            =  -3.4923370455944E-05
(PID.TID 0000.0001) %MON dynstat_wvel_sd              =   2.0414866433039E-01
(PID.TID 0000.0001) %MON dynstat_wvel_del2            =   2.8755573853805E-03
(PID.TID 0000.0001) %MON dynstat_theta_max            =   2.9994454183810E+01
(PID.TID 0000.0001) %MON dynstat_theta_min            =  -3.2992807797786E+00
(PID.TID 0000.0001) %MON dynstat_theta_mean           =   3.6039931384369E+00
(PID.TID 0000.0001) %MON dynstat_theta_sd             =   4.4039234395689E+00
(PID.TID 0000.0001) %MON dynstat_theta_del2           =   5.0486178632094E-03
(PID.TID 0000.0001) %MON dynstat_salt_max             =   3.7434438353353E+01
(PID.TID 0000.0001) %MON dynstat_salt_min             =   2.9764219328553E+01
(PID.TID 0000.0001) %MON dynstat_salt_mean            =   3.4718000789353E+01
(PID.TID 0000.0001) %MON dynstat_salt_sd              =   2.9441505642340E-01
(PID.TID 0000.0001) %MON dynstat_salt_del2            =   1.0460287554554E-03
(PID.TID 0000.0001) %MON forcing_qnet_max             =   4.1474862235472E+02
(PID.TID 0000.0001) %MON forcing_qnet_min             =  -1.8311524299675E+02
(PID.TID 0000.0001) %MON forcing_qnet_mean            =  -1.6634672109969E+01
(PID.TID 0000.0001) %MON forcing_qnet_sd              =   9.5876178773768E+01
(PID.TID 0000.0001) %MON forcing_qnet_del2            =   6.8588219311561E-01
(PID.TID 0000.0001) %MON forcing_qsw_max              =   0.0000000000000E+00
(PID.TID 0000.0001) %MON forcing_qsw_min              =   0.0000000000000E+00
(PID.TID 0000.0001) %MON forcing_qsw_mean             =   0.0000000000000E+00
(PID.TID 0000.0001) %MON forcing_qsw_sd               =   0.0000000000000E+00
(PID.TID 0000.0001) %MON forcing_qsw_del2             =   0.0000000000000E+00
(PID.TID 0000.0001) %MON forcing_empmr_max            =   5.2302461935749E-05
(PID.TID 0000.0001) %MON forcing_empmr_min            =  -1.3705199332603E-04
(PID.TID 0000.0001) %MON forcing_empmr_mean           =   2.0432568138134E-22
(PID.TID 0000.0001) %MON forcing_empmr_sd             =   2.3550327612301E-05
(PID.TID 0000.0001) %MON forcing_empmr_del2           =   2.4956923451985E-07
(PID.TID 0000.0001) %MON forcing_fu_max               =   2.9215109691579E-01
(PID.TID 0000.0001) %MON forcing_fu_min               =  -2.0079303553624E-01
(PID.TID 0000.0001) %MON forcing_fu_mean              =   1.7231324268943E-02
(PID.TID 0000.0001) %MON forcing_fu_sd                =   9.0840904003179E-02
(PID.TID 0000.0001) %MON forcing_fu_del2              =   6.7795970857576E-04
(PID.TID 0000.0001) %MON forcing_fv_max               =   1.8260630036316E-01
(PID.TID 0000.0001) %MON forcing_fv_min               =  -1.7113216759969E-01
(PID.TID 0000.0001) %MON forcing_fv_mean              =  -6.5985826463334E-03
(PID.TID 0000.0001) %MON forcing_fv_sd                =   4.4505922467671E-02
(PID.TID 0000.0001) %MON forcing_fv_del2              =   4.5975205888607E-04
(PID.TID 0000.0001) %MON advcfl_uvel_max              =   1.2720730995222E-01
(PID.TID 0000.0001) %MON advcfl_vvel_max              =   4.6575410867716E-02
(PID.TID 0000.0001) %MON advcfl_wvel_max              =   9.7950376644385E-02
(PID.TID 0000.0001) %MON advcfl_W_hf_max              =   1.1349118508960E-01
(PID.TID 0000.0001) %MON pe_b_mean                    =  -7.8069176311993E-03
(PID.TID 0000.0001) %MON ke_max                       =   1.9639326692841E-02
(PID.TID 0000.0001) %MON ke_mean                      =   1.5460752762143E-04
(PID.TID 0000.0001) %MON ke_vol                       =   1.3442141716554E+22
(PID.TID 0000.0001) %MON vort_r_min                   =  -5.4517048379917E-07
(PID.TID 0000.0001) %MON vort_r_max                   =   5.7854527199631E-07
(PID.TID 0000.0001) %MON vort_a_mean                  =  -2.4531015679438E-05
(PID.TID 0000.0001) %MON vort_a_sd                    =   7.3436123363363E-05
(PID.TID 0000.0001) %MON vort_p_mean                  =  -2.9400621949396E-05
(PID.TID 0000.0001) %MON vort_p_sd                    =   1.0337655970645E-04
(PID.TID 0000.0001) %MON surfExpan_theta_mean         =  -3.6191614579289E-04
(PID.TID 0000.0001) %MON surfExpan_salt_mean          =   1.1057521290135E-04
(PID.TID 0000.0001) // =======================================================
(PID.TID 0000.0001) // End MONITOR dynamic field statistics
(PID.TID 0000.0001) // =======================================================
 EXTERNAL_FIELDS_LOAD,        19 : iP,iLd,i0,i1=    1    2    1    2 ; Wght=  0.2333333333  0.7666666667
 cg2d: Sum(rhs),rhsMax =  -9.43689570931383E-16  1.72981576382062E+02
(PID.TID 0000.0001)                    cg2d_init_res =    2.20692112416049E-03
(PID.TID 0000.0001)                       cg2d_iters =    88
(PID.TID 0000.0001)                         cg2d_res =    8.51142928391881E-10
(PID.TID 0000.0001) // =======================================================
(PID.TID 0000.0001) // Begin MONITOR dynamic field statistics
(PID.TID 0000.0001) // =======================================================
(PID.TID 0000.0001) %MON time_tsnumber                =                    20
(PID.TID 0000.0001) %MON time_secondsf                =   3.4560000000000E+06
(PID.TID 0000.0001) %MON dynstat_eta_max              =   4.6923775421179E+04
(PID.TID 0000.0001) %MON dynstat_eta_min              =  -9.2591310232444E+04
(PID.TID 0000.0001) %MON dynstat_eta_mean             =   3.0715024174302E-12
(PID.TID 0000.0001) %MON dynstat_eta_sd               =   3.9661606258471E+04
(PID.TID 0000.0001) %MON dynstat_eta_del2             =   2.1194669912522E+03
(PID.TID 0000.0001) %MON dynstat_uvel_max             =   2.0411955512146E-01
(PID.TID 0000.0001) %MON dynstat_uvel_min             =  -1.0098882376263E-01
(PID.TID 0000.0001) %MON dynstat_uvel_mean            =   6.5111747007390E-04
(PID.TID 0000.0001) %MON dynstat_uvel_sd              =   1.6086618389818E-02
(PID.TID 0000.0001) %MON dynstat_uvel_del2            =   1.0938158445254E-04
(PID.TID 0000.0001) %MON dynstat_vvel_max             =   9.8623843411217E-02
(PID.TID 0000.0001) %MON dynstat_vvel_min             =  -1.1322676384804E-01
(PID.TID 0000.0001) %MON dynstat_vvel_mean            =  -5.8074164043240E-05
(PID.TID 0000.0001) %MON dynstat_vvel_sd              =   9.8138400130237E-03
(PID.TID 0000.0001) %MON dynstat_vvel_del2            =   1.0382551189047E-04
(PID.TID 0000.0001) %MON dynstat_wvel_max             =   3.0683929862433E+00
(PID.TID 0000.0001) %MON dynstat_wvel_min             =  -1.8892977039717E+00
(PID.TID 0000.0001) %MON dynstat_wvel_mean            =  -6.2876738044941E-05
(PID.TID 0000.0001) %MON dynstat_wvel_sd              =   1.9980550005949E-01
(PID.TID 0000.0001) %MON dynstat_wvel_del2            =   2.8548629323602E-03
(PID.TID 0000.0001) %MON dynstat_theta_max            =   2.9983694725562E+01
(PID.TID 0000.0001) %MON dynstat_theta_min            =  -3.3220891365712E+00
(PID.TID 0000.0001) %MON dynstat_theta_mean           =   3.6040905547514E+00
(PID.TID 0000.0001) %MON dynstat_theta_sd             =   4.4042447930890E+00
(PID.TID 0000.0001) %MON dynstat_theta_del2           =   5.0485219526740E-03
(PID.TID 0000.0001) %MON dynstat_salt_max             =   3.7435309712600E+01
(PID.TID 0000.0001) %MON dynstat_salt_min             =   2.9762513538896E+01
(PID.TID 0000.0001) %MON dynstat_salt_mean            =   3.4718000722026E+01
(PID.TID 0000.0001) %MON dynstat_salt_sd              =   2.9441572937762E-01
(PID.TID 0000.0001) %MON dynstat_salt_del2            =   1.0479048478878E-03
(PID.TID 0000.0001) %MON forcing_qnet_max             =   4.1262853656621E+02
(PID.TID 0000.0001) %MON forcing_qnet_min             =  -1.8377875812820E+02
(PID.TID 0000.0001) %MON forcing_qnet_mean            =  -1.6751501883154E+01
(PID.TID 0000.0001) %MON forcing_qnet_sd              =   9.4346794458794E+01
(PID.TID 0000.0001) %MON forcing_qnet_del2            =   6.8924069239349E-01
(PID.TID 0000.0001) %MON forcing_qsw_max              =   0.0000000000000E+00
(PID.TID 0000.0001) %MON forcing_qsw_min              =   0.0000000000000E+00
(PID.TID 0000.0001) %MON forcing_qsw_mean             =   0.0000000000000E+00
(PID.TID 0000.0001) %MON forcing_qsw_sd               =   0.0000000000000E+00
(PID.TID 0000.0001) %MON forcing_qsw_del2             =   0.0000000000000E+00
(PID.TID 0000.0001) %MON forcing_empmr_max            =   5.2302461935749E-05
(PID.TID 0000.0001) %MON forcing_empmr_min            =  -1.3705199332603E-04
(PID.TID 0000.0001) %MON forcing_empmr_mean           =   2.0432568138134E-22
(PID.TID 0000.0001) %MON forcing_empmr_sd             =   2.3550327612301E-05
(PID.TID 0000.0001) %MON forcing_empmr_del2           =   2.4956923451985E-07
(PID.TID 0000.0001) %MON forcing_fu_max               =   2.9492541368424E-01
(PID.TID 0000.0001) %MON forcing_fu_min               =  -2.0411288351134E-01
(PID.TID 0000.0001) %MON forcing_fu_mean              =   1.7341198989244E-02
(PID.TID 0000.0001) %MON forcing_fu_sd                =   9.1214782607099E-02
(PID.TID 0000.0001) %MON forcing_fu_del2              =   6.8835621662477E-04
(PID.TID 0000.0001) %MON forcing_fv_max               =   1.8680120908603E-01
(PID.TID 0000.0001) %MON forcing_fv_min               =  -1.7747596551990E-01
(PID.TID 0000.0001) %MON forcing_fv_mean              =  -6.7306027712320E-03
(PID.TID 0000.0001) %MON forcing_fv_sd                =   4.4505795787846E-02
(PID.TID 0000.0001) %MON forcing_fv_del2              =   4.6933292157477E-04
(PID.TID 0000.0001) %MON advcfl_uvel_max              =   1.2962708516469E-01
(PID.TID 0000.0001) %MON advcfl_vvel_max              =   4.3996288553408E-02
(PID.TID 0000.0001) %MON advcfl_wvel_max              =   9.7080389714806E-02
(PID.TID 0000.0001) %MON advcfl_W_hf_max              =   1.1791021615829E-01
(PID.TID 0000.0001) %MON pe_b_mean                    =  -7.9129906361150E-03
(PID.TID 0000.0001) %MON ke_max                       =   2.0362514638015E-02
(PID.TID 0000.0001) %MON ke_mean                      =   1.6055401028999E-04
(PID.TID 0000.0001) %MON ke_vol                       =   1.3442141716554E+22
(PID.TID 0000.0001) %MON vort_r_min                   =  -5.5457084131002E-07
(PID.TID 0000.0001) %MON vort_r_max                   =   5.8776424282391E-07
(PID.TID 0000.0001) %MON vort_a_mean                  =  -2.4531015741208E-05
(PID.TID 0000.0001) %MON vort_a_sd                    =   7.3436137361143E-05
(PID.TID 0000.0001) %MON vort_p_mean                  =  -2.9400628711808E-05
(PID.TID 0000.0001) %MON vort_p_sd                    =   1.0337644866126E-04
(PID.TID 0000.0001) %MON surfExpan_theta_mean         =  -4.5318850520282E-04
(PID.TID 0000.0001) %MON surfExpan_salt_mean          =   1.2308212783614E-04
(PID.TID 0000.0001) // =======================================================
(PID.TID 0000.0001) // End MONITOR dynamic field statistics
(PID.TID 0000.0001) // =======================================================
(PID.TID 0000.0001) %CHECKPOINT        20 ckptA
(PID.TID 0000.0001)   Seconds in section "ALL                    [THE_MODEL_MAIN]":
(PID.TID 0000.0001)           User time:   14.790000000000001
(PID.TID 0000.0001)         System time:  8.99999999999999967E-002
(PID.TID 0000.0001)     Wall clock time:   15.199397087097168
(PID.TID 0000.0001)          No. starts:           1
(PID.TID 0000.0001)           No. stops:           1
(PID.TID 0000.0001)   Seconds in section "INITIALISE_FIXED       [THE_MODEL_MAIN]":
(PID.TID 0000.0001)           User time:  0.10000000000000001
(PID.TID 0000.0001)         System time:  1.00000000000000002E-002
(PID.TID 0000.0001)     Wall clock time:  0.23268914222717285
(PID.TID 0000.0001)          No. starts:           1
(PID.TID 0000.0001)           No. stops:           1
(PID.TID 0000.0001)   Seconds in section "THE_MAIN_LOOP          [THE_MODEL_MAIN]":
(PID.TID 0000.0001)           User time:   14.690000000000001
(PID.TID 0000.0001)         System time:  8.00000000000000017E-002
(PID.TID 0000.0001)     Wall clock time:   14.966655969619751
(PID.TID 0000.0001)          No. starts:           1
(PID.TID 0000.0001)           No. stops:           1
(PID.TID 0000.0001)   Seconds in section "INITIALISE_VARIA    [THE_MAIN_LOOP]":
(PID.TID 0000.0001)           User time:  0.25000000000000000
(PID.TID 0000.0001)         System time:  1.99999999999999969E-002
(PID.TID 0000.0001)     Wall clock time:  0.31428098678588867
(PID.TID 0000.0001)          No. starts:           1
(PID.TID 0000.0001)           No. stops:           1
(PID.TID 0000.0001)   Seconds in section "MAIN LOOP           [THE_MAIN_LOOP]":
(PID.TID 0000.0001)           User time:   14.440000000000001
(PID.TID 0000.0001)         System time:  5.99999999999999978E-002
(PID.TID 0000.0001)     Wall clock time:   14.652328014373779
(PID.TID 0000.0001)          No. starts:           1
(PID.TID 0000.0001)           No. stops:           1
(PID.TID 0000.0001)   Seconds in section "FORWARD_STEP        [THE_MAIN_LOOP]":
(PID.TID 0000.0001)           User time:   14.440000000000000
(PID.TID 0000.0001)         System time:  5.99999999999999978E-002
(PID.TID 0000.0001)     Wall clock time:   14.652125120162964
(PID.TID 0000.0001)          No. starts:          20
(PID.TID 0000.0001)           No. stops:          20
(PID.TID 0000.0001)   Seconds in section "UPDATE_SURF_DR      [FORWARD_STEP]":
(PID.TID 0000.0001)           User time:  9.99999999999978684E-003
(PID.TID 0000.0001)         System time:   0.0000000000000000
(PID.TID 0000.0001)     Wall clock time:  1.88643932342529297E-002
(PID.TID 0000.0001)          No. starts:          40
(PID.TID 0000.0001)           No. stops:          40
(PID.TID 0000.0001)   Seconds in section "LOAD_FIELDS_DRIVER  [FORWARD_STEP]":
(PID.TID 0000.0001)           User time:   0.0000000000000000
(PID.TID 0000.0001)         System time:   0.0000000000000000
(PID.TID 0000.0001)     Wall clock time:  3.07526588439941406E-002
(PID.TID 0000.0001)          No. starts:          20
(PID.TID 0000.0001)           No. stops:          20
(PID.TID 0000.0001)   Seconds in section "EXTERNAL_FLDS_LOAD [LOAD_FLDS_DRIVER]":
(PID.TID 0000.0001)           User time:   0.0000000000000000
(PID.TID 0000.0001)         System time:   0.0000000000000000
(PID.TID 0000.0001)     Wall clock time:  3.03740501403808594E-002
(PID.TID 0000.0001)          No. starts:          20
(PID.TID 0000.0001)           No. stops:          20
(PID.TID 0000.0001)   Seconds in section "DO_ATMOSPHERIC_PHYS [FORWARD_STEP]":
(PID.TID 0000.0001)           User time:   0.0000000000000000
(PID.TID 0000.0001)         System time:   0.0000000000000000
(PID.TID 0000.0001)     Wall clock time:  1.91926956176757813E-004
(PID.TID 0000.0001)          No. starts:          20
(PID.TID 0000.0001)           No. stops:          20
(PID.TID 0000.0001)   Seconds in section "DO_OCEANIC_PHYS     [FORWARD_STEP]":
(PID.TID 0000.0001)           User time:  0.64000000000000057
(PID.TID 0000.0001)         System time:   0.0000000000000000
(PID.TID 0000.0001)     Wall clock time:  0.64068460464477539
(PID.TID 0000.0001)          No. starts:          20
(PID.TID 0000.0001)           No. stops:          20
(PID.TID 0000.0001)   Seconds in section "THERMODYNAMICS      [FORWARD_STEP]":
(PID.TID 0000.0001)           User time:   2.6800000000000033
(PID.TID 0000.0001)         System time:   0.0000000000000000
(PID.TID 0000.0001)     Wall clock time:   2.6512503623962402
(PID.TID 0000.0001)          No. starts:          20
(PID.TID 0000.0001)           No. stops:          20
(PID.TID 0000.0001)   Seconds in section "DYNAMICS            [FORWARD_STEP]":
(PID.TID 0000.0001)           User time:   4.8799999999999990
(PID.TID 0000.0001)         System time:  2.00000000000000039E-002
(PID.TID 0000.0001)     Wall clock time:   4.9054954051971436
(PID.TID 0000.0001)          No. starts:          20
(PID.TID 0000.0001)           No. stops:          20
(PID.TID 0000.0001)   Seconds in section "UPDATE_CG2D         [FORWARD_STEP]":
(PID.TID 0000.0001)           User time:  0.11999999999999922
(PID.TID 0000.0001)         System time:   0.0000000000000000
(PID.TID 0000.0001)     Wall clock time:  0.12630534172058105
(PID.TID 0000.0001)          No. starts:          20
(PID.TID 0000.0001)           No. stops:          20
(PID.TID 0000.0001)   Seconds in section "SOLVE_FOR_PRESSURE  [FORWARD_STEP]":
(PID.TID 0000.0001)           User time:   2.7300000000000004
(PID.TID 0000.0001)         System time:  1.00000000000000089E-002
(PID.TID 0000.0001)     Wall clock time:   2.7331886291503906
(PID.TID 0000.0001)          No. starts:          20
(PID.TID 0000.0001)           No. stops:          20
(PID.TID 0000.0001)   Seconds in section "MOM_CORRECTION_STEP [FORWARD_STEP]":
(PID.TID 0000.0001)           User time:  9.00000000000016342E-002
(PID.TID 0000.0001)         System time:   0.0000000000000000
(PID.TID 0000.0001)     Wall clock time:  0.11402773857116699
(PID.TID 0000.0001)          No. starts:          20
(PID.TID 0000.0001)           No. stops:          20
(PID.TID 0000.0001)   Seconds in section "INTEGR_CONTINUITY   [FORWARD_STEP]":
(PID.TID 0000.0001)           User time:  0.37999999999999901
(PID.TID 0000.0001)         System time:   0.0000000000000000
(PID.TID 0000.0001)     Wall clock time:  0.34925389289855957
(PID.TID 0000.0001)          No. starts:          20
(PID.TID 0000.0001)           No. stops:          20
(PID.TID 0000.0001)   Seconds in section "CALC_SURF_DR      [FORWARD_STEP]":
(PID.TID 0000.0001)           User time:  1.99999999999995737E-002
(PID.TID 0000.0001)         System time:   0.0000000000000000
(PID.TID 0000.0001)     Wall clock time:  2.27186679840087891E-002
(PID.TID 0000.0001)          No. starts:          20
(PID.TID 0000.0001)           No. stops:          20
(PID.TID 0000.0001)   Seconds in section "TRC_CORRECTION_STEP [FORWARD_STEP]":
(PID.TID 0000.0001)           User time:  4.99999999999989342E-002
(PID.TID 0000.0001)         System time:   0.0000000000000000
(PID.TID 0000.0001)     Wall clock time:  5.86555004119873047E-002
(PID.TID 0000.0001)          No. starts:          20
(PID.TID 0000.0001)           No. stops:          20
(PID.TID 0000.0001)   Seconds in section "BLOCKING_EXCHANGES  [FORWARD_STEP]":
(PID.TID 0000.0001)           User time:  6.00000000000004974E-002
(PID.TID 0000.0001)         System time:   0.0000000000000000
(PID.TID 0000.0001)     Wall clock time:  6.19215965270996094E-002
(PID.TID 0000.0001)          No. starts:          20
(PID.TID 0000.0001)           No. stops:          20
(PID.TID 0000.0001)   Seconds in section "DO_STATEVARS_TAVE   [FORWARD_STEP]":
(PID.TID 0000.0001)           User time:   1.0800000000000001
(PID.TID 0000.0001)         System time:   0.0000000000000000
(PID.TID 0000.0001)     Wall clock time:   1.0746047496795654
(PID.TID 0000.0001)          No. starts:          20
(PID.TID 0000.0001)           No. stops:          20
(PID.TID 0000.0001)   Seconds in section "MONITOR             [FORWARD_STEP]":
(PID.TID 0000.0001)           User time:   1.6099999999999994
(PID.TID 0000.0001)         System time:   0.0000000000000000
(PID.TID 0000.0001)     Wall clock time:   1.6194992065429688
(PID.TID 0000.0001)          No. starts:          20
(PID.TID 0000.0001)           No. stops:          20
(PID.TID 0000.0001)   Seconds in section "DO_THE_MODEL_IO     [FORWARD_STEP]":
(PID.TID 0000.0001)           User time:  3.99999999999991473E-002
(PID.TID 0000.0001)         System time:   0.0000000000000000
(PID.TID 0000.0001)     Wall clock time:  0.10185122489929199
(PID.TID 0000.0001)          No. starts:          20
(PID.TID 0000.0001)           No. stops:          20
(PID.TID 0000.0001)   Seconds in section "DO_WRITE_PICKUP     [FORWARD_STEP]":
(PID.TID 0000.0001)           User time:  5.00000000000007105E-002
(PID.TID 0000.0001)         System time:  2.99999999999999989E-002
(PID.TID 0000.0001)     Wall clock time:  0.13922381401062012
(PID.TID 0000.0001)          No. starts:          20
(PID.TID 0000.0001)           No. stops:          20
(PID.TID 0000.0001) // ======================================================
(PID.TID 0000.0001) // Tile <-> Tile communication statistics
(PID.TID 0000.0001) // ======================================================
(PID.TID 0000.0001) // o Tile number: 000001
(PID.TID 0000.0001) //         No. X exchanges =              0
(PID.TID 0000.0001) //            Max. X spins =              0
(PID.TID 0000.0001) //            Min. X spins =     1000000000
(PID.TID 0000.0001) //          Total. X spins =              0
(PID.TID 0000.0001) //            Avg. X spins =       0.00E+00
(PID.TID 0000.0001) //         No. Y exchanges =              0
(PID.TID 0000.0001) //            Max. Y spins =              0
(PID.TID 0000.0001) //            Min. Y spins =     1000000000
(PID.TID 0000.0001) //          Total. Y spins =              0
(PID.TID 0000.0001) //            Avg. Y spins =       0.00E+00
(PID.TID 0000.0001) // o Tile number: 000002
(PID.TID 0000.0001) //         No. X exchanges =              0
(PID.TID 0000.0001) //            Max. X spins =              0
(PID.TID 0000.0001) //            Min. X spins =     1000000000
(PID.TID 0000.0001) //          Total. X spins =              0
(PID.TID 0000.0001) //            Avg. X spins =       0.00E+00
(PID.TID 0000.0001) //         No. Y exchanges =              0
(PID.TID 0000.0001) //            Max. Y spins =              0
(PID.TID 0000.0001) //            Min. Y spins =     1000000000
(PID.TID 0000.0001) //          Total. Y spins =              0
(PID.TID 0000.0001) //            Avg. Y spins =       0.00E+00
(PID.TID 0000.0001) // o Thread number: 000001
(PID.TID 0000.0001) //            No. barriers =          15540
(PID.TID 0000.0001) //      Max. barrier spins =              1
(PID.TID 0000.0001) //      Min. barrier spins =              1
(PID.TID 0000.0001) //     Total barrier spins =          15540
(PID.TID 0000.0001) //      Avg. barrier spins =       1.00E+00
PROGRAM MAIN: Execution ended Normally
