(PID.TID 0000.0001) 
(PID.TID 0000.0001) // ======================================================
(PID.TID 0000.0001) //                      MITgcm UV
(PID.TID 0000.0001) //                      =========
(PID.TID 0000.0001) // ======================================================
(PID.TID 0000.0001) // execution environment starting up...
(PID.TID 0000.0001) 
(PID.TID 0000.0001) // MITgcmUV version:  checkpoint67o
(PID.TID 0000.0001) // Build user:        mlosch
(PID.TID 0000.0001) // Build host:        bkli04l006
(PID.TID 0000.0001) // Build date:        Thu May  7 11:02:00 CEST 2020
(PID.TID 0000.0001) 
(PID.TID 0000.0001) // =======================================================
(PID.TID 0000.0001) // Execution Environment parameter file "eedata"
(PID.TID 0000.0001) // =======================================================
(PID.TID 0000.0001) ># Example "eedata" file
(PID.TID 0000.0001) ># Lines beginning "#" are comments
(PID.TID 0000.0001) ># nTx - No. threads per process in X
(PID.TID 0000.0001) ># nTy - No. threads per process in Y
(PID.TID 0000.0001) > &EEPARMS
(PID.TID 0000.0001) > nTx=1,
(PID.TID 0000.0001) > nTy=1,
(PID.TID 0000.0001) > /
(PID.TID 0000.0001) ># Note: Some systems use & as the
(PID.TID 0000.0001) ># namelist terminator. Other systems
(PID.TID 0000.0001) ># use a / character (as shown here).
(PID.TID 0000.0001) ># BUT some compilers do not understand "/"
(PID.TID 0000.0001) 
(PID.TID 0000.0001) // =======================================================
(PID.TID 0000.0001) // Computational Grid Specification ( see files "SIZE.h" )
(PID.TID 0000.0001) //                                  ( and "eedata"       )
(PID.TID 0000.0001) // =======================================================
(PID.TID 0000.0001)      nPx =    1 ; /* No. processes in X */
(PID.TID 0000.0001)      nPy =    1 ; /* No. processes in Y */
(PID.TID 0000.0001)      nSx =    1 ; /* No. tiles in X per process */
(PID.TID 0000.0001)      nSy =    2 ; /* No. tiles in Y per process */
(PID.TID 0000.0001)      sNx =   90 ; /* Tile size in X */
(PID.TID 0000.0001)      sNy =   20 ; /* Tile size in Y */
(PID.TID 0000.0001)      OLx =    2 ; /* Tile overlap distance in X */
(PID.TID 0000.0001)      OLy =    2 ; /* Tile overlap distance in Y */
(PID.TID 0000.0001)      nTx =    1 ; /* No. threads in X per process */
(PID.TID 0000.0001)      nTy =    1 ; /* No. threads in Y per process */
(PID.TID 0000.0001)       Nr =   15 ; /* No. levels in the vertical   */
(PID.TID 0000.0001)       Nx =   90 ; /* Total domain size in X ( = nPx*nSx*sNx ) */
(PID.TID 0000.0001)       Ny =   40 ; /* Total domain size in Y ( = nPy*nSy*sNy ) */
(PID.TID 0000.0001)   nTiles =    2 ; /* Total no. tiles per process ( = nSx*nSy ) */
(PID.TID 0000.0001)   nProcs =    1 ; /* Total no. processes ( = nPx*nPy ) */
(PID.TID 0000.0001) nThreads =    1 ; /* Total no. threads per process ( = nTx*nTy ) */
(PID.TID 0000.0001) usingMPI =    F ; /* Flag used to control whether MPI is in use */
(PID.TID 0000.0001)                   /*  note: To execute a program with MPI calls */
(PID.TID 0000.0001)                   /*  it must be launched appropriately e.g     */
(PID.TID 0000.0001)                   /*  "mpirun -np 64 ......"                    */
(PID.TID 0000.0001) useCoupler=    F ;/* Flag used to control communications with   */
(PID.TID 0000.0001)                   /*  other model components, through a coupler */
(PID.TID 0000.0001) useNest2W_parent =    F ;/* Control 2-W Nesting comm */
(PID.TID 0000.0001) useNest2W_child  =    F ;/* Control 2-W Nesting comm */
(PID.TID 0000.0001) debugMode =    F ; /* print debug msg. (sequence of S/R calls)  */
(PID.TID 0000.0001) printMapIncludesZeros=    F ; /* print zeros in Std.Output maps */
(PID.TID 0000.0001) maxLengthPrt1D=   65 /* maxLength of 1D array printed to StdOut */
(PID.TID 0000.0001) 
(PID.TID 0000.0001) // ======================================================
(PID.TID 0000.0001) // Mapping of tiles to threads
(PID.TID 0000.0001) // ======================================================
(PID.TID 0000.0001) // -o- Thread   1, tiles (   1:   1,   1:   2)
(PID.TID 0000.0001) 
(PID.TID 0000.0001) // ======================================================
(PID.TID 0000.0001) // Tile <-> Tile connectvity table
(PID.TID 0000.0001) // ======================================================
(PID.TID 0000.0001) // Tile number: 000001 (process no. = 000000)
(PID.TID 0000.0001) //        WEST: Tile = 000001, Process = 000000, Comm = put
(PID.TID 0000.0001) //                bi = 000001, bj = 000001
(PID.TID 0000.0001) //        EAST: Tile = 000001, Process = 000000, Comm = put
(PID.TID 0000.0001) //                bi = 000001, bj = 000001
(PID.TID 0000.0001) //       SOUTH: Tile = 000002, Process = 000000, Comm = put
(PID.TID 0000.0001) //                bi = 000001, bj = 000002
(PID.TID 0000.0001) //       NORTH: Tile = 000002, Process = 000000, Comm = put
(PID.TID 0000.0001) //                bi = 000001, bj = 000002
(PID.TID 0000.0001) // Tile number: 000002 (process no. = 000000)
(PID.TID 0000.0001) //        WEST: Tile = 000002, Process = 000000, Comm = put
(PID.TID 0000.0001) //                bi = 000001, bj = 000002
(PID.TID 0000.0001) //        EAST: Tile = 000002, Process = 000000, Comm = put
(PID.TID 0000.0001) //                bi = 000001, bj = 000002
(PID.TID 0000.0001) //       SOUTH: Tile = 000001, Process = 000000, Comm = put
(PID.TID 0000.0001) //                bi = 000001, bj = 000001
(PID.TID 0000.0001) //       NORTH: Tile = 000001, Process = 000000, Comm = put
(PID.TID 0000.0001) //                bi = 000001, bj = 000001
(PID.TID 0000.0001) 
(PID.TID 0000.0001)  INI_PARMS: opening model parameter file "data"
(PID.TID 0000.0001)  OPEN_COPY_DATA_FILE: opening file data
(PID.TID 0000.0001) // =======================================================
(PID.TID 0000.0001) // Parameter file "data"
(PID.TID 0000.0001) // =======================================================
(PID.TID 0000.0001) ># ====================
(PID.TID 0000.0001) ># | Model parameters |
(PID.TID 0000.0001) ># ====================
(PID.TID 0000.0001) >#
(PID.TID 0000.0001) ># Continuous equation parameters
(PID.TID 0000.0001) > &PARM01
(PID.TID 0000.0001) > tRef = 15*20.,
(PID.TID 0000.0001) > sRef = 15*35.,
(PID.TID 0000.0001) > viscAh =3.E5,
(PID.TID 0000.0001) > no_slip_sides=.TRUE.,
(PID.TID 0000.0001) > viscAr =1.721611620915750e5,
(PID.TID 0000.0001) >#viscAz =1.67E-3,
(PID.TID 0000.0001) > no_slip_bottom=.FALSE.,
(PID.TID 0000.0001) > diffKhT=1.E3,
(PID.TID 0000.0001) > diffKrT=5.154525811125000e3,
(PID.TID 0000.0001) >#diffKzT=0.5E-4,
(PID.TID 0000.0001) > diffKhS=1.E3,
(PID.TID 0000.0001) > diffKrS=5.154525811125000e3,
(PID.TID 0000.0001) >#diffKzS=0.5E-4,
(PID.TID 0000.0001) > cosPower=0.5,
(PID.TID 0000.0001) > implicitDiffusion=.TRUE.,
(PID.TID 0000.0001) > ivdc_kappa=1.030905162225000e9,
(PID.TID 0000.0001) >#ivdc_kappa=10.0,
(PID.TID 0000.0001) > gravity=9.81,
(PID.TID 0000.0001) > rhoConst=1035.,
(PID.TID 0000.0001) > rhoConstFresh=1000.,
(PID.TID 0000.0001) > buoyancyRelation='OCEANICP',
(PID.TID 0000.0001) > integr_GeoPot=1,
(PID.TID 0000.0001) > eosType='JMD95P',
(PID.TID 0000.0001) > useNHMTerms=.TRUE.,
(PID.TID 0000.0001) > implicitFreeSurface=.TRUE.,
(PID.TID 0000.0001) > exactConserv=.TRUE.,
(PID.TID 0000.0001) > nonlinFreeSurf=4,
(PID.TID 0000.0001) > hFacInf=0.2,
(PID.TID 0000.0001) > hFacSup=2.0,
(PID.TID 0000.0001) >#- to check that it has no impact:
(PID.TID 0000.0001) > doResetHFactors=.TRUE.,
(PID.TID 0000.0001) >#useRealFreshWaterFlux=.TRUE.,
(PID.TID 0000.0001) > readBinaryPrec=64,
(PID.TID 0000.0001) > writeBinaryPrec=64,
(PID.TID 0000.0001) > /
(PID.TID 0000.0001) >
(PID.TID 0000.0001) ># Elliptic solver parameters
(PID.TID 0000.0001) > &PARM02
(PID.TID 0000.0001) > cg2dMaxIters=200,
(PID.TID 0000.0001) > cg2dTargetResidual=1.E-9,
(PID.TID 0000.0001) > /
(PID.TID 0000.0001) >
(PID.TID 0000.0001) ># Time stepping parameters
(PID.TID 0000.0001) > &PARM03
(PID.TID 0000.0001) > startTime =           0.,
(PID.TID 0000.0001) > endTime   =     3456000.,
(PID.TID 0000.0001) ># after 100 years of intergration, one gets a reasonable flow field
(PID.TID 0000.0001) >#endTime   = 3110400000.,
(PID.TID 0000.0001) > deltaTMom      =   1200.0,
(PID.TID 0000.0001) > deltaTtracer   = 172800.0,
(PID.TID 0000.0001) > deltaTFreeSurf = 172800.0,
(PID.TID 0000.0001) > deltaTClock    = 172800.0,
(PID.TID 0000.0001) > abEps     = 0.1,
(PID.TID 0000.0001) > pChkptFreq  = 3110400000.,
(PID.TID 0000.0001) > dumpFreq    = 3110400000.,
(PID.TID 0000.0001) > taveFreq    = 3110400000.,
(PID.TID 0000.0001) > monitorFreq =   1.,
(PID.TID 0000.0001) > periodicExternalForcing=.TRUE.,
(PID.TID 0000.0001) > externForcingPeriod=2592000.,
(PID.TID 0000.0001) > externForcingCycle=31104000.,
(PID.TID 0000.0001) > tauThetaClimRelax=5184000.0,
(PID.TID 0000.0001) > /
(PID.TID 0000.0001) >
(PID.TID 0000.0001) ># Gridding parameters
(PID.TID 0000.0001) > &PARM04
(PID.TID 0000.0001) > usingSphericalPolarGrid=.TRUE.,
(PID.TID 0000.0001) > dxSpacing=4.,
(PID.TID 0000.0001) > dySpacing=4.,
(PID.TID 0000.0001) >#Ro_SeaLevel=53023122.566084,
(PID.TID 0000.0001) > top_Pres=1.E-6,
(PID.TID 0000.0001) > delR=7103300.720021, 6570548.440790, 6041670.010249,
(PID.TID 0000.0001) >      5516436.666057, 4994602.034410, 4475903.435290,
(PID.TID 0000.0001) >      3960063.245801, 3446790.312651, 2935781.405664,
(PID.TID 0000.0001) >      2426722.705046, 1919291.315988, 1413156.804970,
(PID.TID 0000.0001) >      1008846.750166,  705919.025481,  504089.693499,
(PID.TID 0000.0001) > ygOrigin=-80.,
(PID.TID 0000.0001) > /
(PID.TID 0000.0001) >
(PID.TID 0000.0001) ># Input datasets
(PID.TID 0000.0001) > &PARM05
(PID.TID 0000.0001) > bathyFile      ='topog.bin',
(PID.TID 0000.0001) > geoPotAnomFile ='deltageopotjmd95.bin',
(PID.TID 0000.0001) > hydrogThetaFile='lev_t.bin',
(PID.TID 0000.0001) > hydrogSaltFile ='lev_s.bin',
(PID.TID 0000.0001) > zonalWindFile  ='trenberth_taux.bin',
(PID.TID 0000.0001) > meridWindFile  ='trenberth_tauy.bin',
(PID.TID 0000.0001) > thetaClimFile  ='lev_sst.bin',
(PID.TID 0000.0001) >#saltClimFile   ='lev_sss.bin',
(PID.TID 0000.0001) > surfQnetFile   ='shi_qnet.bin',
(PID.TID 0000.0001) > EmPmRFile      ='shi_empmr.bin',
(PID.TID 0000.0001) > /
(PID.TID 0000.0001) 
(PID.TID 0000.0001)  INI_PARMS ; starts to read PARM01
(PID.TID 0000.0001)  INI_PARMS ; read PARM01 : OK
(PID.TID 0000.0001)  INI_PARMS ; starts to read PARM02
(PID.TID 0000.0001)  INI_PARMS ; read PARM02 : OK
(PID.TID 0000.0001)  INI_PARMS ; starts to read PARM03
(PID.TID 0000.0001)  INI_PARMS ; read PARM03 : OK
(PID.TID 0000.0001)  INI_PARMS ; starts to read PARM04
(PID.TID 0000.0001)  INI_PARMS ; read PARM04 : OK
(PID.TID 0000.0001)  INI_PARMS ; starts to read PARM05
(PID.TID 0000.0001)  INI_PARMS ; read PARM05 : OK
(PID.TID 0000.0001)  INI_PARMS: finished reading file "data"
(PID.TID 0000.0001)  PACKAGES_BOOT: opening data.pkg
(PID.TID 0000.0001)  OPEN_COPY_DATA_FILE: opening file data.pkg
(PID.TID 0000.0001) // =======================================================
(PID.TID 0000.0001) // Parameter file "data.pkg"
(PID.TID 0000.0001) // =======================================================
(PID.TID 0000.0001) ># Packages
(PID.TID 0000.0001) > &PACKAGES
(PID.TID 0000.0001) > /
(PID.TID 0000.0001) 
(PID.TID 0000.0001)  PACKAGES_BOOT: finished reading data.pkg
(PID.TID 0000.0001)  PACKAGES_BOOT: On/Off package Summary
 --------  pkgs with a standard "usePKG" On/Off switch in "data.pkg":  --------
 -------- pkgs without standard "usePKG" On/Off switch in "data.pkg":  --------
 pkg/generic_advdiff      compiled   and   used ( useGAD                   = T )
 pkg/mom_common           compiled   and   used ( momStepping              = T )
 pkg/mom_fluxform         compiled   and   used ( & not vectorInvariantMom = T )
 pkg/monitor              compiled   and   used ( monitorFreq > 0.         = T )
 pkg/timeave              compiled   and   used ( taveFreq > 0.            = T )
 pkg/debug                compiled but not used ( debugMode                = F )
 pkg/rw                   compiled   and   used
 pkg/mdsio                compiled   and   used
(PID.TID 0000.0001)  PACKAGES_BOOT: End of package Summary
(PID.TID 0000.0001) 
(PID.TID 0000.0001) SET_PARMS: done
(PID.TID 0000.0001) Enter INI_VERTICAL_GRID: setInterFDr=    T ; setCenterDr=    F
(PID.TID 0000.0001) %MON XC_max                       =   3.5800000000000E+02
(PID.TID 0000.0001) %MON XC_min                       =   2.0000000000000E+00
(PID.TID 0000.0001) %MON XC_mean                      =   1.8000000000000E+02
(PID.TID 0000.0001) %MON XC_sd                        =   1.0391663325314E+02
(PID.TID 0000.0001) %MON XG_max                       =   3.5600000000000E+02
(PID.TID 0000.0001) %MON XG_min                       =   0.0000000000000E+00
(PID.TID 0000.0001) %MON XG_mean                      =   1.7800000000000E+02
(PID.TID 0000.0001) %MON XG_sd                        =   1.0391663325314E+02
(PID.TID 0000.0001) %MON DXC_max                      =   4.4443898815675E+05
(PID.TID 0000.0001) %MON DXC_min                      =   9.2460385861875E+04
(PID.TID 0000.0001) %MON DXC_mean                     =   3.1372497618153E+05
(PID.TID 0000.0001) %MON DXC_sd                       =   1.1216447457560E+05
(PID.TID 0000.0001) %MON DXF_max                      =   4.4443898815675E+05
(PID.TID 0000.0001) %MON DXF_min                      =   9.2460385861875E+04
(PID.TID 0000.0001) %MON DXF_mean                     =   3.1372497618153E+05
(PID.TID 0000.0001) %MON DXF_sd                       =   1.1216447457560E+05
(PID.TID 0000.0001) %MON DXG_max                      =   4.4470989340816E+05
(PID.TID 0000.0001) %MON DXG_min                      =   7.7223062580781E+04
(PID.TID 0000.0001) %MON DXG_mean                     =   3.1353386340261E+05
(PID.TID 0000.0001) %MON DXG_sd                       =   1.1256651772502E+05
(PID.TID 0000.0001) %MON DXV_max                      =   4.4470989340816E+05
(PID.TID 0000.0001) %MON DXV_min                      =   7.7223062580781E+04
(PID.TID 0000.0001) %MON DXV_mean                     =   3.1353386340261E+05
(PID.TID 0000.0001) %MON DXV_sd                       =   1.1256651772502E+05
(PID.TID 0000.0001) %MON YC_max                       =   7.8000000000000E+01
(PID.TID 0000.0001) %MON YC_min                       =  -7.8000000000000E+01
(PID.TID 0000.0001) %MON YC_mean                      =   0.0000000000000E+00
(PID.TID 0000.0001) %MON YC_sd                        =   4.6173585522461E+01
(PID.TID 0000.0001) %MON YG_max                       =   7.6000000000000E+01
(PID.TID 0000.0001) %MON YG_min                       =  -8.0000000000000E+01
(PID.TID 0000.0001) %MON YG_mean                      =  -2.0000000000000E+00
(PID.TID 0000.0001) %MON YG_sd                        =   4.6173585522461E+01
(PID.TID 0000.0001) %MON DYC_max                      =   4.4470989340816E+05
(PID.TID 0000.0001) %MON DYC_min                      =   4.4470989340816E+05
(PID.TID 0000.0001) %MON DYC_mean                     =   4.4470989340817E+05
(PID.TID 0000.0001) %MON DYC_sd                       =   1.4668330550194E-08
(PID.TID 0000.0001) %MON DYF_max                      =   4.4470989340816E+05
(PID.TID 0000.0001) %MON DYF_min                      =   4.4470989340816E+05
(PID.TID 0000.0001) %MON DYF_mean                     =   4.4470989340817E+05
(PID.TID 0000.0001) %MON DYF_sd                       =   1.4668330550194E-08
(PID.TID 0000.0001) %MON DYG_max                      =   4.4470989340816E+05
(PID.TID 0000.0001) %MON DYG_min                      =   4.4470989340816E+05
(PID.TID 0000.0001) %MON DYG_mean                     =   4.4470989340817E+05
(PID.TID 0000.0001) %MON DYG_sd                       =   1.4668330550194E-08
(PID.TID 0000.0001) %MON DYU_max                      =   4.4470989340816E+05
(PID.TID 0000.0001) %MON DYU_min                      =   4.4470989340816E+05
(PID.TID 0000.0001) %MON DYU_mean                     =   4.4470989340817E+05
(PID.TID 0000.0001) %MON DYU_sd                       =   1.4668330550194E-08
(PID.TID 0000.0001) %MON RA_max                       =   1.9760627980089E+11
(PID.TID 0000.0001) %MON RA_min                       =   4.1109698667290E+10
(PID.TID 0000.0001) %MON RA_mean                      =   1.3948826965196E+11
(PID.TID 0000.0001) %MON RA_sd                        =   4.9870522472901E+10
(PID.TID 0000.0001) %MON RAW_max                      =   1.9760627980089E+11
(PID.TID 0000.0001) %MON RAW_min                      =   4.1109698667290E+10
(PID.TID 0000.0001) %MON RAW_mean                     =   1.3948826965196E+11
(PID.TID 0000.0001) %MON RAW_sd                       =   4.9870522472901E+10
(PID.TID 0000.0001) %MON RAS_max                      =   1.9772672958215E+11
(PID.TID 0000.0001) %MON RAS_min                      =   3.4334886267983E+10
(PID.TID 0000.0001) %MON RAS_mean                     =   1.3940329716694E+11
(PID.TID 0000.0001) %MON RAS_sd                       =   5.0049278732353E+10
(PID.TID 0000.0001) %MON RAZ_max                      =   1.9772672958215E+11
(PID.TID 0000.0001) %MON RAZ_min                      =   3.4334886267983E+10
(PID.TID 0000.0001) %MON RAZ_mean                     =   1.3940329716694E+11
(PID.TID 0000.0001) %MON RAZ_sd                       =   5.0049278732353E+10
(PID.TID 0000.0001) %MON AngleCS_max                  =   1.0000000000000E+00
(PID.TID 0000.0001) %MON AngleCS_min                  =   1.0000000000000E+00
(PID.TID 0000.0001) %MON AngleCS_mean                 =   1.0000000000000E+00
(PID.TID 0000.0001) %MON AngleCS_sd                   =   0.0000000000000E+00
(PID.TID 0000.0001) %MON AngleSN_max                  =   0.0000000000000E+00
(PID.TID 0000.0001) %MON AngleSN_min                  =   0.0000000000000E+00
(PID.TID 0000.0001) %MON AngleSN_mean                 =   0.0000000000000E+00
(PID.TID 0000.0001) %MON AngleSN_sd                   =   0.0000000000000E+00
(PID.TID 0000.0001)  MDS_READ_FIELD: opening global file: topog.bin
(PID.TID 0000.0001) // =======================================================
(PID.TID 0000.0001) // Field Model R_low (ini_masks_etc)
(PID.TID 0000.0001) // CMIN =          1.005828380584717E-06
(PID.TID 0000.0001) // CMAX =          1.005828380584717E-06
(PID.TID 0000.0001) // CINT =          0.000000000000000E+00
(PID.TID 0000.0001) // SYMBOLS (CMIN->CMAX): -abcdefghijklmnopqrstuvwxyz+
(PID.TID 0000.0001) //                  0.0: .
(PID.TID 0000.0001) // RANGE I (Lo:Hi:Step):(    -1:    92:     1)
(PID.TID 0000.0001) // RANGE J (Lo:Hi:Step):(    42:    -1:    -1)
(PID.TID 0000.0001) // RANGE K (Lo:Hi:Step):(   1:   1:   1)
(PID.TID 0000.0001) // =======================================================
(PID.TID 0000.0001) // =======================================================
(PID.TID 0000.0001) // END OF FIELD                                          =
(PID.TID 0000.0001) // =======================================================
(PID.TID 0000.0001) 
(PID.TID 0000.0001) // =======================================================
(PID.TID 0000.0001) // Field Model Ro_surf (ini_masks_etc)
(PID.TID 0000.0001) // CMIN =          1.005828380584717E-06
(PID.TID 0000.0001) // CMAX =          5.302312256608400E+07
(PID.TID 0000.0001) // CINT =          1.963819354299370E+06
(PID.TID 0000.0001) // SYMBOLS (CMIN->CMAX): -abcdefghijklmnopqrstuvwxyz+
(PID.TID 0000.0001) //                  0.0: .
(PID.TID 0000.0001) // RANGE I (Lo:Hi:Step):(    -1:    92:     1)
(PID.TID 0000.0001) // RANGE J (Lo:Hi:Step):(    42:    -1:    -1)
(PID.TID 0000.0001) // RANGE K (Lo:Hi:Step):(   1:   1:   1)
(PID.TID 0000.0001) // =======================================================
(PID.TID 0000.0001) K =   1
(PID.TID 0000.0001) //                I=8       I=18      I=28      I=38      I=48      I=58      I=68      I=78      I=88
(PID.TID 0000.0001) // |--J--|101234567|901234567|901234567|901234567|901234567|901234567|901234567|901234567|901234567|9012
(PID.TID 0000.0001) //     42 --------------------------------------------bbcdnttwwwttttqnnlfddc--abcc-----ccbcltttttba-----
(PID.TID 0000.0001) //     41 ----------------------------------------------------------------------------------------------
(PID.TID 0000.0001) //     40 innllaa-aaaaaaaaaaaaa------------------------------------------------------------------aaainnl
(PID.TID 0000.0001) //     39 gnnllibbaaaaaaaa---aa-----------------------------------------------------bdda--------abffgnnl
(PID.TID 0000.0001) //     38 nllllibbaaaaaaa-----------------------------------------------------------bddca------bccfgnlll
(PID.TID 0000.0001) //     37 nnnga------------------------------------------------------------------aa---bca---bggc--agnnng
(PID.TID 0000.0001) //     36 fgga-----------------------------------------nnaa--------------------aaaaaaabnnn-bllfggffcfgga
(PID.TID 0000.0001) //     35 aaaa---------------------------------aaaa--iinnqqa---atttn-----------aaa----annqqqnglllgddaaaa
(PID.TID 0000.0001) //     34 -------------------------------------affc-tticcfab-wwwttttn------------------anqttqqqtttna----
(PID.TID 0000.0001) //     33 a-------------------------------------ffa+++t+++++++++wwwtqna-----------------aifwwtnttttda---
(PID.TID 0000.0001) //     32 a-------------------------------------ag++++t++++++++++wwttnn----------------aaatwttqltttna---
(PID.TID 0000.0001) //     31 --------------------------------------++++++w++++++++++wwwtqn--------------iw++twwwtiltwwn----
(PID.TID 0000.0001) //     30 -------------------------------------t++++w++w+++++++++++++ww------------at++++twwwlgqtwwq----
(PID.TID 0000.0001) //     29 -----------------------------------gf++++t+++tqt+++++++++++wwt-----------w++w+++wtnqq++wtq----
(PID.TID 0000.0001) //     28 ---------------------------------actn+++++++++++++++++++wwwwwtq---------iw++++++wntww++wqa----
(PID.TID 0000.0001) //     27 ----------------cc--------------aftttlt++++++++w+nnw+++wwwwwwttt---aaac-iw++++++qt+++++t------
(PID.TID 0000.0001) //     26 ----------------cnn-----------afw+++wl+++++++++++qwtn++++++wwtttqg-aa-ii-c++++++tw++++wq------
(PID.TID 0000.0001) //     25 ----------------qttq---lla---atfw+++wl+++ww++qqtnt+++++++++wwtttqnn---iifnac+++wqw++wwqq------
(PID.TID 0000.0001) //     24 --------------cntwwtg-qqqa---ftt-++twn+++++++++++++++++++wwwwwttqnqqqf-afnnddwwwtw++++wt------
(PID.TID 0000.0001) //     23 --------------dttwwtl-ttqd---fff--tqtq++++ttw+++++w++++++wwwwwttqqqqqql----bbqwwwt++++ww------
(PID.TID 0000.0001) //     22 gii-----------wwwqttgnttqq---bb-dlqwwlltwwwwt++++++wt+w++wwwwwwtttqqqqii------dwwwttwwtwwigii-
(PID.TID 0000.0001) //     21 ++wqi--------nwwwwqtiwwwqqb-----dltwwqtttnwwt++++++wqwwwwwwwwwttttqnnill--------twwtqttwww++wq
(PID.TID 0000.0001) //     20 ++wwi-------nwwwwwtqwwwwqww------b-fqqqgiltttt+++++++wwwwwwwwwwtttqttqqn---------ntt+++ttw++ww
(PID.TID 0000.0001) //     19 ww++t-------qwwlittl+++qwwwwd---aba-----iannww++++t++++wwwwwwwwttqtttttt-----------w+++wqtww++
(PID.TID 0000.0001) //     22 gii-----------wwwqttgnttqq---bb-dlqwwlltwwwwt++++++wt+w++wwwwwwtttqqqqii------dwwwttwwtwwigii-
(PID.TID 0000.0001) //     21 ++wqi--------nwwwwqtiwwwqqb-----dltwwqtttnwwt++++++wqwwwwwwwwwttttqnnill--------twwtqttwww++wq
(PID.TID 0000.0001) //     20 ++wwi-------nwwwwwtqwwwwqww------b-fqqqgiltttt+++++++wwwwwwwwwwtttqttqqn---------ntt+++ttw++ww
(PID.TID 0000.0001) //     19 ww++t-------qwwlittl+++qwwwwd---aba-----iannww++++t++++wwwwwwwwttqtttttt-----------w+++wqtww++
(PID.TID 0000.0001) //     18 w+++w-------qtnttfqq+++qwww++w+qfaa---iiblntwwwwtwtq+++wwtwwwwwtqtttttwwa----------w+++wqtw+++
(PID.TID 0000.0001) //     17 w+++w-------q-twwdqt+++l+++++++qf-----iilnninnnltwww++wwwttttttnqttqtwwwq---------tw+++wqtw+++
(PID.TID 0000.0001) //     16 w+++w------gn-wwtnntw++i++++++nf-------flnnfnnndf+++wwqflnttttqntttttwwwqt--------it+++wqtw+++
(PID.TID 0000.0001) //     15 w++wlb----aqq-wwwttnwwwnw+++++f---------lggdllnf++++wwwwwtqtttqqtttttwwqttt------atw+++wqtw++w
(PID.TID 0000.0001) //     14 w++nwn----dwwi+++tqqqtwnw++w+tb---------ttgglttg++++++wwtwttqqqnqttqqqqtttt-----aqtw+++wntw++n
(PID.TID 0000.0001) //     13 wwn++t----nwwl+++qwwtqttliiw++n---------wwggittg++++++++wwwtttqqnqqttqttttl----aqttlwwwtntwwn+
(PID.TID 0000.0001) //     12 tt+++wdaqttwwnwntwwwtntqttww++wt+++a----wwigiilw+++++++++wwqtttqqqqqtttttt-----qwwwwttttnttt++
(PID.TID 0000.0001) //     11 tw+++w++qtwwwnnt++wwtlttttwww++++++++--wwwwng-nw+w+++++++++wwwtqntttqqtttt----n+++++wwtqnqtw++
(PID.TID 0000.0001) //     10 tw++ww+w++wtiqqt++wwtqnnnqttwwww+++++w-wwwwtd-nbiw+++++++++wwwtqnttwwttqtq--ad++++++wwttnqtw++
(PID.TID 0000.0001) //      9 ttwwwww+++llglntwtwtqqqttnnnttwwwwwwwwnwwwwt-fbt+++++++++++wwwtnqttwwwttqf-aad++++++wwwtqnttww
(PID.TID 0000.0001) //      8 tttqqqw++twwttwwwwfblqttttttnqqqttqqqtwtwwticfw++++++wwwwwwwttqnttwwwwwwta-aacttn++wtwwwtntttq
(PID.TID 0000.0001) //      7 ninnwwqqt++wnw++wwtgcqtwwwttwwwwwwwttnttwwntw++++++wwwwtttqtqnnttwww+++wwt-aaaintgfqtqwwwtninn
(PID.TID 0000.0001) //      6 w++++++++++++++++wwwnggwwwwwwwwwwwwwwtqqqqttw++++wwwtqnnqnwtww+++w+w+++wwwtqqqqtilnniwtqtww+++
(PID.TID 0000.0001) //      5 +++++++++++++++++wwwttttwwwwwwwwwwwwwtqqqlnlwwwwtttnnnqtwwww++++++++w+wwwwtqqqgitwwwwww+++++++
(PID.TID 0000.0001) //      4 ++tw++++++wwwqttttqqqttqqlbdnnllqqlnqqqqqnnnlnqlnnntttwwwwww+++++++wwwwwttnb--cqtwwwwww+++++tw
(PID.TID 0000.0001) //      3 ttttilqqqdcc----------------------------cclgnqqqqttwwwwwwwwwtttttwwwwttqqbb--ciqtwwwwwwwwttttt
(PID.TID 0000.0001) //      2 --------------------------------------------bbcdnttwwwttttqnnlfddc--abcc-----ccbcltttttba-----
(PID.TID 0000.0001) //      1 ----------------------------------------------------------------------------------------------
(PID.TID 0000.0001) //      0 innllaa-aaaaaaaaaaaaa------------------------------------------------------------------aaainnl
(PID.TID 0000.0001) //     -1 gnnllibbaaaaaaaa---aa-----------------------------------------------------bdda--------abffgnnl
(PID.TID 0000.0001) // =======================================================
(PID.TID 0000.0001) // END OF FIELD                                          =
(PID.TID 0000.0001) // =======================================================
(PID.TID 0000.0001) 
(PID.TID 0000.0001) // =======================================================
(PID.TID 0000.0001) // Field hFacC at iteration          0
(PID.TID 0000.0001) // CMIN =          1.000000000000000E+00
(PID.TID 0000.0001) // CMAX =          1.000000000000000E+00
(PID.TID 0000.0001) // CINT =          0.000000000000000E+00
(PID.TID 0000.0001) // SYMBOLS (CMIN->CMAX): -abcdefghijklmnopqrstuvwxyz+
(PID.TID 0000.0001) //                  0.0: .
(PID.TID 0000.0001) // RANGE I (Lo:Hi:Step):(    -1:    92:     1)
(PID.TID 0000.0001) // RANGE J (Lo:Hi:Step):(    42:    -1:    -1)
(PID.TID 0000.0001) // RANGE K (Lo:Hi:Step):(   1:   1:   1)
(PID.TID 0000.0001) // =======================================================
(PID.TID 0000.0001) // =======================================================
(PID.TID 0000.0001) // END OF FIELD                                          =
(PID.TID 0000.0001) // =======================================================
(PID.TID 0000.0001) 
(PID.TID 0000.0001) // =======================================================
(PID.TID 0000.0001) // Field hFacW at iteration          0
(PID.TID 0000.0001) // CMIN =          1.000000000000000E+00
(PID.TID 0000.0001) // CMAX =          1.000000000000000E+00
(PID.TID 0000.0001) // CINT =          0.000000000000000E+00
(PID.TID 0000.0001) // SYMBOLS (CMIN->CMAX): -abcdefghijklmnopqrstuvwxyz+
(PID.TID 0000.0001) //                  0.0: .
(PID.TID 0000.0001) // RANGE I (Lo:Hi:Step):(    -1:    92:     1)
(PID.TID 0000.0001) // RANGE J (Lo:Hi:Step):(    42:    -1:    -1)
(PID.TID 0000.0001) // RANGE K (Lo:Hi:Step):(   1:   1:   1)
(PID.TID 0000.0001) // =======================================================
(PID.TID 0000.0001) // =======================================================
(PID.TID 0000.0001) // END OF FIELD                                          =
(PID.TID 0000.0001) // =======================================================
(PID.TID 0000.0001) 
(PID.TID 0000.0001) // =======================================================
(PID.TID 0000.0001) // Field hFacS at iteration          0
(PID.TID 0000.0001) // CMIN =          1.000000000000000E+00
(PID.TID 0000.0001) // CMAX =          1.000000000000000E+00
(PID.TID 0000.0001) // CINT =          0.000000000000000E+00
(PID.TID 0000.0001) // SYMBOLS (CMIN->CMAX): -abcdefghijklmnopqrstuvwxyz+
(PID.TID 0000.0001) //                  0.0: .
(PID.TID 0000.0001) // RANGE I (Lo:Hi:Step):(    -1:    92:     1)
(PID.TID 0000.0001) // RANGE J (Lo:Hi:Step):(    42:    -1:    -1)
(PID.TID 0000.0001) // RANGE K (Lo:Hi:Step):(   1:   1:   1)
(PID.TID 0000.0001) // =======================================================
(PID.TID 0000.0001) // =======================================================
(PID.TID 0000.0001) // END OF FIELD                                          =
(PID.TID 0000.0001) // =======================================================
(PID.TID 0000.0001) 
(PID.TID 0000.0001) GAD_INIT_FIXED: GAD_OlMinSize=  1  0  1
(PID.TID 0000.0001) 
(PID.TID 0000.0001) // ===================================
(PID.TID 0000.0001) // GAD parameters :
(PID.TID 0000.0001) // ===================================
(PID.TID 0000.0001) tempAdvScheme =   /* Temp. Horiz.Advection scheme selector */
(PID.TID 0000.0001)                       2
(PID.TID 0000.0001)     ;
(PID.TID 0000.0001) tempVertAdvScheme =   /* Temp. Vert. Advection scheme selector */
(PID.TID 0000.0001)                       2
(PID.TID 0000.0001)     ;
(PID.TID 0000.0001) tempMultiDimAdvec =   /* use Muti-Dim Advec method for Temp */
(PID.TID 0000.0001)                   F
(PID.TID 0000.0001)     ;
(PID.TID 0000.0001) tempSOM_Advection = /* use 2nd Order Moment Advection for Temp */
(PID.TID 0000.0001)                   F
(PID.TID 0000.0001)     ;
(PID.TID 0000.0001) AdamsBashforthGt = /* apply Adams-Bashforth extrapolation on Gt */
(PID.TID 0000.0001)                   T
(PID.TID 0000.0001)     ;
(PID.TID 0000.0001) AdamsBashforth_T = /* apply Adams-Bashforth extrapolation on Temp */
(PID.TID 0000.0001)                   F
(PID.TID 0000.0001)     ;
(PID.TID 0000.0001) saltAdvScheme =   /* Salt. Horiz.advection scheme selector */
(PID.TID 0000.0001)                       2
(PID.TID 0000.0001)     ;
(PID.TID 0000.0001) saltVertAdvScheme =   /* Salt. Vert. Advection scheme selector */
(PID.TID 0000.0001)                       2
(PID.TID 0000.0001)     ;
(PID.TID 0000.0001) saltMultiDimAdvec =   /* use Muti-Dim Advec method for Salt */
(PID.TID 0000.0001)                   F
(PID.TID 0000.0001)     ;
(PID.TID 0000.0001) saltSOM_Advection = /* use 2nd Order Moment Advection for Salt */
(PID.TID 0000.0001)                   F
(PID.TID 0000.0001)     ;
(PID.TID 0000.0001) AdamsBashforthGs = /* apply Adams-Bashforth extrapolation on Gs */
(PID.TID 0000.0001)                   T
(PID.TID 0000.0001)     ;
(PID.TID 0000.0001) AdamsBashforth_S = /* apply Adams-Bashforth extrapolation on Salt */
(PID.TID 0000.0001)                   F
(PID.TID 0000.0001)     ;
(PID.TID 0000.0001) // ===================================
(PID.TID 0000.0001)  MDS_READ_FIELD: opening global file: deltageopotjmd95.bin
(PID.TID 0000.0001) %MON fCori_max                    =   1.4265546244797E-04
(PID.TID 0000.0001) %MON fCori_min                    =  -1.4265546244797E-04
(PID.TID 0000.0001) %MON fCori_mean                   =  -4.4717316269624E-19
(PID.TID 0000.0001) %MON fCori_sd                     =   9.6599226301547E-05
(PID.TID 0000.0001) %MON fCoriG_max                   =   1.4151032568025E-04
(PID.TID 0000.0001) %MON fCoriG_min                   =  -1.4362679550910E-04
(PID.TID 0000.0001) %MON fCoriG_mean                  =  -3.5906698877274E-06
(PID.TID 0000.0001) %MON fCoriG_sd                    =   9.6548915696245E-05
(PID.TID 0000.0001) %MON fCoriCos_max                 =   1.4575362704741E-04
(PID.TID 0000.0001) %MON fCoriCos_min                 =   3.0322354601388E-05
(PID.TID 0000.0001) %MON fCoriCos_mean                =   1.0288600773632E-04
(PID.TID 0000.0001) %MON fCoriCos_sd                  =   3.6784304327266E-05
(PID.TID 0000.0001) INI_CG2D: CG2D normalisation factor =  6.0025789459946987E-09
(PID.TID 0000.0001) 
(PID.TID 0000.0001) // =======================================================
(PID.TID 0000.0001) // Model configuration
(PID.TID 0000.0001) // =======================================================
(PID.TID 0000.0001) //
(PID.TID 0000.0001) // "Physical" paramters ( PARM01 in namelist )
(PID.TID 0000.0001) //
(PID.TID 0000.0001) buoyancyRelation = /* Type of relation to get Buoyancy */
(PID.TID 0000.0001)               'OCEANICP'
(PID.TID 0000.0001)     ;
(PID.TID 0000.0001) fluidIsAir   =  /* fluid major constituent is Air */
(PID.TID 0000.0001)                   F
(PID.TID 0000.0001)     ;
(PID.TID 0000.0001) fluidIsWater =  /* fluid major constituent is Water */
(PID.TID 0000.0001)                   T
(PID.TID 0000.0001)     ;
(PID.TID 0000.0001) usingPCoords =  /* use p (or p*) vertical coordinate */
(PID.TID 0000.0001)                   T
(PID.TID 0000.0001)     ;
(PID.TID 0000.0001) usingZCoords =  /* use z (or z*) vertical coordinate */
(PID.TID 0000.0001)                   F
(PID.TID 0000.0001)     ;
(PID.TID 0000.0001) tRef =   /* Reference temperature profile ( oC or K ) */
(PID.TID 0000.0001)    15 @  2.000000000000000E+01              /* K =  1: 15 */
(PID.TID 0000.0001)     ;
(PID.TID 0000.0001) sRef =   /* Reference salinity profile ( psu ) */
(PID.TID 0000.0001)    15 @  3.500000000000000E+01              /* K =  1: 15 */
(PID.TID 0000.0001)     ;
(PID.TID 0000.0001) useStrainTensionVisc= /* Use StrainTension Form of Viscous Operator */
(PID.TID 0000.0001)                   F
(PID.TID 0000.0001)     ;
(PID.TID 0000.0001) useVariableVisc = /* Use variable horizontal viscosity */
(PID.TID 0000.0001)                   F
(PID.TID 0000.0001)     ;
(PID.TID 0000.0001) useHarmonicVisc = /* Use harmonic horizontal viscosity */
(PID.TID 0000.0001)                   T
(PID.TID 0000.0001)     ;
(PID.TID 0000.0001) useBiharmonicVisc= /* Use biharmonic horiz.  viscosity */
(PID.TID 0000.0001)                   F
(PID.TID 0000.0001)     ;
(PID.TID 0000.0001) useSmag3D = /* Use isotropic 3-D Smagorinsky viscosity */
(PID.TID 0000.0001)                   F
(PID.TID 0000.0001)     ;
(PID.TID 0000.0001) viscAh  =   /* Lateral harmonic viscosity ( m^2/s ) */
(PID.TID 0000.0001)                 3.000000000000000E+05
(PID.TID 0000.0001)     ;
(PID.TID 0000.0001) viscA4  =   /* Lateral biharmonic viscosity ( m^4/s ) */
(PID.TID 0000.0001)                 0.000000000000000E+00
(PID.TID 0000.0001)     ;
(PID.TID 0000.0001) no_slip_sides =  /* Viscous BCs: No-slip sides */
(PID.TID 0000.0001)                   T
(PID.TID 0000.0001)     ;
(PID.TID 0000.0001) sideDragFactor = /* side-drag scaling factor (non-dim) */
(PID.TID 0000.0001)                 2.000000000000000E+00
(PID.TID 0000.0001)     ;
(PID.TID 0000.0001) viscArNr = /* vertical profile of vertical viscosity (Pa^2/s )*/
(PID.TID 0000.0001)    15 @  1.721611620915750E+05              /* K =  1: 15 */
(PID.TID 0000.0001)     ;
(PID.TID 0000.0001) no_slip_bottom =  /* Viscous BCs: No-slip bottom */
(PID.TID 0000.0001)                   F
(PID.TID 0000.0001)     ;
(PID.TID 0000.0001) bottomVisc_pCell = /* Partial-cell in bottom Visc. BC */
(PID.TID 0000.0001)                   F
(PID.TID 0000.0001)     ;
(PID.TID 0000.0001) bottomDragLinear = /* linear bottom-drag coefficient ( m/s ) */
(PID.TID 0000.0001)                 0.000000000000000E+00
(PID.TID 0000.0001)     ;
(PID.TID 0000.0001) bottomDragQuadratic = /* quadratic bottom-drag coefficient (-) */
(PID.TID 0000.0001)                 0.000000000000000E+00
(PID.TID 0000.0001)     ;
(PID.TID 0000.0001) selectBotDragQuadr = /* select quadratic bottom drag options */
(PID.TID 0000.0001)                      -1
(PID.TID 0000.0001)     ;
(PID.TID 0000.0001) diffKhT =   /* Laplacian diffusion of heat laterally ( m^2/s ) */
(PID.TID 0000.0001)                 1.000000000000000E+03
(PID.TID 0000.0001)     ;
(PID.TID 0000.0001) diffK4T =   /* Biharmonic diffusion of heat laterally ( m^4/s ) */
(PID.TID 0000.0001)                 0.000000000000000E+00
(PID.TID 0000.0001)     ;
(PID.TID 0000.0001) diffKhS =   /* Laplacian diffusion of salt laterally ( m^2/s ) */
(PID.TID 0000.0001)                 1.000000000000000E+03
(PID.TID 0000.0001)     ;
(PID.TID 0000.0001) diffK4S =   /* Biharmonic diffusion of salt laterally ( m^4/s ) */
(PID.TID 0000.0001)                 0.000000000000000E+00
(PID.TID 0000.0001)     ;
(PID.TID 0000.0001) diffKrNrT = /* vertical profile of vertical diffusion of Temp (Pa^2/s )*/
(PID.TID 0000.0001)    15 @  5.154525811125000E+03              /* K =  1: 15 */
(PID.TID 0000.0001)     ;
(PID.TID 0000.0001) diffKrNrS = /* vertical profile of vertical diffusion of Salt (Pa^2/s )*/
(PID.TID 0000.0001)    15 @  5.154525811125000E+03              /* K =  1: 15 */
(PID.TID 0000.0001)     ;
(PID.TID 0000.0001) diffKrBL79surf = /* Surface diffusion for Bryan and Lewis 79 ( m^2/s ) */
(PID.TID 0000.0001)                 0.000000000000000E+00
(PID.TID 0000.0001)     ;
(PID.TID 0000.0001) diffKrBL79deep = /* Deep diffusion for Bryan and Lewis 1979 ( m^2/s ) */
(PID.TID 0000.0001)                 0.000000000000000E+00
(PID.TID 0000.0001)     ;
(PID.TID 0000.0001) diffKrBL79scl = /* Depth scale for Bryan and Lewis 1979 ( m ) */
(PID.TID 0000.0001)                 2.000000000000000E+02
(PID.TID 0000.0001)     ;
(PID.TID 0000.0001) diffKrBL79Ho = /* Turning depth for Bryan and Lewis 1979 ( m ) */
(PID.TID 0000.0001)                -2.000000000000000E+03
(PID.TID 0000.0001)     ;
(PID.TID 0000.0001) ivdc_kappa = /* Implicit Vertical Diffusivity for Convection (Pa^2/s) */
(PID.TID 0000.0001)                 1.030905162225000E+09
(PID.TID 0000.0001)     ;
(PID.TID 0000.0001) hMixCriteria=  /* Criteria for mixed-layer diagnostic */
(PID.TID 0000.0001)                -8.000000000000000E-01
(PID.TID 0000.0001)     ;
(PID.TID 0000.0001) dRhoSmall =  /* Parameter for mixed-layer diagnostic */
(PID.TID 0000.0001)                 1.000000000000000E-06
(PID.TID 0000.0001)     ;
(PID.TID 0000.0001) hMixSmooth=  /* Smoothing parameter for mixed-layer diagnostic */
(PID.TID 0000.0001)                 0.000000000000000E+00
(PID.TID 0000.0001)     ;
(PID.TID 0000.0001) eosType =  /* Type of Equation of State */
(PID.TID 0000.0001)               'JMD95P'
(PID.TID 0000.0001)     ;
(PID.TID 0000.0001) HeatCapacity_Cp =  /* Specific heat capacity ( J/kg/K ) */
(PID.TID 0000.0001)                 3.994000000000000E+03
(PID.TID 0000.0001)     ;
(PID.TID 0000.0001) celsius2K = /* 0 degree Celsius converted to Kelvin ( K ) */
(PID.TID 0000.0001)                 2.731500000000000E+02
(PID.TID 0000.0001)     ;
(PID.TID 0000.0001) rhoConst  = /* Reference density (Boussinesq)  ( kg/m^3 ) */
(PID.TID 0000.0001)                 1.035000000000000E+03
(PID.TID 0000.0001)     ;
(PID.TID 0000.0001) rhoFacC = /* normalized Reference density @ cell-Center (-) */
(PID.TID 0000.0001)    15 @  1.000000000000000E+00              /* K =  1: 15 */
(PID.TID 0000.0001)     ;
(PID.TID 0000.0001) rhoFacF = /* normalized Reference density @ W-Interface (-) */
(PID.TID 0000.0001)    16 @  1.000000000000000E+00              /* K =  1: 16 */
(PID.TID 0000.0001)     ;
(PID.TID 0000.0001) rhoConstFresh = /* Fresh-water reference density ( kg/m^3 ) */
(PID.TID 0000.0001)                 1.000000000000000E+03
(PID.TID 0000.0001)     ;
(PID.TID 0000.0001) gravity =   /* Gravitational acceleration ( m/s^2 ) */
(PID.TID 0000.0001)                 9.810000000000000E+00
(PID.TID 0000.0001)     ;
(PID.TID 0000.0001) gBaro =   /* Barotropic gravity ( m/s^2 ) */
(PID.TID 0000.0001)                 9.810000000000000E+00
(PID.TID 0000.0001)     ;
(PID.TID 0000.0001) gravFacC = /* gravity factor (vs surf.) @ cell-Center (-) */
(PID.TID 0000.0001)    15 @  1.000000000000000E+00              /* K =  1: 15 */
(PID.TID 0000.0001)     ;
(PID.TID 0000.0001) gravFacF = /* gravity factor (vs surf.) @ W-Interface (-) */
(PID.TID 0000.0001)    16 @  1.000000000000000E+00              /* K =  1: 16 */
(PID.TID 0000.0001)     ;
(PID.TID 0000.0001) rotationPeriod =   /* Rotation Period ( s ) */
(PID.TID 0000.0001)                 8.616400000000000E+04
(PID.TID 0000.0001)     ;
(PID.TID 0000.0001) omega =   /* Angular velocity ( rad/s ) */
(PID.TID 0000.0001)                 7.292123516990375E-05
(PID.TID 0000.0001)     ;
(PID.TID 0000.0001) f0 =   /* Reference coriolis parameter ( 1/s ) */
(PID.TID 0000.0001)                 1.000000000000000E-04
(PID.TID 0000.0001)     ;
(PID.TID 0000.0001) beta =   /* Beta ( 1/(m.s) ) */
(PID.TID 0000.0001)                 9.999999999999999E-12
(PID.TID 0000.0001)     ;
(PID.TID 0000.0001) fPrime =   /* Second coriolis parameter ( 1/s ) */
(PID.TID 0000.0001)                 0.000000000000000E+00
(PID.TID 0000.0001)     ;
(PID.TID 0000.0001) rigidLid =   /* Rigid lid on/off flag */
(PID.TID 0000.0001)                   F
(PID.TID 0000.0001)     ;
(PID.TID 0000.0001) implicitFreeSurface =   /* Implicit free surface on/off flag */
(PID.TID 0000.0001)                   T
(PID.TID 0000.0001)     ;
(PID.TID 0000.0001) freeSurfFac =   /* Implicit free surface factor */
(PID.TID 0000.0001)                 1.000000000000000E+00
(PID.TID 0000.0001)     ;
(PID.TID 0000.0001) implicSurfPress =  /* Surface Pressure implicit factor (0-1) */
(PID.TID 0000.0001)                 1.000000000000000E+00
(PID.TID 0000.0001)     ;
(PID.TID 0000.0001) implicDiv2DFlow =  /* Barot. Flow Div. implicit factor (0-1) */
(PID.TID 0000.0001)                 1.000000000000000E+00
(PID.TID 0000.0001)     ;
(PID.TID 0000.0001) uniformLin_PhiSurf = /* use uniform Bo_surf on/off flag */
(PID.TID 0000.0001)                   T
(PID.TID 0000.0001)     ;
(PID.TID 0000.0001) uniformFreeSurfLev = /* free-surface level-index is uniform */
(PID.TID 0000.0001)                   F
(PID.TID 0000.0001)     ;
(PID.TID 0000.0001) sIceLoadFac =  /* scale factor for sIceLoad (0-1) */
(PID.TID 0000.0001)                 1.000000000000000E+00
(PID.TID 0000.0001)     ;
(PID.TID 0000.0001) hFacMin =   /* minimum partial cell factor (hFac) */
(PID.TID 0000.0001)                 1.000000000000000E+00
(PID.TID 0000.0001)     ;
(PID.TID 0000.0001) hFacMinDr = /* minimum partial cell thickness (Pa) */
(PID.TID 0000.0001)                 0.000000000000000E+00
(PID.TID 0000.0001)     ;
(PID.TID 0000.0001) exactConserv =  /* Exact Volume Conservation on/off flag */
(PID.TID 0000.0001)                   T
(PID.TID 0000.0001)     ;
(PID.TID 0000.0001) linFSConserveTr = /* Tracer correction for Lin Free Surface on/off flag */
(PID.TID 0000.0001)                   F
(PID.TID 0000.0001)     ;
(PID.TID 0000.0001) nonlinFreeSurf = /* Non-linear Free Surf. options (-1,0,1,2,3)*/
(PID.TID 0000.0001)                       4
(PID.TID 0000.0001)      -1,0= Off ; 1,2,3= On, 2=+rescale gU,gV, 3=+update cg2d solv.
(PID.TID 0000.0001)     ;
(PID.TID 0000.0001) hFacInf =   /* lower threshold for hFac (nonlinFreeSurf only)*/
(PID.TID 0000.0001)                 2.000000000000000E-01
(PID.TID 0000.0001)     ;
(PID.TID 0000.0001) hFacSup =   /* upper threshold for hFac (nonlinFreeSurf only)*/
(PID.TID 0000.0001)                 2.000000000000000E+00
(PID.TID 0000.0001)     ;
(PID.TID 0000.0001) select_rStar = /* r* Vertical coord. options (=0 r coord.; >0 uses r*)*/
(PID.TID 0000.0001)                       0
(PID.TID 0000.0001)     ;
(PID.TID 0000.0001) useRealFreshWaterFlux = /* Real Fresh Water Flux on/off flag*/
(PID.TID 0000.0001)                   F
(PID.TID 0000.0001)     ;
(PID.TID 0000.0001) temp_EvPrRn = /* Temp. of Evap/Prec/R (UNSET=use local T)(oC)*/
(PID.TID 0000.0001)                 1.234567000000000E+05
(PID.TID 0000.0001)     ;
(PID.TID 0000.0001) salt_EvPrRn = /* Salin. of Evap/Prec/R (UNSET=use local S)(psu)*/
(PID.TID 0000.0001)                 0.000000000000000E+00
(PID.TID 0000.0001)     ;
(PID.TID 0000.0001) selectAddFluid = /* option for mass source/sink of fluid (=0: off) */
(PID.TID 0000.0001)                       0
(PID.TID 0000.0001)     ;
(PID.TID 0000.0001) temp_addMass = /* Temp. of addMass array (UNSET=use local T)(oC)*/
(PID.TID 0000.0001)                 1.234567000000000E+05
(PID.TID 0000.0001)     ;
(PID.TID 0000.0001) salt_addMass = /* Salin. of addMass array (UNSET=use local S)(psu)*/
(PID.TID 0000.0001)                 0.000000000000000E+00
(PID.TID 0000.0001)     ;
(PID.TID 0000.0001) convertFW2Salt = /* convert F.W. Flux to Salt Flux (-1=use local S)(psu)*/
(PID.TID 0000.0001)                 3.500000000000000E+01
(PID.TID 0000.0001)     ;
(PID.TID 0000.0001) use3Dsolver = /* use 3-D pressure solver on/off flag */
(PID.TID 0000.0001)                   F
(PID.TID 0000.0001)     ;
(PID.TID 0000.0001) nonHydrostatic =  /* Non-Hydrostatic on/off flag */
(PID.TID 0000.0001)                   F
(PID.TID 0000.0001)     ;
(PID.TID 0000.0001) nh_Am2 = /* Non-Hydrostatic terms scaling factor */
(PID.TID 0000.0001)                 1.000000000000000E+00
(PID.TID 0000.0001)     ;
(PID.TID 0000.0001) implicitNHPress = /* Non-Hyd Pressure implicit factor (0-1)*/
(PID.TID 0000.0001)                 1.000000000000000E+00
(PID.TID 0000.0001)     ;
(PID.TID 0000.0001) selectNHfreeSurf = /* Non-Hyd (free-)Surface option */
(PID.TID 0000.0001)                       0
(PID.TID 0000.0001)     ;
(PID.TID 0000.0001) quasiHydrostatic = /* Quasi-Hydrostatic on/off flag */
(PID.TID 0000.0001)                   F
(PID.TID 0000.0001)     ;
(PID.TID 0000.0001) calc_wVelocity = /* vertical velocity calculation on/off flag */
(PID.TID 0000.0001)                   T
(PID.TID 0000.0001)     ;
(PID.TID 0000.0001) momStepping =  /* Momentum equation on/off flag */
(PID.TID 0000.0001)                   T
(PID.TID 0000.0001)     ;
(PID.TID 0000.0001) vectorInvariantMomentum= /* Vector-Invariant Momentum on/off */
(PID.TID 0000.0001)                   F
(PID.TID 0000.0001)     ;
(PID.TID 0000.0001) momAdvection =  /* Momentum advection on/off flag */
(PID.TID 0000.0001)                   T
(PID.TID 0000.0001)     ;
(PID.TID 0000.0001) momViscosity =  /* Momentum viscosity on/off flag */
(PID.TID 0000.0001)                   T
(PID.TID 0000.0001)     ;
(PID.TID 0000.0001) momImplVertAdv= /* Momentum implicit vert. advection on/off*/
(PID.TID 0000.0001)                   F
(PID.TID 0000.0001)     ;
(PID.TID 0000.0001) implicitViscosity = /* Implicit viscosity on/off flag */
(PID.TID 0000.0001)                   F
(PID.TID 0000.0001)     ;
(PID.TID 0000.0001) selectImplicitDrag= /* Implicit bot Drag options (0,1,2)*/
(PID.TID 0000.0001)                       0
(PID.TID 0000.0001)     0= Expl. ; 1= Impl. on provis. Vel ; 2= Fully Impl (with surf.P)
(PID.TID 0000.0001)     ;
(PID.TID 0000.0001) metricTerms =  /* metric-Terms on/off flag */
(PID.TID 0000.0001)                   T
(PID.TID 0000.0001)     ;
(PID.TID 0000.0001) useNHMTerms = /* Non-Hydrostatic Metric-Terms on/off */
(PID.TID 0000.0001)                   T
(PID.TID 0000.0001)     ;
(PID.TID 0000.0001) selectCoriMap = /* Coriolis Map options (0,1,2,3)*/
(PID.TID 0000.0001)                       2
(PID.TID 0000.0001)     0= f-Plane ; 1= Beta-Plane ; 2= Spherical ; 3= read from file
(PID.TID 0000.0001)     ;
(PID.TID 0000.0001) use3dCoriolis = /* 3-D Coriolis on/off flag */
(PID.TID 0000.0001)                   F
(PID.TID 0000.0001)     ;
(PID.TID 0000.0001) useCoriolis =  /* Coriolis on/off flag */
(PID.TID 0000.0001)                   T
(PID.TID 0000.0001)     ;
(PID.TID 0000.0001) useCDscheme =  /* CD scheme on/off flag */
(PID.TID 0000.0001)                   F
(PID.TID 0000.0001)     ;
(PID.TID 0000.0001) selectCoriScheme= /* Scheme selector for Coriolis-Term */
(PID.TID 0000.0001)                       0
(PID.TID 0000.0001)    = 0 : original discretization (simple averaging, no hFac)
(PID.TID 0000.0001)    = 1 : Wet-point averaging (Jamar & Ozer 1986)
(PID.TID 0000.0001)    = 2 : energy conserving scheme (no hFac weight)
(PID.TID 0000.0001)    = 3 : energy conserving scheme using Wet-point averaging
(PID.TID 0000.0001)     ;
(PID.TID 0000.0001) momForcing =  /* Momentum forcing on/off flag */
(PID.TID 0000.0001)                   T
(PID.TID 0000.0001)     ;
(PID.TID 0000.0001) momTidalForcing = /* Momentum Tidal forcing on/off flag */
(PID.TID 0000.0001)                   T
(PID.TID 0000.0001)     ;
(PID.TID 0000.0001) momPressureForcing =  /* Momentum pressure term on/off flag */
(PID.TID 0000.0001)                   T
(PID.TID 0000.0001)     ;
(PID.TID 0000.0001) implicitIntGravWave= /* Implicit Internal Gravity Wave flag */
(PID.TID 0000.0001)                   F
(PID.TID 0000.0001)     ;
(PID.TID 0000.0001) staggerTimeStep =    /* Stagger time stepping on/off flag */
(PID.TID 0000.0001)                   F
(PID.TID 0000.0001)     ;
(PID.TID 0000.0001) doResetHFactors = /* reset thickness factors @ each time-step */
(PID.TID 0000.0001)                   T
(PID.TID 0000.0001)     ;
(PID.TID 0000.0001) multiDimAdvection =  /* enable/disable Multi-Dim Advection */
(PID.TID 0000.0001)                   T
(PID.TID 0000.0001)     ;
(PID.TID 0000.0001) useMultiDimAdvec =   /* Multi-Dim Advection is/is-not used */
(PID.TID 0000.0001)                   F
(PID.TID 0000.0001)     ;
(PID.TID 0000.0001) implicitDiffusion = /* Implicit Diffusion on/off flag */
(PID.TID 0000.0001)                   T
(PID.TID 0000.0001)     ;
(PID.TID 0000.0001) tempStepping =  /* Temperature equation on/off flag */
(PID.TID 0000.0001)                   T
(PID.TID 0000.0001)     ;
(PID.TID 0000.0001) tempAdvection = /* Temperature advection on/off flag */
(PID.TID 0000.0001)                   T
(PID.TID 0000.0001)     ;
(PID.TID 0000.0001) tempImplVertAdv = /* Temp. implicit vert. advection on/off */
(PID.TID 0000.0001)                   F
(PID.TID 0000.0001)     ;
(PID.TID 0000.0001) tempForcing  =  /* Temperature forcing on/off flag */
(PID.TID 0000.0001)                   T
(PID.TID 0000.0001)     ;
(PID.TID 0000.0001) doThetaClimRelax = /* apply SST relaxation on/off flag */
(PID.TID 0000.0001)                   T
(PID.TID 0000.0001)     ;
(PID.TID 0000.0001) tempIsActiveTr = /* Temp. is a dynamically Active Tracer */
(PID.TID 0000.0001)                   T
(PID.TID 0000.0001)     ;
(PID.TID 0000.0001) saltStepping =  /* Salinity equation on/off flag */
(PID.TID 0000.0001)                   T
(PID.TID 0000.0001)     ;
(PID.TID 0000.0001) saltAdvection = /* Salinity advection on/off flag */
(PID.TID 0000.0001)                   T
(PID.TID 0000.0001)     ;
(PID.TID 0000.0001) saltImplVertAdv = /* Sali. implicit vert. advection on/off */
(PID.TID 0000.0001)                   F
(PID.TID 0000.0001)     ;
(PID.TID 0000.0001) saltForcing  =  /* Salinity forcing on/off flag */
(PID.TID 0000.0001)                   T
(PID.TID 0000.0001)     ;
(PID.TID 0000.0001) doSaltClimRelax = /* apply SSS relaxation on/off flag */
(PID.TID 0000.0001)                   F
(PID.TID 0000.0001)     ;
(PID.TID 0000.0001) saltIsActiveTr = /* Salt  is a dynamically Active Tracer */
(PID.TID 0000.0001)                   T
(PID.TID 0000.0001)     ;
(PID.TID 0000.0001)  readBinaryPrec = /* Precision used for reading binary files */
(PID.TID 0000.0001)                      64
(PID.TID 0000.0001)     ;
(PID.TID 0000.0001) writeBinaryPrec = /* Precision used for writing binary files */
(PID.TID 0000.0001)                      64
(PID.TID 0000.0001)     ;
(PID.TID 0000.0001)  rwSuffixType =   /* select format of mds file suffix */
(PID.TID 0000.0001)                       0
(PID.TID 0000.0001)    = 0 : myIter (I10.10) ;   = 1 : 100*myTime (100th sec) ;
(PID.TID 0000.0001)    = 2 : myTime (seconds);   = 3 : myTime/360 (10th of hr);
(PID.TID 0000.0001)    = 4 : myTime/3600 (hours)
(PID.TID 0000.0001)     ;
(PID.TID 0000.0001)  globalFiles = /* write "global" (=not per tile) files */
(PID.TID 0000.0001)                   F
(PID.TID 0000.0001)     ;
(PID.TID 0000.0001)  useSingleCpuIO = /* only master MPI process does I/O */
(PID.TID 0000.0001)                   F
(PID.TID 0000.0001)     ;
(PID.TID 0000.0001)  useSingleCpuInput = /* only master process reads input */
(PID.TID 0000.0001)                   F
(PID.TID 0000.0001)     ;
(PID.TID 0000.0001) /* debLev[*]  : level of debug & auxiliary message printing */
(PID.TID 0000.0001) debLevZero =  0 ; /* level of disabled aux. msg printing */
(PID.TID 0000.0001)    debLevA =  1 ; /* level of minimum  aux. msg printing */
(PID.TID 0000.0001)    debLevB =  2 ; /* level of low aux. print (report read-file opening)*/
(PID.TID 0000.0001)    debLevC =  3 ; /* level of moderate debug prt (most pkgs debug msg) */
(PID.TID 0000.0001)    debLevD =  4 ; /* level of enhanced debug prt (add DEBUG_STATS prt) */
(PID.TID 0000.0001)    debLevE =  5 ; /* level of extensive debug printing */
(PID.TID 0000.0001) debugLevel =  /* select debug printing level */
(PID.TID 0000.0001)                       2
(PID.TID 0000.0001)     ;
(PID.TID 0000.0001)  plotLevel =  /* select PLOT_FIELD printing level */
(PID.TID 0000.0001)                       2
(PID.TID 0000.0001)     ;
(PID.TID 0000.0001) //
(PID.TID 0000.0001) // Elliptic solver(s) paramters ( PARM02 in namelist )
(PID.TID 0000.0001) //
(PID.TID 0000.0001) cg2dMaxIters =   /* Upper limit on 2d con. grad iterations  */
(PID.TID 0000.0001)                     200
(PID.TID 0000.0001)     ;
(PID.TID 0000.0001) cg2dChkResFreq =   /* 2d con. grad convergence test frequency */
(PID.TID 0000.0001)                       1
(PID.TID 0000.0001)     ;
(PID.TID 0000.0001) cg2dUseMinResSol= /* use cg2d last-iter(=0) / min-resid.(=1) solution */
(PID.TID 0000.0001)                       0
(PID.TID 0000.0001)     ;
(PID.TID 0000.0001) cg2dTargetResidual =   /* 2d con. grad target residual  */
(PID.TID 0000.0001)                 1.000000000000000E-09
(PID.TID 0000.0001)     ;
(PID.TID 0000.0001) cg2dTargetResWunit =   /* CG2d target residual [W units] */
(PID.TID 0000.0001)                -1.000000000000000E+00
(PID.TID 0000.0001)     ;
(PID.TID 0000.0001) cg2dPreCondFreq =   /* Freq. for updating cg2d preconditioner */
(PID.TID 0000.0001)                       1
(PID.TID 0000.0001)     ;
(PID.TID 0000.0001) useSRCGSolver =  /* use single reduction CG solver(s) */
(PID.TID 0000.0001)                   F
(PID.TID 0000.0001)     ;
(PID.TID 0000.0001) printResidualFreq = /* Freq. for printing CG residual */
(PID.TID 0000.0001)                       0
(PID.TID 0000.0001)     ;
(PID.TID 0000.0001) //
(PID.TID 0000.0001) // Time stepping paramters ( PARM03 in namelist )
(PID.TID 0000.0001) //
(PID.TID 0000.0001) deltaTMom =   /* Momentum equation timestep ( s ) */
(PID.TID 0000.0001)                 1.200000000000000E+03
(PID.TID 0000.0001)     ;
(PID.TID 0000.0001) deltaTFreeSurf = /* FreeSurface equation timestep ( s ) */
(PID.TID 0000.0001)                 1.728000000000000E+05
(PID.TID 0000.0001)     ;
(PID.TID 0000.0001) dTtracerLev =  /* Tracer equation timestep ( s ) */
(PID.TID 0000.0001)    15 @  1.728000000000000E+05              /* K =  1: 15 */
(PID.TID 0000.0001)     ;
(PID.TID 0000.0001) deltaTClock  =   /* Model clock timestep ( s ) */
(PID.TID 0000.0001)                 1.728000000000000E+05
(PID.TID 0000.0001)     ;
(PID.TID 0000.0001) cAdjFreq =   /* Convective adjustment interval ( s ) */
(PID.TID 0000.0001)                 0.000000000000000E+00
(PID.TID 0000.0001)     ;
(PID.TID 0000.0001) momForcingOutAB = /* =1: take Momentum Forcing out of Adams-Bash. stepping */
(PID.TID 0000.0001)                       0
(PID.TID 0000.0001)     ;
(PID.TID 0000.0001) tracForcingOutAB = /* =1: take T,S,pTr Forcing out of Adams-Bash. stepping */
(PID.TID 0000.0001)                       0
(PID.TID 0000.0001)     ;
(PID.TID 0000.0001) momDissip_In_AB = /* put Dissipation Tendency in Adams-Bash. stepping */
(PID.TID 0000.0001)                   T
(PID.TID 0000.0001)     ;
(PID.TID 0000.0001) doAB_onGtGs = /* apply AB on Tendencies (rather than on T,S)*/
(PID.TID 0000.0001)                   T
(PID.TID 0000.0001)     ;
(PID.TID 0000.0001) abEps =   /* Adams-Bashforth-2 stabilizing weight */
(PID.TID 0000.0001)                 1.000000000000000E-01
(PID.TID 0000.0001)     ;
(PID.TID 0000.0001) applyExchUV_early = /* Apply EXCH to U,V earlier in time-step */
(PID.TID 0000.0001)                   F
(PID.TID 0000.0001)     ;
(PID.TID 0000.0001) pickupStrictlyMatch= /* stop if pickup do not strictly match */
(PID.TID 0000.0001)                   T
(PID.TID 0000.0001)     ;
(PID.TID 0000.0001) nIter0   =   /* Run starting timestep number */
(PID.TID 0000.0001)                       0
(PID.TID 0000.0001)     ;
(PID.TID 0000.0001) nTimeSteps = /* Number of timesteps */
(PID.TID 0000.0001)                      20
(PID.TID 0000.0001)     ;
(PID.TID 0000.0001) nEndIter =   /* Run ending timestep number */
(PID.TID 0000.0001)                      20
(PID.TID 0000.0001)     ;
(PID.TID 0000.0001) baseTime =   /* Model base time ( s ) */
(PID.TID 0000.0001)                 0.000000000000000E+00
(PID.TID 0000.0001)     ;
(PID.TID 0000.0001) startTime =  /* Run start time ( s ) */
(PID.TID 0000.0001)                 0.000000000000000E+00
(PID.TID 0000.0001)     ;
(PID.TID 0000.0001) endTime  =   /* Integration ending time ( s ) */
(PID.TID 0000.0001)                 3.456000000000000E+06
(PID.TID 0000.0001)     ;
(PID.TID 0000.0001) pChkPtFreq = /* Permanent restart/pickup file interval ( s ) */
(PID.TID 0000.0001)                 3.110400000000000E+09
(PID.TID 0000.0001)     ;
(PID.TID 0000.0001) chkPtFreq  = /* Rolling restart/pickup file interval ( s ) */
(PID.TID 0000.0001)                 0.000000000000000E+00
(PID.TID 0000.0001)     ;
(PID.TID 0000.0001) pickup_write_mdsio =   /* Model IO flag. */
(PID.TID 0000.0001)                   T
(PID.TID 0000.0001)     ;
(PID.TID 0000.0001) pickup_read_mdsio =   /* Model IO flag. */
(PID.TID 0000.0001)                   T
(PID.TID 0000.0001)     ;
(PID.TID 0000.0001) writePickupAtEnd =   /* Model IO flag. */
(PID.TID 0000.0001)                   T
(PID.TID 0000.0001)     ;
(PID.TID 0000.0001) dumpFreq =   /* Model state write out interval ( s ). */
(PID.TID 0000.0001)                 3.110400000000000E+09
(PID.TID 0000.0001)     ;
(PID.TID 0000.0001) dumpInitAndLast= /* write out Initial & Last iter. model state */
(PID.TID 0000.0001)                   T
(PID.TID 0000.0001)     ;
(PID.TID 0000.0001) snapshot_mdsio =   /* Model IO flag. */
(PID.TID 0000.0001)                   T
(PID.TID 0000.0001)     ;
(PID.TID 0000.0001) monitorFreq =   /* Monitor output interval ( s ). */
(PID.TID 0000.0001)                 1.000000000000000E+00
(PID.TID 0000.0001)     ;
(PID.TID 0000.0001) monitorSelect = /* select group of variables to monitor */
(PID.TID 0000.0001)                       3
(PID.TID 0000.0001)     ;
(PID.TID 0000.0001) monitor_stdio =   /* Model IO flag. */
(PID.TID 0000.0001)                   T
(PID.TID 0000.0001)     ;
(PID.TID 0000.0001) externForcingPeriod =   /* forcing period (s) */
(PID.TID 0000.0001)                 2.592000000000000E+06
(PID.TID 0000.0001)     ;
(PID.TID 0000.0001) externForcingCycle =   /* period of the cyle (s). */
(PID.TID 0000.0001)                 3.110400000000000E+07
(PID.TID 0000.0001)     ;
(PID.TID 0000.0001) tauThetaClimRelax =   /* relaxation time scale (s) */
(PID.TID 0000.0001)                 5.184000000000000E+06
(PID.TID 0000.0001)     ;
(PID.TID 0000.0001) tauSaltClimRelax =   /* relaxation time scale (s) */
(PID.TID 0000.0001)                 0.000000000000000E+00
(PID.TID 0000.0001)     ;
(PID.TID 0000.0001) latBandClimRelax =   /* max. Lat. where relaxation */
(PID.TID 0000.0001)                 1.800000000000000E+02
(PID.TID 0000.0001)     ;
(PID.TID 0000.0001) //
(PID.TID 0000.0001) // Gridding paramters ( PARM04 in namelist )
(PID.TID 0000.0001) //
(PID.TID 0000.0001) usingCartesianGrid = /* Cartesian coordinates flag ( True/False ) */
(PID.TID 0000.0001)                   F
(PID.TID 0000.0001)     ;
(PID.TID 0000.0001) usingCylindricalGrid = /* Cylindrical coordinates flag ( True/False ) */
(PID.TID 0000.0001)                   F
(PID.TID 0000.0001)     ;
(PID.TID 0000.0001) usingSphericalPolarGrid = /* Spherical coordinates flag ( True/False ) */
(PID.TID 0000.0001)                   T
(PID.TID 0000.0001)     ;
(PID.TID 0000.0001) usingCurvilinearGrid = /* Curvilinear coordinates flag ( True/False ) */
(PID.TID 0000.0001)                   F
(PID.TID 0000.0001)     ;
(PID.TID 0000.0001) useMin4hFacEdges = /* set hFacW,S as minimum of adjacent hFacC factor */
(PID.TID 0000.0001)                   F
(PID.TID 0000.0001)     ;
(PID.TID 0000.0001) interViscAr_pCell = /* account for partial-cell in interior vert. viscosity */
(PID.TID 0000.0001)                   F
(PID.TID 0000.0001)     ;
(PID.TID 0000.0001) interDiffKr_pCell = /* account for partial-cell in interior vert. diffusion */
(PID.TID 0000.0001)                   F
(PID.TID 0000.0001)     ;
(PID.TID 0000.0001) pCellMix_select = /* option to enhance mixing near surface & bottom */
(PID.TID 0000.0001)                       0
(PID.TID 0000.0001)     ;
(PID.TID 0000.0001) selectSigmaCoord = /* Hybrid-Sigma Vert. Coordinate option */
(PID.TID 0000.0001)                       0
(PID.TID 0000.0001)     ;
(PID.TID 0000.0001) rSigmaBnd = /* r/sigma transition ( units of r == Pa ) */
(PID.TID 0000.0001)                 1.234567000000000E+05
(PID.TID 0000.0001)     ;
(PID.TID 0000.0001) rkSign =   /* index orientation relative to vertical coordinate */
(PID.TID 0000.0001)                -1.000000000000000E+00
(PID.TID 0000.0001)     ;
(PID.TID 0000.0001) gravitySign = /* gravity orientation relative to vertical coordinate */
(PID.TID 0000.0001)                 1.000000000000000E+00
(PID.TID 0000.0001)     ;
(PID.TID 0000.0001) seaLev_Z =  /* reference height of sea-level [m] */
(PID.TID 0000.0001)                 0.000000000000000E+00
(PID.TID 0000.0001)     ;
(PID.TID 0000.0001) top_Pres =  /* pressure at the top (r-axis origin) [Pa] */
(PID.TID 0000.0001)                 1.000000000000000E-06
(PID.TID 0000.0001)     ;
(PID.TID 0000.0001) mass2rUnit = /* convert mass per unit area [kg/m2] to r-units [Pa] */
(PID.TID 0000.0001)                 9.810000000000000E+00
(PID.TID 0000.0001)     ;
(PID.TID 0000.0001) rUnit2mass = /* convert r-units [Pa] to mass per unit area [kg/m2] */
(PID.TID 0000.0001)                 1.019367991845056E-01
(PID.TID 0000.0001)     ;
(PID.TID 0000.0001) drC =   /* C spacing ( units of r ) */
(PID.TID 0000.0001)                 3.551650360010500E+06,      /* K =  1 */
(PID.TID 0000.0001)                 6.836924580405500E+06,      /* K =  2 */
(PID.TID 0000.0001)                 6.306109225519501E+06,      /* K =  3 */
(PID.TID 0000.0001)                 5.779053338153000E+06,      /* K =  4 */
(PID.TID 0000.0001)                 5.255519350233500E+06,      /* K =  5 */
(PID.TID 0000.0001)                 4.735252734850001E+06,      /* K =  6 */
(PID.TID 0000.0001)                 4.217983340545500E+06,      /* K =  7 */
(PID.TID 0000.0001)                 3.703426779226000E+06,      /* K =  8 */
(PID.TID 0000.0001)                 3.191285859157500E+06,      /* K =  9 */
(PID.TID 0000.0001)                 2.681252055355000E+06,      /* K = 10 */
(PID.TID 0000.0001)                 2.173007010517000E+06,      /* K = 11 */
(PID.TID 0000.0001)                 1.666224060479000E+06,      /* K = 12 */
(PID.TID 0000.0001)                 1.211001777568000E+06,      /* K = 13 */
(PID.TID 0000.0001)                 8.573828878235000E+05,      /* K = 14 */
(PID.TID 0000.0001)                 6.050043594899999E+05,      /* K = 15 */
(PID.TID 0000.0001)                 2.520448467495000E+05       /* K = 16 */
(PID.TID 0000.0001)     ;
(PID.TID 0000.0001) drF =   /* W spacing ( units of r ) */
(PID.TID 0000.0001)                 7.103300720021000E+06,      /* K =  1 */
(PID.TID 0000.0001)                 6.570548440790000E+06,      /* K =  2 */
(PID.TID 0000.0001)                 6.041670010249000E+06,      /* K =  3 */
(PID.TID 0000.0001)                 5.516436666057000E+06,      /* K =  4 */
(PID.TID 0000.0001)                 4.994602034410000E+06,      /* K =  5 */
(PID.TID 0000.0001)                 4.475903435290000E+06,      /* K =  6 */
(PID.TID 0000.0001)                 3.960063245801000E+06,      /* K =  7 */
(PID.TID 0000.0001)                 3.446790312651000E+06,      /* K =  8 */
(PID.TID 0000.0001)                 2.935781405664000E+06,      /* K =  9 */
(PID.TID 0000.0001)                 2.426722705046000E+06,      /* K = 10 */
(PID.TID 0000.0001)                 1.919291315988000E+06,      /* K = 11 */
(PID.TID 0000.0001)                 1.413156804970000E+06,      /* K = 12 */
(PID.TID 0000.0001)                 1.008846750166000E+06,      /* K = 13 */
(PID.TID 0000.0001)                 7.059190254810000E+05,      /* K = 14 */
(PID.TID 0000.0001)                 5.040896934990000E+05       /* K = 15 */
(PID.TID 0000.0001)     ;
(PID.TID 0000.0001) delX = /* U spacing ( m - cartesian, degrees - spherical ) */
(PID.TID 0000.0001)    90 @  4.000000000000000E+00              /* I =  1: 90 */
(PID.TID 0000.0001)     ;
(PID.TID 0000.0001) delY = /* V spacing ( m - cartesian, degrees - spherical ) */
(PID.TID 0000.0001)    40 @  4.000000000000000E+00              /* J =  1: 40 */
(PID.TID 0000.0001)     ;
(PID.TID 0000.0001) xgOrigin = /* X-axis origin of West  edge (cartesian: m, lat-lon: deg) */
(PID.TID 0000.0001)                 0.000000000000000E+00
(PID.TID 0000.0001)     ;
(PID.TID 0000.0001) ygOrigin = /* Y-axis origin of South edge (cartesian: m, lat-lon: deg) */
(PID.TID 0000.0001)                -8.000000000000000E+01
(PID.TID 0000.0001)     ;
(PID.TID 0000.0001) rSphere =  /* Radius ( ignored - cartesian, m - spherical ) */
(PID.TID 0000.0001)                 6.370000000000000E+06
(PID.TID 0000.0001)     ;
(PID.TID 0000.0001) deepAtmosphere = /* Deep/Shallow Atmosphere flag (True/False) */
(PID.TID 0000.0001)                   F
(PID.TID 0000.0001)     ;
(PID.TID 0000.0001) xC =  /* xC(:,1,:,1) : P-point X coord ( deg. or m if cartesian) */
(PID.TID 0000.0001)                 2.000000000000000E+00,      /* I =  1 */
(PID.TID 0000.0001)                 6.000000000000000E+00,      /* I =  2 */
(PID.TID 0000.0001)                 1.000000000000000E+01,      /* I =  3 */
(PID.TID 0000.0001)      . . .
(PID.TID 0000.0001)                 8.200000000000000E+01,      /* I = 21 */
(PID.TID 0000.0001)                 8.600000000000000E+01,      /* I = 22 */
(PID.TID 0000.0001)                 9.000000000000000E+01,      /* I = 23 */
(PID.TID 0000.0001)                 9.400000000000000E+01,      /* I = 24 */
(PID.TID 0000.0001)                 9.800000000000000E+01,      /* I = 25 */
(PID.TID 0000.0001)                 1.020000000000000E+02,      /* I = 26 */
(PID.TID 0000.0001)      . . .
(PID.TID 0000.0001)                 1.700000000000000E+02,      /* I = 43 */
(PID.TID 0000.0001)                 1.740000000000000E+02,      /* I = 44 */
(PID.TID 0000.0001)                 1.780000000000000E+02,      /* I = 45 */
(PID.TID 0000.0001)                 1.820000000000000E+02,      /* I = 46 */
(PID.TID 0000.0001)                 1.860000000000000E+02,      /* I = 47 */
(PID.TID 0000.0001)                 1.900000000000000E+02,      /* I = 48 */
(PID.TID 0000.0001)      . . .
(PID.TID 0000.0001)                 2.580000000000000E+02,      /* I = 65 */
(PID.TID 0000.0001)                 2.620000000000000E+02,      /* I = 66 */
(PID.TID 0000.0001)                 2.660000000000000E+02,      /* I = 67 */
(PID.TID 0000.0001)                 2.700000000000000E+02,      /* I = 68 */
(PID.TID 0000.0001)                 2.740000000000000E+02,      /* I = 69 */
(PID.TID 0000.0001)                 2.780000000000000E+02,      /* I = 70 */
(PID.TID 0000.0001)      . . .
(PID.TID 0000.0001)                 3.500000000000000E+02,      /* I = 88 */
(PID.TID 0000.0001)                 3.540000000000000E+02,      /* I = 89 */
(PID.TID 0000.0001)                 3.580000000000000E+02       /* I = 90 */
(PID.TID 0000.0001)     ;
(PID.TID 0000.0001) yC =  /* yC(1,:,1,:) : P-point Y coord ( deg. or m if cartesian) */
(PID.TID 0000.0001)                -7.800000000000000E+01,      /* J =  1 */
(PID.TID 0000.0001)                -7.400000000000000E+01,      /* J =  2 */
(PID.TID 0000.0001)                -7.000000000000000E+01,      /* J =  3 */
(PID.TID 0000.0001)                -6.600000000000000E+01,      /* J =  4 */
(PID.TID 0000.0001)                -6.200000000000000E+01,      /* J =  5 */
(PID.TID 0000.0001)                -5.800000000000000E+01,      /* J =  6 */
(PID.TID 0000.0001)                -5.400000000000000E+01,      /* J =  7 */
(PID.TID 0000.0001)                -5.000000000000000E+01,      /* J =  8 */
(PID.TID 0000.0001)                -4.600000000000000E+01,      /* J =  9 */
(PID.TID 0000.0001)                -4.200000000000000E+01,      /* J = 10 */
(PID.TID 0000.0001)                -3.800000000000000E+01,      /* J = 11 */
(PID.TID 0000.0001)                -3.400000000000000E+01,      /* J = 12 */
(PID.TID 0000.0001)                -3.000000000000000E+01,      /* J = 13 */
(PID.TID 0000.0001)                -2.600000000000000E+01,      /* J = 14 */
(PID.TID 0000.0001)                -2.200000000000000E+01,      /* J = 15 */
(PID.TID 0000.0001)                -1.800000000000000E+01,      /* J = 16 */
(PID.TID 0000.0001)                -1.400000000000000E+01,      /* J = 17 */
(PID.TID 0000.0001)                -1.000000000000000E+01,      /* J = 18 */
(PID.TID 0000.0001)                -6.000000000000000E+00,      /* J = 19 */
(PID.TID 0000.0001)                -2.000000000000000E+00,      /* J = 20 */
(PID.TID 0000.0001)                 2.000000000000000E+00,      /* J = 21 */
(PID.TID 0000.0001)                 6.000000000000000E+00,      /* J = 22 */
(PID.TID 0000.0001)                 1.000000000000000E+01,      /* J = 23 */
(PID.TID 0000.0001)                 1.400000000000000E+01,      /* J = 24 */
(PID.TID 0000.0001)                 1.800000000000000E+01,      /* J = 25 */
(PID.TID 0000.0001)                 2.200000000000000E+01,      /* J = 26 */
(PID.TID 0000.0001)                 2.600000000000000E+01,      /* J = 27 */
(PID.TID 0000.0001)                 3.000000000000000E+01,      /* J = 28 */
(PID.TID 0000.0001)                 3.400000000000000E+01,      /* J = 29 */
(PID.TID 0000.0001)                 3.800000000000000E+01,      /* J = 30 */
(PID.TID 0000.0001)                 4.200000000000000E+01,      /* J = 31 */
(PID.TID 0000.0001)                 4.600000000000000E+01,      /* J = 32 */
(PID.TID 0000.0001)                 5.000000000000000E+01,      /* J = 33 */
(PID.TID 0000.0001)                 5.400000000000000E+01,      /* J = 34 */
(PID.TID 0000.0001)                 5.800000000000000E+01,      /* J = 35 */
(PID.TID 0000.0001)                 6.200000000000000E+01,      /* J = 36 */
(PID.TID 0000.0001)                 6.600000000000000E+01,      /* J = 37 */
(PID.TID 0000.0001)                 7.000000000000000E+01,      /* J = 38 */
(PID.TID 0000.0001)                 7.400000000000000E+01,      /* J = 39 */
(PID.TID 0000.0001)                 7.800000000000000E+01       /* J = 40 */
(PID.TID 0000.0001)     ;
(PID.TID 0000.0001) rcoord = /* P-point R coordinate (  units of r ) */
(PID.TID 0000.0001)                 4.947147220607349E+07,      /* K =  1 */
(PID.TID 0000.0001)                 4.263454762566800E+07,      /* K =  2 */
(PID.TID 0000.0001)                 3.632843840014850E+07,      /* K =  3 */
(PID.TID 0000.0001)                 3.054938506199550E+07,      /* K =  4 */
(PID.TID 0000.0001)                 2.529386571176200E+07,      /* K =  5 */
(PID.TID 0000.0001)                 2.055861297691200E+07,      /* K =  6 */
(PID.TID 0000.0001)                 1.634062963636650E+07,      /* K =  7 */
(PID.TID 0000.0001)                 1.263720285714050E+07,      /* K =  8 */
(PID.TID 0000.0001)                 9.445916997983001E+06,      /* K =  9 */
(PID.TID 0000.0001)                 6.764664942628000E+06,      /* K = 10 */
(PID.TID 0000.0001)                 4.591657932111000E+06,      /* K = 11 */
(PID.TID 0000.0001)                 2.925433871632000E+06,      /* K = 12 */
(PID.TID 0000.0001)                 1.714432094064000E+06,      /* K = 13 */
(PID.TID 0000.0001)                 8.570492062405000E+05,      /* K = 14 */
(PID.TID 0000.0001)                 2.520448467505000E+05       /* K = 15 */
(PID.TID 0000.0001)     ;
(PID.TID 0000.0001) rF =   /* W-Interf. R coordinate (  units of r ) */
(PID.TID 0000.0001)                 5.302312256608400E+07,      /* K =  1 */
(PID.TID 0000.0001)                 4.591982184606300E+07,      /* K =  2 */
(PID.TID 0000.0001)                 3.934927340527301E+07,      /* K =  3 */
(PID.TID 0000.0001)                 3.330760339502400E+07,      /* K =  4 */
(PID.TID 0000.0001)                 2.779116672896700E+07,      /* K =  5 */
(PID.TID 0000.0001)                 2.279656469455700E+07,      /* K =  6 */
(PID.TID 0000.0001)                 1.832066125926700E+07,      /* K =  7 */
(PID.TID 0000.0001)                 1.436059801346600E+07,      /* K =  8 */
(PID.TID 0000.0001)                 1.091380770081500E+07,      /* K =  9 */
(PID.TID 0000.0001)                 7.978026295151000E+06,      /* K = 10 */
(PID.TID 0000.0001)                 5.551303590105000E+06,      /* K = 11 */
(PID.TID 0000.0001)                 3.632012274117000E+06,      /* K = 12 */
(PID.TID 0000.0001)                 2.218855469147000E+06,      /* K = 13 */
(PID.TID 0000.0001)                 1.210008718981000E+06,      /* K = 14 */
(PID.TID 0000.0001)                 5.040896935000000E+05,      /* K = 15 */
(PID.TID 0000.0001)                 1.000000000000000E-06       /* K = 16 */
(PID.TID 0000.0001)     ;
(PID.TID 0000.0001) deepFacC = /* deep-model grid factor @ cell-Center (-) */
(PID.TID 0000.0001)    15 @  1.000000000000000E+00              /* K =  1: 15 */
(PID.TID 0000.0001)     ;
(PID.TID 0000.0001) deepFacF = /* deep-model grid factor @ W-Interface (-) */
(PID.TID 0000.0001)    16 @  1.000000000000000E+00              /* K =  1: 16 */
(PID.TID 0000.0001)     ;
(PID.TID 0000.0001) rVel2wUnit = /* convert units: rVel -> wSpeed (=1 if z-coord)*/
(PID.TID 0000.0001)                 9.741857413830955E-05,      /* K =  1 */
(PID.TID 0000.0001)                 9.767560854698387E-05,      /* K =  2 */
(PID.TID 0000.0001)                 9.791810961961699E-05,      /* K =  3 */
(PID.TID 0000.0001)                 9.814523044582380E-05,      /* K =  4 */
(PID.TID 0000.0001)                 9.835616206441658E-05,      /* K =  5 */
(PID.TID 0000.0001)                 9.855013950127949E-05,      /* K =  6 */
(PID.TID 0000.0001)                 9.872644762905337E-05,      /* K =  7 */
(PID.TID 0000.0001)                 9.888442677437525E-05,      /* K =  8 */
(PID.TID 0000.0001)                 9.902347799921741E-05,      /* K =  9 */
(PID.TID 0000.0001)                 9.914306798509472E-05,      /* K = 10 */
(PID.TID 0000.0001)                 9.924273345256813E-05,      /* K = 11 */
(PID.TID 0000.0001)                 9.932208505354885E-05,      /* K = 12 */
(PID.TID 0000.0001)                 9.938081068032788E-05,      /* K = 13 */
(PID.TID 0000.0001)                 9.942289122372219E-05,      /* K = 14 */
(PID.TID 0000.0001)                 9.945241412037006E-05,      /* K = 15 */
(PID.TID 0000.0001)                 9.947353552744130E-05       /* K = 16 */
(PID.TID 0000.0001)     ;
(PID.TID 0000.0001) wUnit2rVel = /* convert units: wSpeed -> rVel (=1 if z-coord)*/
(PID.TID 0000.0001)                 1.026498292389555E+04,      /* K =  1 */
(PID.TID 0000.0001)                 1.023797051153237E+04,      /* K =  2 */
(PID.TID 0000.0001)                 1.021261545882274E+04,      /* K =  3 */
(PID.TID 0000.0001)                 1.018898213858696E+04,      /* K =  4 */
(PID.TID 0000.0001)                 1.016713115895136E+04,      /* K =  5 */
(PID.TID 0000.0001)                 1.014711907117104E+04,      /* K =  6 */
(PID.TID 0000.0001)                 1.012899809539707E+04,      /* K =  7 */
(PID.TID 0000.0001)                 1.011281586615961E+04,      /* K =  8 */
(PID.TID 0000.0001)                 1.009861519919451E+04,      /* K =  9 */
(PID.TID 0000.0001)                 1.008643388108931E+04,      /* K = 10 */
(PID.TID 0000.0001)                 1.007630448306765E+04,      /* K = 11 */
(PID.TID 0000.0001)                 1.006825420006896E+04,      /* K = 12 */
(PID.TID 0000.0001)                 1.006230471611505E+04,      /* K = 13 */
(PID.TID 0000.0001)                 1.005804586541134E+04,      /* K = 14 */
(PID.TID 0000.0001)                 1.005506008923697E+04,      /* K = 15 */
(PID.TID 0000.0001)                 1.005292507899385E+04       /* K = 16 */
(PID.TID 0000.0001)     ;
(PID.TID 0000.0001) dBdrRef = /* Vertical grad. of reference buoyancy [(m/s/r)^2] */
(PID.TID 0000.0001)    15 @  0.000000000000000E+00              /* K =  1: 15 */
(PID.TID 0000.0001)     ;
(PID.TID 0000.0001) rotateGrid = /* use rotated grid ( True/False ) */
(PID.TID 0000.0001)                   F
(PID.TID 0000.0001)     ;
(PID.TID 0000.0001) phiEuler = /* Euler angle, rotation about original z-coordinate [rad] */
(PID.TID 0000.0001)                 0.000000000000000E+00
(PID.TID 0000.0001)     ;
(PID.TID 0000.0001) thetaEuler = /* Euler angle, rotation about new x-coordinate [rad] */
(PID.TID 0000.0001)                 0.000000000000000E+00
(PID.TID 0000.0001)     ;
(PID.TID 0000.0001) psiEuler = /* Euler angle, rotation about new z-coordinate [rad] */
(PID.TID 0000.0001)                 0.000000000000000E+00
(PID.TID 0000.0001)     ;
(PID.TID 0000.0001) dxF =  /* dxF(:,1,:,1) ( units: m ) */
(PID.TID 0000.0001)    90 @  9.246038586187513E+04              /* I =  1: 90 */
(PID.TID 0000.0001)     ;
(PID.TID 0000.0001) dxF =  /* dxF(1,:,1,:) ( units: m ) */
(PID.TID 0000.0001)                 9.246038586187513E+04,      /* J =  1 */
(PID.TID 0000.0001)                 1.225786591246834E+05,      /* J =  2 */
(PID.TID 0000.0001)                 1.520997414818001E+05,      /* J =  3 */
(PID.TID 0000.0001)                 1.808798091874300E+05,      /* J =  4 */
(PID.TID 0000.0001)                 2.087786486446736E+05,      /* J =  5 */
(PID.TID 0000.0001)                 2.356603395120765E+05,      /* J =  6 */
(PID.TID 0000.0001)                 2.613939168938713E+05,      /* J =  7 */
(PID.TID 0000.0001)                 2.858540093877838E+05,      /* J =  8 */
(PID.TID 0000.0001)                 3.089214498819034E+05,      /* J =  9 */
(PID.TID 0000.0001)                 3.304838561248741E+05,      /* J = 10 */
(PID.TID 0000.0001)                 3.504361782409254E+05,      /* J = 11 */
(PID.TID 0000.0001)                 3.686812105223082E+05,      /* J = 12 */
(PID.TID 0000.0001)                 3.851300650057323E+05,      /* J = 13 */
(PID.TID 0000.0001)                 3.997026045255871E+05,      /* J = 14 */
(PID.TID 0000.0001)                 4.123278331341585E+05,      /* J = 15 */
(PID.TID 0000.0001)                 4.229442419867491E+05,      /* J = 16 */
(PID.TID 0000.0001)                 4.315001090065870E+05,      /* J = 17 */
(PID.TID 0000.0001)                 4.379537508695838E+05,      /* J = 18 */
(PID.TID 0000.0001)                 4.422737260813012E+05,      /* J = 19 */
(PID.TID 0000.0001)     2 @  4.444389881567502E+05,             /* J = 20: 21 */
(PID.TID 0000.0001)                 4.422737260813012E+05,      /* J = 22 */
(PID.TID 0000.0001)                 4.379537508695838E+05,      /* J = 23 */
(PID.TID 0000.0001)                 4.315001090065870E+05,      /* J = 24 */
(PID.TID 0000.0001)                 4.229442419867491E+05,      /* J = 25 */
(PID.TID 0000.0001)                 4.123278331341585E+05,      /* J = 26 */
(PID.TID 0000.0001)                 3.997026045255871E+05,      /* J = 27 */
(PID.TID 0000.0001)                 3.851300650057323E+05,      /* J = 28 */
(PID.TID 0000.0001)                 3.686812105223082E+05,      /* J = 29 */
(PID.TID 0000.0001)                 3.504361782409254E+05,      /* J = 30 */
(PID.TID 0000.0001)                 3.304838561248741E+05,      /* J = 31 */
(PID.TID 0000.0001)                 3.089214498819034E+05,      /* J = 32 */
(PID.TID 0000.0001)                 2.858540093877838E+05,      /* J = 33 */
(PID.TID 0000.0001)                 2.613939168938713E+05,      /* J = 34 */
(PID.TID 0000.0001)                 2.356603395120765E+05,      /* J = 35 */
(PID.TID 0000.0001)                 2.087786486446736E+05,      /* J = 36 */
(PID.TID 0000.0001)                 1.808798091874300E+05,      /* J = 37 */
(PID.TID 0000.0001)                 1.520997414818001E+05,      /* J = 38 */
(PID.TID 0000.0001)                 1.225786591246834E+05,      /* J = 39 */
(PID.TID 0000.0001)                 9.246038586187513E+04       /* J = 40 */
(PID.TID 0000.0001)     ;
(PID.TID 0000.0001) dyF =  /* dyF(:,1,:,1) ( units: m ) */
(PID.TID 0000.0001)    90 @  4.447098934081552E+05              /* I =  1: 90 */
(PID.TID 0000.0001)     ;
(PID.TID 0000.0001) dyF =  /* dyF(1,:,1,:) ( units: m ) */
(PID.TID 0000.0001)    40 @  4.447098934081552E+05              /* J =  1: 40 */
(PID.TID 0000.0001)     ;
(PID.TID 0000.0001) dxG =  /* dxG(:,1,:,1) ( units: m ) */
(PID.TID 0000.0001)    90 @  7.722306258078101E+04              /* I =  1: 90 */
(PID.TID 0000.0001)     ;
(PID.TID 0000.0001) dxG =  /* dxG(1,:,1,:) ( units: m ) */
(PID.TID 0000.0001)                 7.722306258078101E+04,      /* J =  1 */
(PID.TID 0000.0001)                 1.075850604052271E+05,      /* J =  2 */
(PID.TID 0000.0001)                 1.374229146297914E+05,      /* J =  3 */
(PID.TID 0000.0001)                 1.665912582279823E+05,      /* J =  4 */
(PID.TID 0000.0001)                 1.949479859617814E+05,      /* J =  5 */
(PID.TID 0000.0001)                 2.223549467040777E+05,      /* J =  6 */
(PID.TID 0000.0001)                 2.486786164970726E+05,      /* J =  7 */
(PID.TID 0000.0001)                 2.737907490675810E+05,      /* J =  8 */
(PID.TID 0000.0001)                 2.975690006299821E+05,      /* J =  9 */
(PID.TID 0000.0001)                 3.198975259328452E+05,      /* J = 10 */
(PID.TID 0000.0001)                 3.406675426453503E+05,      /* J = 11 */
(PID.TID 0000.0001)                 3.597778613338690E+05,      /* J = 12 */
(PID.TID 0000.0001)                 3.771353784467131E+05,      /* J = 13 */
(PID.TID 0000.0001)                 3.926555299052806E+05,      /* J = 14 */
(PID.TID 0000.0001)                 4.062627030917454E+05,      /* J = 15 */
(PID.TID 0000.0001)                 4.178906052261313E+05,      /* J = 16 */
(PID.TID 0000.0001)                 4.274825863380723E+05,      /* J = 17 */
(PID.TID 0000.0001)                 4.349919152597734E+05,      /* J = 18 */
(PID.TID 0000.0001)                 4.403820072955634E+05,      /* J = 19 */
(PID.TID 0000.0001)                 4.436266024588540E+05,      /* J = 20 */
(PID.TID 0000.0001)                 4.447098934081552E+05,      /* J = 21 */
(PID.TID 0000.0001)                 4.436266024588540E+05,      /* J = 22 */
(PID.TID 0000.0001)                 4.403820072955634E+05,      /* J = 23 */
(PID.TID 0000.0001)                 4.349919152597734E+05,      /* J = 24 */
(PID.TID 0000.0001)                 4.274825863380723E+05,      /* J = 25 */
(PID.TID 0000.0001)                 4.178906052261313E+05,      /* J = 26 */
(PID.TID 0000.0001)                 4.062627030917454E+05,      /* J = 27 */
(PID.TID 0000.0001)                 3.926555299052806E+05,      /* J = 28 */
(PID.TID 0000.0001)                 3.771353784467131E+05,      /* J = 29 */
(PID.TID 0000.0001)                 3.597778613338690E+05,      /* J = 30 */
(PID.TID 0000.0001)                 3.406675426453503E+05,      /* J = 31 */
(PID.TID 0000.0001)                 3.198975259328452E+05,      /* J = 32 */
(PID.TID 0000.0001)                 2.975690006299821E+05,      /* J = 33 */
(PID.TID 0000.0001)                 2.737907490675810E+05,      /* J = 34 */
(PID.TID 0000.0001)                 2.486786164970726E+05,      /* J = 35 */
(PID.TID 0000.0001)                 2.223549467040777E+05,      /* J = 36 */
(PID.TID 0000.0001)                 1.949479859617814E+05,      /* J = 37 */
(PID.TID 0000.0001)                 1.665912582279823E+05,      /* J = 38 */
(PID.TID 0000.0001)                 1.374229146297914E+05,      /* J = 39 */
(PID.TID 0000.0001)                 1.075850604052271E+05       /* J = 40 */
(PID.TID 0000.0001)     ;
(PID.TID 0000.0001) dyG =  /* dyG(:,1,:,1) ( units: m ) */
(PID.TID 0000.0001)    90 @  4.447098934081552E+05              /* I =  1: 90 */
(PID.TID 0000.0001)     ;
(PID.TID 0000.0001) dyG =  /* dyG(1,:,1,:) ( units: m ) */
(PID.TID 0000.0001)    40 @  4.447098934081552E+05              /* J =  1: 40 */
(PID.TID 0000.0001)     ;
(PID.TID 0000.0001) dxC =  /* dxC(:,1,:,1) ( units: m ) */
(PID.TID 0000.0001)    90 @  9.246038586187513E+04              /* I =  1: 90 */
(PID.TID 0000.0001)     ;
(PID.TID 0000.0001) dxC =  /* dxC(1,:,1,:) ( units: m ) */
(PID.TID 0000.0001)                 9.246038586187513E+04,      /* J =  1 */
(PID.TID 0000.0001)                 1.225786591246834E+05,      /* J =  2 */
(PID.TID 0000.0001)                 1.520997414818001E+05,      /* J =  3 */
(PID.TID 0000.0001)                 1.808798091874300E+05,      /* J =  4 */
(PID.TID 0000.0001)                 2.087786486446736E+05,      /* J =  5 */
(PID.TID 0000.0001)                 2.356603395120765E+05,      /* J =  6 */
(PID.TID 0000.0001)                 2.613939168938713E+05,      /* J =  7 */
(PID.TID 0000.0001)                 2.858540093877838E+05,      /* J =  8 */
(PID.TID 0000.0001)                 3.089214498819034E+05,      /* J =  9 */
(PID.TID 0000.0001)                 3.304838561248741E+05,      /* J = 10 */
(PID.TID 0000.0001)                 3.504361782409254E+05,      /* J = 11 */
(PID.TID 0000.0001)                 3.686812105223082E+05,      /* J = 12 */
(PID.TID 0000.0001)                 3.851300650057323E+05,      /* J = 13 */
(PID.TID 0000.0001)                 3.997026045255871E+05,      /* J = 14 */
(PID.TID 0000.0001)                 4.123278331341585E+05,      /* J = 15 */
(PID.TID 0000.0001)                 4.229442419867491E+05,      /* J = 16 */
(PID.TID 0000.0001)                 4.315001090065870E+05,      /* J = 17 */
(PID.TID 0000.0001)                 4.379537508695838E+05,      /* J = 18 */
(PID.TID 0000.0001)                 4.422737260813012E+05,      /* J = 19 */
(PID.TID 0000.0001)     2 @  4.444389881567502E+05,             /* J = 20: 21 */
(PID.TID 0000.0001)                 4.422737260813012E+05,      /* J = 22 */
(PID.TID 0000.0001)                 4.379537508695838E+05,      /* J = 23 */
(PID.TID 0000.0001)                 4.315001090065870E+05,      /* J = 24 */
(PID.TID 0000.0001)                 4.229442419867491E+05,      /* J = 25 */
(PID.TID 0000.0001)                 4.123278331341585E+05,      /* J = 26 */
(PID.TID 0000.0001)                 3.997026045255871E+05,      /* J = 27 */
(PID.TID 0000.0001)                 3.851300650057323E+05,      /* J = 28 */
(PID.TID 0000.0001)                 3.686812105223082E+05,      /* J = 29 */
(PID.TID 0000.0001)                 3.504361782409254E+05,      /* J = 30 */
(PID.TID 0000.0001)                 3.304838561248741E+05,      /* J = 31 */
(PID.TID 0000.0001)                 3.089214498819034E+05,      /* J = 32 */
(PID.TID 0000.0001)                 2.858540093877838E+05,      /* J = 33 */
(PID.TID 0000.0001)                 2.613939168938713E+05,      /* J = 34 */
(PID.TID 0000.0001)                 2.356603395120765E+05,      /* J = 35 */
(PID.TID 0000.0001)                 2.087786486446736E+05,      /* J = 36 */
(PID.TID 0000.0001)                 1.808798091874300E+05,      /* J = 37 */
(PID.TID 0000.0001)                 1.520997414818001E+05,      /* J = 38 */
(PID.TID 0000.0001)                 1.225786591246834E+05,      /* J = 39 */
(PID.TID 0000.0001)                 9.246038586187513E+04       /* J = 40 */
(PID.TID 0000.0001)     ;
(PID.TID 0000.0001) dyC =  /* dyC(:,1,:,1) ( units: m ) */
(PID.TID 0000.0001)    90 @  4.447098934081552E+05              /* I =  1: 90 */
(PID.TID 0000.0001)     ;
(PID.TID 0000.0001) dyC =  /* dyC(1,:,1,:) ( units: m ) */
(PID.TID 0000.0001)    40 @  4.447098934081552E+05              /* J =  1: 40 */
(PID.TID 0000.0001)     ;
(PID.TID 0000.0001) dxV =  /* dxV(:,1,:,1) ( units: m ) */
(PID.TID 0000.0001)    90 @  7.722306258078101E+04              /* I =  1: 90 */
(PID.TID 0000.0001)     ;
(PID.TID 0000.0001) dxV =  /* dxV(1,:,1,:) ( units: m ) */
(PID.TID 0000.0001)                 7.722306258078101E+04,      /* J =  1 */
(PID.TID 0000.0001)                 1.075850604052271E+05,      /* J =  2 */
(PID.TID 0000.0001)                 1.374229146297914E+05,      /* J =  3 */
(PID.TID 0000.0001)                 1.665912582279823E+05,      /* J =  4 */
(PID.TID 0000.0001)                 1.949479859617814E+05,      /* J =  5 */
(PID.TID 0000.0001)                 2.223549467040777E+05,      /* J =  6 */
(PID.TID 0000.0001)                 2.486786164970726E+05,      /* J =  7 */
(PID.TID 0000.0001)                 2.737907490675810E+05,      /* J =  8 */
(PID.TID 0000.0001)                 2.975690006299821E+05,      /* J =  9 */
(PID.TID 0000.0001)                 3.198975259328452E+05,      /* J = 10 */
(PID.TID 0000.0001)                 3.406675426453503E+05,      /* J = 11 */
(PID.TID 0000.0001)                 3.597778613338690E+05,      /* J = 12 */
(PID.TID 0000.0001)                 3.771353784467131E+05,      /* J = 13 */
(PID.TID 0000.0001)                 3.926555299052806E+05,      /* J = 14 */
(PID.TID 0000.0001)                 4.062627030917454E+05,      /* J = 15 */
(PID.TID 0000.0001)                 4.178906052261313E+05,      /* J = 16 */
(PID.TID 0000.0001)                 4.274825863380723E+05,      /* J = 17 */
(PID.TID 0000.0001)                 4.349919152597734E+05,      /* J = 18 */
(PID.TID 0000.0001)                 4.403820072955634E+05,      /* J = 19 */
(PID.TID 0000.0001)                 4.436266024588540E+05,      /* J = 20 */
(PID.TID 0000.0001)                 4.447098934081552E+05,      /* J = 21 */
(PID.TID 0000.0001)                 4.436266024588540E+05,      /* J = 22 */
(PID.TID 0000.0001)                 4.403820072955634E+05,      /* J = 23 */
(PID.TID 0000.0001)                 4.349919152597734E+05,      /* J = 24 */
(PID.TID 0000.0001)                 4.274825863380723E+05,      /* J = 25 */
(PID.TID 0000.0001)                 4.178906052261313E+05,      /* J = 26 */
(PID.TID 0000.0001)                 4.062627030917454E+05,      /* J = 27 */
(PID.TID 0000.0001)                 3.926555299052806E+05,      /* J = 28 */
(PID.TID 0000.0001)                 3.771353784467131E+05,      /* J = 29 */
(PID.TID 0000.0001)                 3.597778613338690E+05,      /* J = 30 */
(PID.TID 0000.0001)                 3.406675426453503E+05,      /* J = 31 */
(PID.TID 0000.0001)                 3.198975259328452E+05,      /* J = 32 */
(PID.TID 0000.0001)                 2.975690006299821E+05,      /* J = 33 */
(PID.TID 0000.0001)                 2.737907490675810E+05,      /* J = 34 */
(PID.TID 0000.0001)                 2.486786164970726E+05,      /* J = 35 */
(PID.TID 0000.0001)                 2.223549467040777E+05,      /* J = 36 */
(PID.TID 0000.0001)                 1.949479859617814E+05,      /* J = 37 */
(PID.TID 0000.0001)                 1.665912582279823E+05,      /* J = 38 */
(PID.TID 0000.0001)                 1.374229146297914E+05,      /* J = 39 */
(PID.TID 0000.0001)                 1.075850604052271E+05       /* J = 40 */
(PID.TID 0000.0001)     ;
(PID.TID 0000.0001) dyU =  /* dyU(:,1,:,1) ( units: m ) */
(PID.TID 0000.0001)    90 @  4.447098934081552E+05              /* I =  1: 90 */
(PID.TID 0000.0001)     ;
(PID.TID 0000.0001) dyU =  /* dyU(1,:,1,:) ( units: m ) */
(PID.TID 0000.0001)    40 @  4.447098934081552E+05              /* J =  1: 40 */
(PID.TID 0000.0001)     ;
(PID.TID 0000.0001) rA  =  /* rA (:,1,:,1) ( units: m^2 ) */
(PID.TID 0000.0001)    90 @  4.110969866729047E+10              /* I =  1: 90 */
(PID.TID 0000.0001)     ;
(PID.TID 0000.0001) rA  =  /* rA (1,:,1,:) ( units: m^2 ) */
(PID.TID 0000.0001)                 4.110969866729047E+10,      /* J =  1 */
(PID.TID 0000.0001)                 5.450087291636665E+10,      /* J =  2 */
(PID.TID 0000.0001)                 6.762652439100235E+10,      /* J =  3 */
(PID.TID 0000.0001)                 8.042270623659998E+10,      /* J =  4 */
(PID.TID 0000.0001)                 9.282707674147523E+10,      /* J =  5 */
(PID.TID 0000.0001)                 1.047792030594103E+11,      /* J =  6 */
(PID.TID 0000.0001)                 1.162208556324093E+11,      /* J =  7 */
(PID.TID 0000.0001)                 1.270962918792468E+11,      /* J =  8 */
(PID.TID 0000.0001)                 1.373525277677229E+11,      /* J =  9 */
(PID.TID 0000.0001)                 1.469395959475426E+11,      /* J = 10 */
(PID.TID 0000.0001)                 1.558107891862220E+11,      /* J = 11 */
(PID.TID 0000.0001)                 1.639228879220326E+11,      /* J = 12 */
(PID.TID 0000.0001)                 1.712363708253573E+11,      /* J = 13 */
(PID.TID 0000.0001)                 1.777156073426415E+11,      /* J = 14 */
(PID.TID 0000.0001)                 1.833290312848623E+11,      /* J = 15 */
(PID.TID 0000.0001)                 1.880492946148330E+11,      /* J = 16 */
(PID.TID 0000.0001)                 1.918534006840893E+11,      /* J = 17 */
(PID.TID 0000.0001)                 1.947228162702492E+11,      /* J = 18 */
(PID.TID 0000.0001)                 1.966435618690094E+11,      /* J = 19 */
(PID.TID 0000.0001)     2 @  1.976062798008856E+11,             /* J = 20: 21 */
(PID.TID 0000.0001)                 1.966435618690094E+11,      /* J = 22 */
(PID.TID 0000.0001)                 1.947228162702492E+11,      /* J = 23 */
(PID.TID 0000.0001)                 1.918534006840893E+11,      /* J = 24 */
(PID.TID 0000.0001)                 1.880492946148330E+11,      /* J = 25 */
(PID.TID 0000.0001)                 1.833290312848623E+11,      /* J = 26 */
(PID.TID 0000.0001)                 1.777156073426415E+11,      /* J = 27 */
(PID.TID 0000.0001)                 1.712363708253573E+11,      /* J = 28 */
(PID.TID 0000.0001)                 1.639228879220326E+11,      /* J = 29 */
(PID.TID 0000.0001)                 1.558107891862220E+11,      /* J = 30 */
(PID.TID 0000.0001)                 1.469395959475426E+11,      /* J = 31 */
(PID.TID 0000.0001)                 1.373525277677229E+11,      /* J = 32 */
(PID.TID 0000.0001)                 1.270962918792468E+11,      /* J = 33 */
(PID.TID 0000.0001)                 1.162208556324093E+11,      /* J = 34 */
(PID.TID 0000.0001)                 1.047792030594103E+11,      /* J = 35 */
(PID.TID 0000.0001)                 9.282707674147523E+10,      /* J = 36 */
(PID.TID 0000.0001)                 8.042270623659998E+10,      /* J = 37 */
(PID.TID 0000.0001)                 6.762652439100235E+10,      /* J = 38 */
(PID.TID 0000.0001)                 5.450087291636665E+10,      /* J = 39 */
(PID.TID 0000.0001)                 4.110969866729047E+10       /* J = 40 */
(PID.TID 0000.0001)     ;
(PID.TID 0000.0001) rAw =  /* rAw(:,1,:,1) ( units: m^2 ) */
(PID.TID 0000.0001)    90 @  4.110969866729047E+10              /* I =  1: 90 */
(PID.TID 0000.0001)     ;
(PID.TID 0000.0001) rAw =  /* rAw(1,:,1,:) ( units: m^2 ) */
(PID.TID 0000.0001)                 4.110969866729047E+10,      /* J =  1 */
(PID.TID 0000.0001)                 5.450087291636665E+10,      /* J =  2 */
(PID.TID 0000.0001)                 6.762652439100235E+10,      /* J =  3 */
(PID.TID 0000.0001)                 8.042270623659998E+10,      /* J =  4 */
(PID.TID 0000.0001)                 9.282707674147523E+10,      /* J =  5 */
(PID.TID 0000.0001)                 1.047792030594103E+11,      /* J =  6 */
(PID.TID 0000.0001)                 1.162208556324093E+11,      /* J =  7 */
(PID.TID 0000.0001)                 1.270962918792468E+11,      /* J =  8 */
(PID.TID 0000.0001)                 1.373525277677229E+11,      /* J =  9 */
(PID.TID 0000.0001)                 1.469395959475426E+11,      /* J = 10 */
(PID.TID 0000.0001)                 1.558107891862220E+11,      /* J = 11 */
(PID.TID 0000.0001)                 1.639228879220326E+11,      /* J = 12 */
(PID.TID 0000.0001)                 1.712363708253573E+11,      /* J = 13 */
(PID.TID 0000.0001)                 1.777156073426415E+11,      /* J = 14 */
(PID.TID 0000.0001)                 1.833290312848623E+11,      /* J = 15 */
(PID.TID 0000.0001)                 1.880492946148330E+11,      /* J = 16 */
(PID.TID 0000.0001)                 1.918534006840893E+11,      /* J = 17 */
(PID.TID 0000.0001)                 1.947228162702492E+11,      /* J = 18 */
(PID.TID 0000.0001)                 1.966435618690094E+11,      /* J = 19 */
(PID.TID 0000.0001)     2 @  1.976062798008856E+11,             /* J = 20: 21 */
(PID.TID 0000.0001)                 1.966435618690094E+11,      /* J = 22 */
(PID.TID 0000.0001)                 1.947228162702492E+11,      /* J = 23 */
(PID.TID 0000.0001)                 1.918534006840893E+11,      /* J = 24 */
(PID.TID 0000.0001)                 1.880492946148330E+11,      /* J = 25 */
(PID.TID 0000.0001)                 1.833290312848623E+11,      /* J = 26 */
(PID.TID 0000.0001)                 1.777156073426415E+11,      /* J = 27 */
(PID.TID 0000.0001)                 1.712363708253573E+11,      /* J = 28 */
(PID.TID 0000.0001)                 1.639228879220326E+11,      /* J = 29 */
(PID.TID 0000.0001)                 1.558107891862220E+11,      /* J = 30 */
(PID.TID 0000.0001)                 1.469395959475426E+11,      /* J = 31 */
(PID.TID 0000.0001)                 1.373525277677229E+11,      /* J = 32 */
(PID.TID 0000.0001)                 1.270962918792468E+11,      /* J = 33 */
(PID.TID 0000.0001)                 1.162208556324093E+11,      /* J = 34 */
(PID.TID 0000.0001)                 1.047792030594103E+11,      /* J = 35 */
(PID.TID 0000.0001)                 9.282707674147523E+10,      /* J = 36 */
(PID.TID 0000.0001)                 8.042270623659998E+10,      /* J = 37 */
(PID.TID 0000.0001)                 6.762652439100235E+10,      /* J = 38 */
(PID.TID 0000.0001)                 5.450087291636665E+10,      /* J = 39 */
(PID.TID 0000.0001)                 4.110969866729047E+10       /* J = 40 */
(PID.TID 0000.0001)     ;
(PID.TID 0000.0001) rAs =  /* rAs(:,1,:,1) ( units: m^2 ) */
(PID.TID 0000.0001)    90 @  3.433488626798250E+10              /* I =  1: 90 */
(PID.TID 0000.0001)     ;
(PID.TID 0000.0001) rAs =  /* rAs(1,:,1,:) ( units: m^2 ) */
(PID.TID 0000.0001)                 3.433488626798250E+10,      /* J =  1 */
(PID.TID 0000.0001)                 4.783442523123625E+10,      /* J =  2 */
(PID.TID 0000.0001)                 6.110091968306414E+10,      /* J =  3 */
(PID.TID 0000.0001)                 7.406973659603818E+10,      /* J =  4 */
(PID.TID 0000.0001)                 8.667769319778079E+10,      /* J =  5 */
(PID.TID 0000.0001)                 9.886336479107463E+10,      /* J =  6 */
(PID.TID 0000.0001)                 1.105673840088173E+11,      /* J =  7 */
(PID.TID 0000.0001)                 1.217327300458638E+11,      /* J =  8 */
(PID.TID 0000.0001)                 1.323050064586578E+11,      /* J =  9 */
(PID.TID 0000.0001)                 1.422327061792377E+11,      /* J = 10 */
(PID.TID 0000.0001)                 1.514674624524945E+11,      /* J = 11 */
(PID.TID 0000.0001)                 1.599642844741385E+11,      /* J = 12 */
(PID.TID 0000.0001)                 1.676817765813788E+11,      /* J = 13 */
(PID.TID 0000.0001)                 1.745823399284268E+11,      /* J = 14 */
(PID.TID 0000.0001)                 1.806323556642996E+11,      /* J = 15 */
(PID.TID 0000.0001)                 1.858023487204767E+11,      /* J = 16 */
(PID.TID 0000.0001)                 1.900671314104743E+11,      /* J = 17 */
(PID.TID 0000.0001)                 1.934059261417216E+11,      /* J = 18 */
(PID.TID 0000.0001)                 1.958024666419019E+11,      /* J = 19 */
(PID.TID 0000.0001)                 1.972450772065981E+11,      /* J = 20 */
(PID.TID 0000.0001)                 1.977267295821495E+11,      /* J = 21 */
(PID.TID 0000.0001)                 1.972450772065981E+11,      /* J = 22 */
(PID.TID 0000.0001)                 1.958024666419019E+11,      /* J = 23 */
(PID.TID 0000.0001)                 1.934059261417216E+11,      /* J = 24 */
(PID.TID 0000.0001)                 1.900671314104743E+11,      /* J = 25 */
(PID.TID 0000.0001)                 1.858023487204767E+11,      /* J = 26 */
(PID.TID 0000.0001)                 1.806323556642996E+11,      /* J = 27 */
(PID.TID 0000.0001)                 1.745823399284268E+11,      /* J = 28 */
(PID.TID 0000.0001)                 1.676817765813788E+11,      /* J = 29 */
(PID.TID 0000.0001)                 1.599642844741385E+11,      /* J = 30 */
(PID.TID 0000.0001)                 1.514674624524945E+11,      /* J = 31 */
(PID.TID 0000.0001)                 1.422327061792377E+11,      /* J = 32 */
(PID.TID 0000.0001)                 1.323050064586578E+11,      /* J = 33 */
(PID.TID 0000.0001)                 1.217327300458638E+11,      /* J = 34 */
(PID.TID 0000.0001)                 1.105673840088173E+11,      /* J = 35 */
(PID.TID 0000.0001)                 9.886336479107463E+10,      /* J = 36 */
(PID.TID 0000.0001)                 8.667769319778079E+10,      /* J = 37 */
(PID.TID 0000.0001)                 7.406973659603818E+10,      /* J = 38 */
(PID.TID 0000.0001)                 6.110091968306414E+10,      /* J = 39 */
(PID.TID 0000.0001)                 4.783442523123625E+10       /* J = 40 */
(PID.TID 0000.0001)     ;
(PID.TID 0000.0001) globalArea = /* Integrated horizontal Area (m^2) */
(PID.TID 0000.0001)                 3.444981130405358E+14
(PID.TID 0000.0001)     ;
(PID.TID 0000.0001) // =======================================================
(PID.TID 0000.0001) // End of Model config. summary
(PID.TID 0000.0001) // =======================================================
(PID.TID 0000.0001) 
(PID.TID 0000.0001) == Packages configuration : Check & print summary ==
(PID.TID 0000.0001) 
(PID.TID 0000.0001) GAD_CHECK: #define ALLOW_GENERIC_ADVDIFF
(PID.TID 0000.0001) // =======================================================
(PID.TID 0000.0001) // Check Model config. (CONFIG_CHECK):
(PID.TID 0000.0001) // CONFIG_CHECK : Normal End
(PID.TID 0000.0001) // =======================================================
(PID.TID 0000.0001) 
(PID.TID 0000.0001)  MDS_READ_FIELD: opening global file: lev_t.bin
(PID.TID 0000.0001)  MDS_READ_FIELD: opening global file: lev_s.bin
(PID.TID 0000.0001) Start initial hydrostatic pressure computation
(PID.TID 0000.0001) Pressure is predetermined for buoyancyRelation OCEANICP
(PID.TID 0000.0001) 
(PID.TID 0000.0001)  MDS_READ_FIELD: opening global file: trenberth_taux.bin
(PID.TID 0000.0001)  MDS_READ_FIELD: opening global file: trenberth_tauy.bin
(PID.TID 0000.0001)  MDS_READ_FIELD: opening global file: shi_qnet.bin
(PID.TID 0000.0001)  MDS_READ_FIELD: opening global file: shi_empmr.bin
(PID.TID 0000.0001)  MDS_READ_FIELD: opening global file: lev_sst.bin
(PID.TID 0000.0001) // =======================================================
(PID.TID 0000.0001) // Model current state
(PID.TID 0000.0001) // =======================================================
(PID.TID 0000.0001) 
(PID.TID 0000.0001) // =======================================================
(PID.TID 0000.0001) // Begin MONITOR dynamic field statistics
(PID.TID 0000.0001) // =======================================================
(PID.TID 0000.0001) %MON time_tsnumber                =                     0
(PID.TID 0000.0001) %MON time_secondsf                =   0.0000000000000E+00
(PID.TID 0000.0001) %MON dynstat_eta_max              =   0.0000000000000E+00
(PID.TID 0000.0001) %MON dynstat_eta_min              =   0.0000000000000E+00
(PID.TID 0000.0001) %MON dynstat_eta_mean             =   0.0000000000000E+00
(PID.TID 0000.0001) %MON dynstat_eta_sd               =   0.0000000000000E+00
(PID.TID 0000.0001) %MON dynstat_eta_del2             =   0.0000000000000E+00
(PID.TID 0000.0001) %MON dynstat_uvel_max             =   0.0000000000000E+00
(PID.TID 0000.0001) %MON dynstat_uvel_min             =   0.0000000000000E+00
(PID.TID 0000.0001) %MON dynstat_uvel_mean            =   0.0000000000000E+00
(PID.TID 0000.0001) %MON dynstat_uvel_sd              =   0.0000000000000E+00
(PID.TID 0000.0001) %MON dynstat_uvel_del2            =   0.0000000000000E+00
(PID.TID 0000.0001) %MON dynstat_vvel_max             =   0.0000000000000E+00
(PID.TID 0000.0001) %MON dynstat_vvel_min             =   0.0000000000000E+00
(PID.TID 0000.0001) %MON dynstat_vvel_mean            =   0.0000000000000E+00
(PID.TID 0000.0001) %MON dynstat_vvel_sd              =   0.0000000000000E+00
(PID.TID 0000.0001) %MON dynstat_vvel_del2            =   0.0000000000000E+00
(PID.TID 0000.0001) %MON dynstat_wvel_max             =  -0.0000000000000E+00
(PID.TID 0000.0001) %MON dynstat_wvel_min             =  -0.0000000000000E+00
(PID.TID 0000.0001) %MON dynstat_wvel_mean            =   0.0000000000000E+00
(PID.TID 0000.0001) %MON dynstat_wvel_sd              =   0.0000000000000E+00
(PID.TID 0000.0001) %MON dynstat_wvel_del2            =   0.0000000000000E+00
(PID.TID 0000.0001) %MON dynstat_theta_max            =   2.9733511003948E+01
(PID.TID 0000.0001) %MON dynstat_theta_min            =  -2.6263839329562E+00
(PID.TID 0000.0001) %MON dynstat_theta_mean           =   3.6018664655656E+00
(PID.TID 0000.0001) %MON dynstat_theta_sd             =   4.4018845380981E+00
(PID.TID 0000.0001) %MON dynstat_theta_del2           =   5.7770997867767E-03
(PID.TID 0000.0001) %MON dynstat_salt_max             =   3.7475629659304E+01
(PID.TID 0000.0001) %MON dynstat_salt_min             =   2.9752769471420E+01
(PID.TID 0000.0001) %MON dynstat_salt_mean            =   3.4718001015839E+01
(PID.TID 0000.0001) %MON dynstat_salt_sd              =   2.9462524950605E-01
(PID.TID 0000.0001) %MON dynstat_salt_del2            =   1.0382303854229E-03
(PID.TID 0000.0001) %MON forcing_qnet_max             =   4.7889539846945E+02
(PID.TID 0000.0001) %MON forcing_qnet_min             =  -2.1234592141945E+02
(PID.TID 0000.0001) %MON forcing_qnet_mean            =  -1.5407959491527E+01
(PID.TID 0000.0001) %MON forcing_qnet_sd              =   1.1749008355619E+02
(PID.TID 0000.0001) %MON forcing_qnet_del2            =   7.6292848491878E-01
(PID.TID 0000.0001) %MON forcing_qsw_max              =   0.0000000000000E+00
(PID.TID 0000.0001) %MON forcing_qsw_min              =   0.0000000000000E+00
(PID.TID 0000.0001) %MON forcing_qsw_mean             =   0.0000000000000E+00
(PID.TID 0000.0001) %MON forcing_qsw_sd               =   0.0000000000000E+00
(PID.TID 0000.0001) %MON forcing_qsw_del2             =   0.0000000000000E+00
(PID.TID 0000.0001) %MON forcing_empmr_max            =   5.2312924520654E-05
(PID.TID 0000.0001) %MON forcing_empmr_min            =  -1.3707940920787E-04
(PID.TID 0000.0001) %MON forcing_empmr_mean           =   4.0865136276267E-22
(PID.TID 0000.0001) %MON forcing_empmr_sd             =   2.3555038620025E-05
(PID.TID 0000.0001) %MON forcing_empmr_del2           =   2.4961915835152E-07
(PID.TID 0000.0001) %MON forcing_fu_max               =   2.7877888530287E-01
(PID.TID 0000.0001) %MON forcing_fu_min               =  -1.7088057632071E-01
(PID.TID 0000.0001) %MON forcing_fu_mean              =   1.6077639705783E-02
(PID.TID 0000.0001) %MON forcing_fu_sd                =   9.1121692265396E-02
(PID.TID 0000.0001) %MON forcing_fu_del2              =   7.1645420756246E-04
(PID.TID 0000.0001) %MON forcing_fv_max               =   2.3312132027950E-01
(PID.TID 0000.0001) %MON forcing_fv_min               =  -1.7813690234636E-01
(PID.TID 0000.0001) %MON forcing_fv_mean              =  -5.2123713348980E-03
(PID.TID 0000.0001) %MON forcing_fv_sd                =   4.8244503985680E-02
(PID.TID 0000.0001) %MON forcing_fv_del2              =   4.8353727932034E-04
(PID.TID 0000.0001) %MON trAdv_CFL_u_max              =   0.0000000000000E+00
(PID.TID 0000.0001) %MON trAdv_CFL_v_max              =   0.0000000000000E+00
(PID.TID 0000.0001) %MON trAdv_CFL_w_max              =   0.0000000000000E+00
(PID.TID 0000.0001) %MON advcfl_uvel_max              =   0.0000000000000E+00
(PID.TID 0000.0001) %MON advcfl_vvel_max              =   0.0000000000000E+00
(PID.TID 0000.0001) %MON advcfl_wvel_max              =   0.0000000000000E+00
(PID.TID 0000.0001) %MON advcfl_W_hf_max              =   0.0000000000000E+00
(PID.TID 0000.0001) %MON pe_b_mean                    =   0.0000000000000E+00
(PID.TID 0000.0001) %MON ke_max                       =   0.0000000000000E+00
(PID.TID 0000.0001) %MON ke_mean                      =   0.0000000000000E+00
(PID.TID 0000.0001) %MON ke_vol                       =   1.3442141716554E+22
(PID.TID 0000.0001) %MON vort_r_min                   =   0.0000000000000E+00
(PID.TID 0000.0001) %MON vort_r_max                   =   0.0000000000000E+00
(PID.TID 0000.0001) %MON vort_a_mean                  =  -2.4598205423362E-05
(PID.TID 0000.0001) %MON vort_a_sd                    =   7.3637181538742E-05
(PID.TID 0000.0001) %MON vort_p_mean                  =  -2.9470763764321E-05
(PID.TID 0000.0001) %MON vort_p_sd                    =   1.0360262032337E-04
(PID.TID 0000.0001) %MON surfExpan_theta_mean         =   0.0000000000000E+00
(PID.TID 0000.0001) %MON surfExpan_salt_mean          =   0.0000000000000E+00
(PID.TID 0000.0001) // =======================================================
(PID.TID 0000.0001) // End MONITOR dynamic field statistics
(PID.TID 0000.0001) // =======================================================
 EXTERNAL_FIELDS_LOAD,         0 : iP,iLd,i0,i1=   12    0   12    1 ; Wght=  0.5000000000  0.5000000000
 EXTERNAL_FIELDS_LOAD, it=         0 : Reading new data, i0,i1=   12    1 (prev=   12    0 )
(PID.TID 0000.0001)  MDS_READ_FIELD: opening global file: trenberth_taux.bin
(PID.TID 0000.0001)  MDS_READ_FIELD: opening global file: trenberth_taux.bin
(PID.TID 0000.0001)  MDS_READ_FIELD: opening global file: trenberth_tauy.bin
(PID.TID 0000.0001)  MDS_READ_FIELD: opening global file: trenberth_tauy.bin
(PID.TID 0000.0001)  MDS_READ_FIELD: opening global file: shi_qnet.bin
(PID.TID 0000.0001)  MDS_READ_FIELD: opening global file: shi_qnet.bin
(PID.TID 0000.0001)  MDS_READ_FIELD: opening global file: shi_empmr.bin
(PID.TID 0000.0001)  MDS_READ_FIELD: opening global file: shi_empmr.bin
(PID.TID 0000.0001)  MDS_READ_FIELD: opening global file: lev_sst.bin
(PID.TID 0000.0001)  MDS_READ_FIELD: opening global file: lev_sst.bin
(PID.TID 0000.0001) SOLVE_FOR_PRESSURE: putPmEinXvector =    F
 cg2d: Sum(rhs),rhsMax =  -2.91433543964104E-15  1.71163414373126E+02
(PID.TID 0000.0001)      cg2d_init_res =   9.36692383621737E+00
(PID.TID 0000.0001)      cg2d_iters(min,last) =      -1     107
(PID.TID 0000.0001)      cg2d_last_res =   9.62519078741551E-10
(PID.TID 0000.0001) // =======================================================
(PID.TID 0000.0001) // Begin MONITOR dynamic field statistics
(PID.TID 0000.0001) // =======================================================
(PID.TID 0000.0001) %MON time_tsnumber                =                     1
(PID.TID 0000.0001) %MON time_secondsf                =   1.7280000000000E+05
(PID.TID 0000.0001) %MON dynstat_eta_max              =   4.1656786839423E+04
(PID.TID 0000.0001) %MON dynstat_eta_min              =  -8.8276374725148E+04
(PID.TID 0000.0001) %MON dynstat_eta_mean             =   6.5817908944932E-13
(PID.TID 0000.0001) %MON dynstat_eta_sd               =   3.6901397170278E+04
(PID.TID 0000.0001) %MON dynstat_eta_del2             =   2.0856467227143E+03
(PID.TID 0000.0001) %MON dynstat_uvel_max             =   3.5106109517859E-02
(PID.TID 0000.0001) %MON dynstat_uvel_min             =  -3.5372108944508E-02
(PID.TID 0000.0001) %MON dynstat_uvel_mean            =  -8.4135916903908E-04
(PID.TID 0000.0001) %MON dynstat_uvel_sd              =   2.2143004930635E-03
(PID.TID 0000.0001) %MON dynstat_uvel_del2            =   2.3793586526362E-05
(PID.TID 0000.0001) %MON dynstat_vvel_max             =   3.5008782265621E-02
(PID.TID 0000.0001) %MON dynstat_vvel_min             =  -2.4496142225806E-02
(PID.TID 0000.0001) %MON dynstat_vvel_mean            =   1.0871733172810E-03
(PID.TID 0000.0001) %MON dynstat_vvel_sd              =   2.2887791274522E-03
(PID.TID 0000.0001) %MON dynstat_vvel_del2            =   2.5440556997751E-05
(PID.TID 0000.0001) %MON dynstat_wvel_max             =   5.0250051231513E-01
(PID.TID 0000.0001) %MON dynstat_wvel_min             =  -6.2689518742413E-01
(PID.TID 0000.0001) %MON dynstat_wvel_mean            =  -6.6716894910155E-03
(PID.TID 0000.0001) %MON dynstat_wvel_sd              =   1.5353611024476E-01
(PID.TID 0000.0001) %MON dynstat_wvel_del2            =   1.7671817735107E-03
(PID.TID 0000.0001) %MON dynstat_theta_max            =   2.9711296896544E+01
(PID.TID 0000.0001) %MON dynstat_theta_min            =  -2.6183665629211E+00
(PID.TID 0000.0001) %MON dynstat_theta_mean           =   3.6019879855479E+00
(PID.TID 0000.0001) %MON dynstat_theta_sd             =   4.4015122960812E+00
(PID.TID 0000.0001) %MON dynstat_theta_del2           =   5.7690375964263E-03
(PID.TID 0000.0001) %MON dynstat_salt_max             =   3.7478619291182E+01
(PID.TID 0000.0001) %MON dynstat_salt_min             =   2.9762213851610E+01
(PID.TID 0000.0001) %MON dynstat_salt_mean            =   3.4718001015839E+01
(PID.TID 0000.0001) %MON dynstat_salt_sd              =   2.9451046602466E-01
(PID.TID 0000.0001) %MON dynstat_salt_del2            =   1.0397535769334E-03
(PID.TID 0000.0001) %MON forcing_qnet_max             =   4.4145258709576E+02
(PID.TID 0000.0001) %MON forcing_qnet_min             =  -2.2440550854923E+02
(PID.TID 0000.0001) %MON forcing_qnet_mean            =  -1.5958423861174E+01
(PID.TID 0000.0001) %MON forcing_qnet_sd              =   1.1936714639352E+02
(PID.TID 0000.0001) %MON forcing_qnet_del2            =   6.9568601022103E-01
(PID.TID 0000.0001) %MON forcing_qsw_max              =   0.0000000000000E+00
(PID.TID 0000.0001) %MON forcing_qsw_min              =   0.0000000000000E+00
(PID.TID 0000.0001) %MON forcing_qsw_mean             =   0.0000000000000E+00
(PID.TID 0000.0001) %MON forcing_qsw_sd               =   0.0000000000000E+00
(PID.TID 0000.0001) %MON forcing_qsw_del2             =   0.0000000000000E+00
(PID.TID 0000.0001) %MON forcing_empmr_max            =   5.2312924520654E-05
(PID.TID 0000.0001) %MON forcing_empmr_min            =  -1.3707940920787E-04
(PID.TID 0000.0001) %MON forcing_empmr_mean           =   4.0865136276267E-22
(PID.TID 0000.0001) %MON forcing_empmr_sd             =   2.3555038620025E-05
(PID.TID 0000.0001) %MON forcing_empmr_del2           =   2.4961915835152E-07
(PID.TID 0000.0001) %MON forcing_fu_max               =   2.7488999084141E-01
(PID.TID 0000.0001) %MON forcing_fu_min               =  -1.6014088069750E-01
(PID.TID 0000.0001) %MON forcing_fu_mean              =   1.6225461269972E-02
(PID.TID 0000.0001) %MON forcing_fu_sd                =   9.0178097883684E-02
(PID.TID 0000.0001) %MON forcing_fu_del2              =   6.4160979257353E-04
(PID.TID 0000.0001) %MON forcing_fv_max               =   2.0835298033582E-01
(PID.TID 0000.0001) %MON forcing_fv_min               =  -1.8690676624267E-01
(PID.TID 0000.0001) %MON forcing_fv_mean              =  -6.3112500932584E-03
(PID.TID 0000.0001) %MON forcing_fv_sd                =   4.5147209559071E-02
(PID.TID 0000.0001) %MON forcing_fv_del2              =   4.3058787478848E-04
(PID.TID 0000.0001) %MON trAdv_CFL_u_max              =   0.0000000000000E+00
(PID.TID 0000.0001) %MON trAdv_CFL_v_max              =   0.0000000000000E+00
(PID.TID 0000.0001) %MON trAdv_CFL_w_max              =   0.0000000000000E+00
(PID.TID 0000.0001) %MON advcfl_uvel_max              =   2.1979552871283E-02
(PID.TID 0000.0001) %MON advcfl_vvel_max              =   1.3603289841692E-02
(PID.TID 0000.0001) %MON advcfl_wvel_max              =   4.1332940427638E-02
(PID.TID 0000.0001) %MON advcfl_W_hf_max              =   5.0201445983040E-02
(PID.TID 0000.0001) %MON pe_b_mean                    =  -6.4368668120800E-03
(PID.TID 0000.0001) %MON ke_max                       =   5.7521020041948E-04
(PID.TID 0000.0001) %MON ke_mean                      =   5.4208464415534E-06
(PID.TID 0000.0001) %MON ke_vol                       =   1.3442141716554E+22
(PID.TID 0000.0001) %MON vort_r_min                   =  -1.1936131053982E-07
(PID.TID 0000.0001) %MON vort_r_max                   =   1.5595297437961E-07
(PID.TID 0000.0001) %MON vort_a_mean                  =  -2.4598205433957E-05
(PID.TID 0000.0001) %MON vort_a_sd                    =   7.3636984478817E-05
(PID.TID 0000.0001) %MON vort_p_mean                  =  -2.9470763777015E-05
(PID.TID 0000.0001) %MON vort_p_sd                    =   1.0360208227295E-04
(PID.TID 0000.0001) %MON surfExpan_theta_mean         =   6.7314694837242E-02
(PID.TID 0000.0001) %MON surfExpan_salt_mean          =  -2.2852742432940E-04
(PID.TID 0000.0001) // =======================================================
(PID.TID 0000.0001) // End MONITOR dynamic field statistics
(PID.TID 0000.0001) // =======================================================
 EXTERNAL_FIELDS_LOAD,         1 : iP,iLd,i0,i1=   12    1   12    1 ; Wght=  0.4333333333  0.5666666667
 cg2d: Sum(rhs),rhsMax =   2.09554595897998E-15  1.74491025527420E+02
(PID.TID 0000.0001)      cg2d_init_res =   2.46961069563866E-01
(PID.TID 0000.0001)      cg2d_iters(min,last) =      -1     100
(PID.TID 0000.0001)      cg2d_last_res =   8.93944987923529E-10
(PID.TID 0000.0001) // =======================================================
(PID.TID 0000.0001) // Begin MONITOR dynamic field statistics
(PID.TID 0000.0001) // =======================================================
(PID.TID 0000.0001) %MON time_tsnumber                =                     2
(PID.TID 0000.0001) %MON time_secondsf                =   3.4560000000000E+05
(PID.TID 0000.0001) %MON dynstat_eta_max              =   4.8731450536100E+04
(PID.TID 0000.0001) %MON dynstat_eta_min              =  -8.9511245546204E+04
(PID.TID 0000.0001) %MON dynstat_eta_mean             =  -1.0969651490822E-12
(PID.TID 0000.0001) %MON dynstat_eta_sd               =   3.9631566178494E+04
(PID.TID 0000.0001) %MON dynstat_eta_del2             =   2.1451841533430E+03
(PID.TID 0000.0001) %MON dynstat_uvel_max             =   6.3304193635929E-02
(PID.TID 0000.0001) %MON dynstat_uvel_min             =  -4.0665562119323E-02
(PID.TID 0000.0001) %MON dynstat_uvel_mean            =  -1.1812107812185E-03
(PID.TID 0000.0001) %MON dynstat_uvel_sd              =   2.2830702491466E-03
(PID.TID 0000.0001) %MON dynstat_uvel_del2            =   2.7762345632368E-05
(PID.TID 0000.0001) %MON dynstat_vvel_max             =   5.1937726766173E-02
(PID.TID 0000.0001) %MON dynstat_vvel_min             =  -3.0731578950915E-02
(PID.TID 0000.0001) %MON dynstat_vvel_mean            =   1.5489296654171E-03
(PID.TID 0000.0001) %MON dynstat_vvel_sd              =   3.0000340554562E-03
(PID.TID 0000.0001) %MON dynstat_vvel_del2            =   3.2859698065673E-05
(PID.TID 0000.0001) %MON dynstat_wvel_max             =   6.3653971172248E-01
(PID.TID 0000.0001) %MON dynstat_wvel_min             =  -7.9093004738051E-01
(PID.TID 0000.0001) %MON dynstat_wvel_mean            =  -3.2535089381405E-03
(PID.TID 0000.0001) %MON dynstat_wvel_sd              =   8.9444104945087E-02
(PID.TID 0000.0001) %MON dynstat_wvel_del2            =   1.4669868692385E-03
(PID.TID 0000.0001) %MON dynstat_theta_max            =   2.9684508324331E+01
(PID.TID 0000.0001) %MON dynstat_theta_min            =  -2.6127577628499E+00
(PID.TID 0000.0001) %MON dynstat_theta_mean           =   3.6019391618220E+00
(PID.TID 0000.0001) %MON dynstat_theta_sd             =   4.4012382943117E+00
(PID.TID 0000.0001) %MON dynstat_theta_del2           =   5.7280330489262E-03
(PID.TID 0000.0001) %MON dynstat_salt_max             =   3.7481696365082E+01
(PID.TID 0000.0001) %MON dynstat_salt_min             =   2.9765601950131E+01
(PID.TID 0000.0001) %MON dynstat_salt_mean            =   3.4718001623067E+01
(PID.TID 0000.0001) %MON dynstat_salt_sd              =   2.9442671706627E-01
(PID.TID 0000.0001) %MON dynstat_salt_del2            =   1.0435469077810E-03
(PID.TID 0000.0001) %MON forcing_qnet_max             =   4.4097305510790E+02
(PID.TID 0000.0001) %MON forcing_qnet_min             =  -2.2101759470857E+02
(PID.TID 0000.0001) %MON forcing_qnet_mean            =  -1.5885028611888E+01
(PID.TID 0000.0001) %MON forcing_qnet_sd              =   1.1890885874093E+02
(PID.TID 0000.0001) %MON forcing_qnet_del2            =   6.9758199760840E-01
(PID.TID 0000.0001) %MON forcing_qsw_max              =   0.0000000000000E+00
(PID.TID 0000.0001) %MON forcing_qsw_min              =   0.0000000000000E+00
(PID.TID 0000.0001) %MON forcing_qsw_mean             =   0.0000000000000E+00
(PID.TID 0000.0001) %MON forcing_qsw_sd               =   0.0000000000000E+00
(PID.TID 0000.0001) %MON forcing_qsw_del2             =   0.0000000000000E+00
(PID.TID 0000.0001) %MON forcing_empmr_max            =   5.2312924520654E-05
(PID.TID 0000.0001) %MON forcing_empmr_min            =  -1.3707940920787E-04
(PID.TID 0000.0001) %MON forcing_empmr_mean           =   8.1730272552535E-22
(PID.TID 0000.0001) %MON forcing_empmr_sd             =   2.3555038620025E-05
(PID.TID 0000.0001) %MON forcing_empmr_del2           =   2.4961915835152E-07
(PID.TID 0000.0001) %MON forcing_fu_max               =   2.7317289557073E-01
(PID.TID 0000.0001) %MON forcing_fu_min               =  -1.6030611397112E-01
(PID.TID 0000.0001) %MON forcing_fu_mean              =   1.6205751728080E-02
(PID.TID 0000.0001) %MON forcing_fu_sd                =   9.0163314984710E-02
(PID.TID 0000.0001) %MON forcing_fu_del2              =   6.4499680240129E-04
(PID.TID 0000.0001) %MON forcing_fv_max               =   2.0930016589587E-01
(PID.TID 0000.0001) %MON forcing_fv_min               =  -1.8573745105650E-01
(PID.TID 0000.0001) %MON forcing_fv_mean              =  -6.1647329254770E-03
(PID.TID 0000.0001) %MON forcing_fv_sd                =   4.5369550755658E-02
(PID.TID 0000.0001) %MON forcing_fv_del2              =   4.3066747124620E-04
(PID.TID 0000.0001) %MON trAdv_CFL_u_max              =   2.1984017075671E-02
(PID.TID 0000.0001) %MON trAdv_CFL_v_max              =   1.7376324216851E-02
(PID.TID 0000.0001) %MON trAdv_CFL_w_max              =   5.0201445983040E-02
(PID.TID 0000.0001) %MON advcfl_uvel_max              =   3.3657700056190E-02
(PID.TID 0000.0001) %MON advcfl_vvel_max              =   2.0181334659352E-02
(PID.TID 0000.0001) %MON advcfl_wvel_max              =   5.3329973254368E-02
(PID.TID 0000.0001) %MON advcfl_W_hf_max              =   6.4772594059531E-02
(PID.TID 0000.0001) %MON pe_b_mean                    =  -7.1440395152752E-03
(PID.TID 0000.0001) %MON ke_max                       =   1.6949296768474E-03
(PID.TID 0000.0001) %MON ke_mean                      =   8.1035640279376E-06
(PID.TID 0000.0001) %MON ke_vol                       =   1.3442141716554E+22
(PID.TID 0000.0001) %MON vort_r_min                   =  -1.7528959998915E-07
(PID.TID 0000.0001) %MON vort_r_max                   =   1.8496218351050E-07
(PID.TID 0000.0001) %MON vort_a_mean                  =  -2.4598205548451E-05
(PID.TID 0000.0001) %MON vort_a_sd                    =   7.3636897957510E-05
(PID.TID 0000.0001) %MON vort_p_mean                  =  -2.9475837120614E-05
(PID.TID 0000.0001) %MON vort_p_sd                    =   1.0363025572138E-04
(PID.TID 0000.0001) %MON surfExpan_theta_mean         =   3.6310067823676E-02
(PID.TID 0000.0001) %MON surfExpan_salt_mean          =  -9.9763781564067E-05
(PID.TID 0000.0001) // =======================================================
(PID.TID 0000.0001) // End MONITOR dynamic field statistics
(PID.TID 0000.0001) // =======================================================
 EXTERNAL_FIELDS_LOAD,         2 : iP,iLd,i0,i1=   12    1   12    1 ; Wght=  0.3666666667  0.6333333333
 cg2d: Sum(rhs),rhsMax =   3.60822483003176E-16  1.72946927598947E+02
(PID.TID 0000.0001)      cg2d_init_res =   1.05266927324619E-01
(PID.TID 0000.0001)      cg2d_iters(min,last) =      -1      99
(PID.TID 0000.0001)      cg2d_last_res =   8.44864271507363E-10
(PID.TID 0000.0001) // =======================================================
(PID.TID 0000.0001) // Begin MONITOR dynamic field statistics
(PID.TID 0000.0001) // =======================================================
(PID.TID 0000.0001) %MON time_tsnumber                =                     3
(PID.TID 0000.0001) %MON time_secondsf                =   5.1840000000000E+05
(PID.TID 0000.0001) %MON dynstat_eta_max              =   5.1187690644298E+04
(PID.TID 0000.0001) %MON dynstat_eta_min              =  -9.1291812654994E+04
(PID.TID 0000.0001) %MON dynstat_eta_mean             =  -3.5102884770630E-12
(PID.TID 0000.0001) %MON dynstat_eta_sd               =   3.9692824903823E+04
(PID.TID 0000.0001) %MON dynstat_eta_del2             =   2.1203163413275E+03
(PID.TID 0000.0001) %MON dynstat_uvel_max             =   7.1144492171942E-02
(PID.TID 0000.0001) %MON dynstat_uvel_min             =  -5.1820176630174E-02
(PID.TID 0000.0001) %MON dynstat_uvel_mean            =  -1.1611745764352E-03
(PID.TID 0000.0001) %MON dynstat_uvel_sd              =   2.7116173531614E-03
(PID.TID 0000.0001) %MON dynstat_uvel_del2            =   3.6782278024847E-05
(PID.TID 0000.0001) %MON dynstat_vvel_max             =   5.3413467097868E-02
(PID.TID 0000.0001) %MON dynstat_vvel_min             =  -4.5580018084989E-02
(PID.TID 0000.0001) %MON dynstat_vvel_mean            =   1.5249385901560E-03
(PID.TID 0000.0001) %MON dynstat_vvel_sd              =   4.1691709783510E-03
(PID.TID 0000.0001) %MON dynstat_vvel_del2            =   4.5475874050495E-05
(PID.TID 0000.0001) %MON dynstat_wvel_max             =   8.8722866015909E-01
(PID.TID 0000.0001) %MON dynstat_wvel_min             =  -1.0866968237903E+00
(PID.TID 0000.0001) %MON dynstat_wvel_mean            =  -1.5746951986405E-03
(PID.TID 0000.0001) %MON dynstat_wvel_sd              =   1.2221960079329E-01
(PID.TID 0000.0001) %MON dynstat_wvel_del2            =   1.9755405250569E-03
(PID.TID 0000.0001) %MON dynstat_theta_max            =   2.9669020379124E+01
(PID.TID 0000.0001) %MON dynstat_theta_min            =  -2.6050326476175E+00
(PID.TID 0000.0001) %MON dynstat_theta_mean           =   3.6021527216208E+00
(PID.TID 0000.0001) %MON dynstat_theta_sd             =   4.4012308893835E+00
(PID.TID 0000.0001) %MON dynstat_theta_del2           =   5.6486043461400E-03
(PID.TID 0000.0001) %MON dynstat_salt_max             =   3.7435162224369E+01
(PID.TID 0000.0001) %MON dynstat_salt_min             =   2.9770611772561E+01
(PID.TID 0000.0001) %MON dynstat_salt_mean            =   3.4718001280925E+01
(PID.TID 0000.0001) %MON dynstat_salt_sd              =   2.9442233713073E-01
(PID.TID 0000.0001) %MON dynstat_salt_del2            =   1.0402326265819E-03
(PID.TID 0000.0001) %MON forcing_qnet_max             =   4.4049352312003E+02
(PID.TID 0000.0001) %MON forcing_qnet_min             =  -2.1762968086790E+02
(PID.TID 0000.0001) %MON forcing_qnet_mean            =  -1.5811633362602E+01
(PID.TID 0000.0001) %MON forcing_qnet_sd              =   1.1851361770403E+02
(PID.TID 0000.0001) %MON forcing_qnet_del2            =   7.0176440912652E-01
(PID.TID 0000.0001) %MON forcing_qsw_max              =   0.0000000000000E+00
(PID.TID 0000.0001) %MON forcing_qsw_min              =   0.0000000000000E+00
(PID.TID 0000.0001) %MON forcing_qsw_mean             =   0.0000000000000E+00
(PID.TID 0000.0001) %MON forcing_qsw_sd               =   0.0000000000000E+00
(PID.TID 0000.0001) %MON forcing_qsw_del2             =   0.0000000000000E+00
(PID.TID 0000.0001) %MON forcing_empmr_max            =   5.2312924520654E-05
(PID.TID 0000.0001) %MON forcing_empmr_min            =  -1.3707940920787E-04
(PID.TID 0000.0001) %MON forcing_empmr_mean           =   4.0865136276267E-22
(PID.TID 0000.0001) %MON forcing_empmr_sd             =   2.3555038620025E-05
(PID.TID 0000.0001) %MON forcing_empmr_del2           =   2.4961915835152E-07
(PID.TID 0000.0001) %MON forcing_fu_max               =   2.7145580030005E-01
(PID.TID 0000.0001) %MON forcing_fu_min               =  -1.6193295433260E-01
(PID.TID 0000.0001) %MON forcing_fu_mean              =   1.6186042186188E-02
(PID.TID 0000.0001) %MON forcing_fu_sd                =   9.0191995746640E-02
(PID.TID 0000.0001) %MON forcing_fu_del2              =   6.5054420938253E-04
(PID.TID 0000.0001) %MON forcing_fv_max               =   2.1244236100063E-01
(PID.TID 0000.0001) %MON forcing_fv_min               =  -1.8456813587032E-01
(PID.TID 0000.0001) %MON forcing_fv_mean              =  -6.0182157576956E-03
(PID.TID 0000.0001) %MON forcing_fv_sd                =   4.5652999799994E-02
(PID.TID 0000.0001) %MON forcing_fv_del2              =   4.3302155748244E-04
(PID.TID 0000.0001) %MON trAdv_CFL_u_max              =   3.4023610840839E-02
(PID.TID 0000.0001) %MON trAdv_CFL_v_max              =   2.0553846395049E-02
(PID.TID 0000.0001) %MON trAdv_CFL_w_max              =   4.5323243068243E-02
(PID.TID 0000.0001) %MON advcfl_uvel_max              =   4.1883475207327E-02
(PID.TID 0000.0001) %MON advcfl_vvel_max              =   2.0754760016190E-02
(PID.TID 0000.0001) %MON advcfl_wvel_max              =   6.7849893495758E-02
(PID.TID 0000.0001) %MON advcfl_W_hf_max              =   8.0000410885733E-02
(PID.TID 0000.0001) %MON pe_b_mean                    =  -8.1381170042314E-03
(PID.TID 0000.0001) %MON ke_max                       =   1.9935661445800E-03
(PID.TID 0000.0001) %MON ke_mean                      =   1.2776478266884E-05
(PID.TID 0000.0001) %MON ke_vol                       =   1.3442141716554E+22
(PID.TID 0000.0001) %MON vort_r_min                   =  -2.0870324390715E-07
(PID.TID 0000.0001) %MON vort_r_max                   =   2.3948655295791E-07
(PID.TID 0000.0001) %MON vort_a_mean                  =  -2.4598205699373E-05
(PID.TID 0000.0001) %MON vort_a_sd                    =   7.3636896465367E-05
(PID.TID 0000.0001) %MON vort_p_mean                  =  -2.9476057049540E-05
(PID.TID 0000.0001) %MON vort_p_sd                    =   1.0363472713258E-04
(PID.TID 0000.0001) %MON surfExpan_theta_mean         =   1.7738689832690E-02
(PID.TID 0000.0001) %MON surfExpan_salt_mean          =  -2.9264460938167E-04
(PID.TID 0000.0001) // =======================================================
(PID.TID 0000.0001) // End MONITOR dynamic field statistics
(PID.TID 0000.0001) // =======================================================
 EXTERNAL_FIELDS_LOAD,         3 : iP,iLd,i0,i1=   12    1   12    1 ; Wght=  0.3000000000  0.7000000000
 cg2d: Sum(rhs),rhsMax =   2.08166817117217E-15  1.72906146268021E+02
(PID.TID 0000.0001)      cg2d_init_res =   8.86299686343460E-03
(PID.TID 0000.0001)      cg2d_iters(min,last) =      -1      91
(PID.TID 0000.0001)      cg2d_last_res =   8.94396065771831E-10
(PID.TID 0000.0001) // =======================================================
(PID.TID 0000.0001) // Begin MONITOR dynamic field statistics
(PID.TID 0000.0001) // =======================================================
(PID.TID 0000.0001) %MON time_tsnumber                =                     4
(PID.TID 0000.0001) %MON time_secondsf                =   6.9120000000000E+05
(PID.TID 0000.0001) %MON dynstat_eta_max              =   5.1022220432086E+04
(PID.TID 0000.0001) %MON dynstat_eta_min              =  -9.2912034242294E+04
(PID.TID 0000.0001) %MON dynstat_eta_mean             =   8.7757211926576E-13
(PID.TID 0000.0001) %MON dynstat_eta_sd               =   4.0207364186275E+04
(PID.TID 0000.0001) %MON dynstat_eta_del2             =   2.1191695433898E+03
(PID.TID 0000.0001) %MON dynstat_uvel_max             =   6.0373181414721E-02
(PID.TID 0000.0001) %MON dynstat_uvel_min             =  -7.7398832514350E-02
(PID.TID 0000.0001) %MON dynstat_uvel_mean            =  -8.8738653325913E-04
(PID.TID 0000.0001) %MON dynstat_uvel_sd              =   3.1068642425061E-03
(PID.TID 0000.0001) %MON dynstat_uvel_del2            =   4.4784025547006E-05
(PID.TID 0000.0001) %MON dynstat_vvel_max             =   5.0445617437601E-02
(PID.TID 0000.0001) %MON dynstat_vvel_min             =  -5.9541807417937E-02
(PID.TID 0000.0001) %MON dynstat_vvel_mean            =   1.2051471104179E-03
(PID.TID 0000.0001) %MON dynstat_vvel_sd              =   5.2732942351540E-03
(PID.TID 0000.0001) %MON dynstat_vvel_del2            =   5.7684290203309E-05
(PID.TID 0000.0001) %MON dynstat_wvel_max             =   1.1517920064735E+00
(PID.TID 0000.0001) %MON dynstat_wvel_min             =  -1.3332465646025E+00
(PID.TID 0000.0001) %MON dynstat_wvel_mean            =  -9.9677632630542E-04
(PID.TID 0000.0001) %MON dynstat_wvel_sd              =   1.4929266822748E-01
(PID.TID 0000.0001) %MON dynstat_wvel_del2            =   2.3613348919083E-03
(PID.TID 0000.0001) %MON dynstat_theta_max            =   2.9656615937358E+01
(PID.TID 0000.0001) %MON dynstat_theta_min            =  -2.5972789531693E+00
(PID.TID 0000.0001) %MON dynstat_theta_mean           =   3.6023337196646E+00
(PID.TID 0000.0001) %MON dynstat_theta_sd             =   4.4012622288319E+00
(PID.TID 0000.0001) %MON dynstat_theta_del2           =   5.5527739848260E-03
(PID.TID 0000.0001) %MON dynstat_salt_max             =   3.7435139119141E+01
(PID.TID 0000.0001) %MON dynstat_salt_min             =   2.9775222928443E+01
(PID.TID 0000.0001) %MON dynstat_salt_mean            =   3.4718001793435E+01
(PID.TID 0000.0001) %MON dynstat_salt_sd              =   2.9441571236536E-01
(PID.TID 0000.0001) %MON dynstat_salt_del2            =   1.0351907759711E-03
(PID.TID 0000.0001) %MON forcing_qnet_max             =   4.4001399113216E+02
(PID.TID 0000.0001) %MON forcing_qnet_min             =  -2.1424176702723E+02
(PID.TID 0000.0001) %MON forcing_qnet_mean            =  -1.5738238113315E+01
(PID.TID 0000.0001) %MON forcing_qnet_sd              =   1.1818205583255E+02
(PID.TID 0000.0001) %MON forcing_qnet_del2            =   7.0819273676404E-01
(PID.TID 0000.0001) %MON forcing_qsw_max              =   0.0000000000000E+00
(PID.TID 0000.0001) %MON forcing_qsw_min              =   0.0000000000000E+00
(PID.TID 0000.0001) %MON forcing_qsw_mean             =   0.0000000000000E+00
(PID.TID 0000.0001) %MON forcing_qsw_sd               =   0.0000000000000E+00
(PID.TID 0000.0001) %MON forcing_qsw_del2             =   0.0000000000000E+00
(PID.TID 0000.0001) %MON forcing_empmr_max            =   5.2312924520654E-05
(PID.TID 0000.0001) %MON forcing_empmr_min            =  -1.3707940920787E-04
(PID.TID 0000.0001) %MON forcing_empmr_mean           =   8.1730272552535E-22
(PID.TID 0000.0001) %MON forcing_empmr_sd             =   2.3555038620025E-05
(PID.TID 0000.0001) %MON forcing_empmr_del2           =   2.4961915835152E-07
(PID.TID 0000.0001) %MON forcing_fu_max               =   2.6977392188535E-01
(PID.TID 0000.0001) %MON forcing_fu_min               =  -1.6355979469407E-01
(PID.TID 0000.0001) %MON forcing_fu_mean              =   1.6166332644296E-02
(PID.TID 0000.0001) %MON forcing_fu_sd                =   9.0264098738697E-02
(PID.TID 0000.0001) %MON forcing_fu_del2              =   6.5819739112670E-04
(PID.TID 0000.0001) %MON forcing_fv_max               =   2.1620217177861E-01
(PID.TID 0000.0001) %MON forcing_fv_min               =  -1.8339882068415E-01
(PID.TID 0000.0001) %MON forcing_fv_mean              =  -5.8716985899142E-03
(PID.TID 0000.0001) %MON forcing_fv_sd                =   4.5996426990309E-02
(PID.TID 0000.0001) %MON forcing_fv_del2              =   4.3761342904399E-04
(PID.TID 0000.0001) %MON trAdv_CFL_u_max              =   4.2457458670588E-02
(PID.TID 0000.0001) %MON trAdv_CFL_v_max              =   2.1562663509242E-02
(PID.TID 0000.0001) %MON trAdv_CFL_w_max              =   5.9777451267930E-02
(PID.TID 0000.0001) %MON advcfl_uvel_max              =   4.9570840172367E-02
(PID.TID 0000.0001) %MON advcfl_vvel_max              =   2.3136036491044E-02
(PID.TID 0000.0001) %MON advcfl_wvel_max              =   8.2672723383567E-02
(PID.TID 0000.0001) %MON advcfl_W_hf_max              =   9.7087712611970E-02
(PID.TID 0000.0001) %MON pe_b_mean                    =  -8.3953210342011E-03
(PID.TID 0000.0001) %MON ke_max                       =   2.3924838775908E-03
(PID.TID 0000.0001) %MON ke_mean                      =   1.7846772698814E-05
(PID.TID 0000.0001) %MON ke_vol                       =   1.3442141716554E+22
(PID.TID 0000.0001) %MON vort_r_min                   =  -2.2444891367773E-07
(PID.TID 0000.0001) %MON vort_r_max                   =   2.8703165171912E-07
(PID.TID 0000.0001) %MON vort_a_mean                  =  -2.4598205837176E-05
(PID.TID 0000.0001) %MON vort_a_sd                    =   7.3636956691787E-05
(PID.TID 0000.0001) %MON vort_p_mean                  =  -2.9476077386042E-05
(PID.TID 0000.0001) %MON vort_p_sd                    =   1.0363703575158E-04
(PID.TID 0000.0001) %MON surfExpan_theta_mean         =   1.0299907508857E-02
(PID.TID 0000.0001) %MON surfExpan_salt_mean          =  -2.3121035246097E-04
(PID.TID 0000.0001) // =======================================================
(PID.TID 0000.0001) // End MONITOR dynamic field statistics
(PID.TID 0000.0001) // =======================================================
 EXTERNAL_FIELDS_LOAD,         4 : iP,iLd,i0,i1=   12    1   12    1 ; Wght=  0.2333333333  0.7666666667
 cg2d: Sum(rhs),rhsMax =   2.38697950294409E-15  1.72918766920360E+02
(PID.TID 0000.0001)      cg2d_init_res =   4.67202668332594E-03
(PID.TID 0000.0001)      cg2d_iters(min,last) =      -1      94
(PID.TID 0000.0001)      cg2d_last_res =   9.56783421109704E-10
(PID.TID 0000.0001) // =======================================================
(PID.TID 0000.0001) // Begin MONITOR dynamic field statistics
(PID.TID 0000.0001) // =======================================================
(PID.TID 0000.0001) %MON time_tsnumber                =                     5
(PID.TID 0000.0001) %MON time_secondsf                =   8.6400000000000E+05
(PID.TID 0000.0001) %MON dynstat_eta_max              =   5.8777961990041E+04
(PID.TID 0000.0001) %MON dynstat_eta_min              =  -9.4350849620728E+04
(PID.TID 0000.0001) %MON dynstat_eta_mean             =   6.1430048348603E-12
(PID.TID 0000.0001) %MON dynstat_eta_sd               =   4.0654232830610E+04
(PID.TID 0000.0001) %MON dynstat_eta_del2             =   2.1193252486699E+03
(PID.TID 0000.0001) %MON dynstat_uvel_max             =   5.9431546259501E-02
(PID.TID 0000.0001) %MON dynstat_uvel_min             =  -9.0095824957242E-02
(PID.TID 0000.0001) %MON dynstat_uvel_mean            =  -4.7286298734172E-04
(PID.TID 0000.0001) %MON dynstat_uvel_sd              =   3.5824348275364E-03
(PID.TID 0000.0001) %MON dynstat_uvel_del2            =   5.1919006845905E-05
(PID.TID 0000.0001) %MON dynstat_vvel_max             =   6.0201937207916E-02
(PID.TID 0000.0001) %MON dynstat_vvel_min             =  -7.2312723148846E-02
(PID.TID 0000.0001) %MON dynstat_vvel_mean            =   7.4567188833830E-04
(PID.TID 0000.0001) %MON dynstat_vvel_sd              =   6.3133399251076E-03
(PID.TID 0000.0001) %MON dynstat_vvel_del2            =   6.9042652361022E-05
(PID.TID 0000.0001) %MON dynstat_wvel_max             =   1.3999315034873E+00
(PID.TID 0000.0001) %MON dynstat_wvel_min             =  -1.5271611397556E+00
(PID.TID 0000.0001) %MON dynstat_wvel_mean            =  -6.9382859389008E-04
(PID.TID 0000.0001) %MON dynstat_wvel_sd              =   1.7382735174086E-01
(PID.TID 0000.0001) %MON dynstat_wvel_del2            =   2.6961383087031E-03
(PID.TID 0000.0001) %MON dynstat_theta_max            =   2.9654525170064E+01
(PID.TID 0000.0001) %MON dynstat_theta_min            =  -2.5894330677868E+00
(PID.TID 0000.0001) %MON dynstat_theta_mean           =   3.6024836623626E+00
(PID.TID 0000.0001) %MON dynstat_theta_sd             =   4.4013087405700E+00
(PID.TID 0000.0001) %MON dynstat_theta_del2           =   5.4496680330636E-03
(PID.TID 0000.0001) %MON dynstat_salt_max             =   3.7435037703972E+01
(PID.TID 0000.0001) %MON dynstat_salt_min             =   2.9777919241109E+01
(PID.TID 0000.0001) %MON dynstat_salt_mean            =   3.4718001630196E+01
(PID.TID 0000.0001) %MON dynstat_salt_sd              =   2.9441767764611E-01
(PID.TID 0000.0001) %MON dynstat_salt_del2            =   1.0316720352012E-03
(PID.TID 0000.0001) %MON forcing_qnet_max             =   4.3953445914429E+02
(PID.TID 0000.0001) %MON forcing_qnet_min             =  -2.1304556232427E+02
(PID.TID 0000.0001) %MON forcing_qnet_mean            =  -1.5664842864029E+01
(PID.TID 0000.0001) %MON forcing_qnet_sd              =   1.1791471030201E+02
(PID.TID 0000.0001) %MON forcing_qnet_del2            =   7.1680655887993E-01
(PID.TID 0000.0001) %MON forcing_qsw_max              =   0.0000000000000E+00
(PID.TID 0000.0001) %MON forcing_qsw_min              =   0.0000000000000E+00
(PID.TID 0000.0001) %MON forcing_qsw_mean             =   0.0000000000000E+00
(PID.TID 0000.0001) %MON forcing_qsw_sd               =   0.0000000000000E+00
(PID.TID 0000.0001) %MON forcing_qsw_del2             =   0.0000000000000E+00
(PID.TID 0000.0001) %MON forcing_empmr_max            =   5.2312924520654E-05
(PID.TID 0000.0001) %MON forcing_empmr_min            =  -1.3707940920787E-04
(PID.TID 0000.0001) %MON forcing_empmr_mean           =   4.0865136276267E-22
(PID.TID 0000.0001) %MON forcing_empmr_sd             =   2.3555038620025E-05
(PID.TID 0000.0001) %MON forcing_empmr_del2           =   2.4961915835152E-07
(PID.TID 0000.0001) %MON forcing_fu_max               =   2.6993649979941E-01
(PID.TID 0000.0001) %MON forcing_fu_min               =  -1.6518663505555E-01
(PID.TID 0000.0001) %MON forcing_fu_mean              =   1.6146623102404E-02
(PID.TID 0000.0001) %MON forcing_fu_sd                =   9.0379520036752E-02
(PID.TID 0000.0001) %MON forcing_fu_del2              =   6.6788396228870E-04
(PID.TID 0000.0001) %MON forcing_fv_max               =   2.1996198255658E-01
(PID.TID 0000.0001) %MON forcing_fv_min               =  -1.8222950549797E-01
(PID.TID 0000.0001) %MON forcing_fv_mean              =  -5.7251814221328E-03
(PID.TID 0000.0001) %MON forcing_fv_sd                =   4.6398500527278E-02
(PID.TID 0000.0001) %MON forcing_fv_del2              =   4.4437371985182E-04
(PID.TID 0000.0001) %MON trAdv_CFL_u_max              =   4.9736919952016E-02
(PID.TID 0000.0001) %MON trAdv_CFL_v_max              =   2.2164178643167E-02
(PID.TID 0000.0001) %MON trAdv_CFL_w_max              =   7.8094117855154E-02
(PID.TID 0000.0001) %MON advcfl_uvel_max              =   5.4004091544912E-02
(PID.TID 0000.0001) %MON advcfl_vvel_max              =   2.8098404702348E-02
(PID.TID 0000.0001) %MON advcfl_wvel_max              =   9.6078914474386E-02
(PID.TID 0000.0001) %MON advcfl_W_hf_max              =   1.0908741646353E-01
(PID.TID 0000.0001) %MON pe_b_mean                    =  -8.4417417547834E-03
(PID.TID 0000.0001) %MON ke_max                       =   3.5715841762088E-03
(PID.TID 0000.0001) %MON ke_mean                      =   2.4033004901197E-05
(PID.TID 0000.0001) %MON ke_vol                       =   1.3442141716554E+22
(PID.TID 0000.0001) %MON vort_r_min                   =  -2.5907671708790E-07
(PID.TID 0000.0001) %MON vort_r_max                   =   2.9702778656968E-07
(PID.TID 0000.0001) %MON vort_a_mean                  =  -2.4598205917344E-05
(PID.TID 0000.0001) %MON vort_a_sd                    =   7.3637051737867E-05
(PID.TID 0000.0001) %MON vort_p_mean                  =  -2.9476147923768E-05
(PID.TID 0000.0001) %MON vort_p_sd                    =   1.0363835084626E-04
(PID.TID 0000.0001) %MON surfExpan_theta_mean         =   6.1418342497161E-03
(PID.TID 0000.0001) %MON surfExpan_salt_mean          =  -1.0933568425280E-04
(PID.TID 0000.0001) // =======================================================
(PID.TID 0000.0001) // End MONITOR dynamic field statistics
(PID.TID 0000.0001) // =======================================================
 EXTERNAL_FIELDS_LOAD,         5 : iP,iLd,i0,i1=   12    1   12    1 ; Wght=  0.1666666667  0.8333333333
 cg2d: Sum(rhs),rhsMax =   1.11022302462516E-16  1.72928026396318E+02
(PID.TID 0000.0001)      cg2d_init_res =   3.44720163719426E-03
(PID.TID 0000.0001)      cg2d_iters(min,last) =      -1      91
(PID.TID 0000.0001)      cg2d_last_res =   9.88704297449990E-10
(PID.TID 0000.0001) // =======================================================
(PID.TID 0000.0001) // Begin MONITOR dynamic field statistics
(PID.TID 0000.0001) // =======================================================
(PID.TID 0000.0001) %MON time_tsnumber                =                     6
(PID.TID 0000.0001) %MON time_secondsf                =   1.0368000000000E+06
(PID.TID 0000.0001) %MON dynstat_eta_max              =   6.2199514528760E+04
(PID.TID 0000.0001) %MON dynstat_eta_min              =  -9.5076086806047E+04
(PID.TID 0000.0001) %MON dynstat_eta_mean             =  -6.1430048348603E-12
(PID.TID 0000.0001) %MON dynstat_eta_sd               =   4.0801704496365E+04
(PID.TID 0000.0001) %MON dynstat_eta_del2             =   2.1193912540702E+03
(PID.TID 0000.0001) %MON dynstat_uvel_max             =   7.3872645856155E-02
(PID.TID 0000.0001) %MON dynstat_uvel_min             =  -8.7711994894124E-02
(PID.TID 0000.0001) %MON dynstat_uvel_mean            =  -3.8391728420626E-05
(PID.TID 0000.0001) %MON dynstat_uvel_sd              =   4.2190994927203E-03
(PID.TID 0000.0001) %MON dynstat_uvel_del2            =   5.8219909841981E-05
(PID.TID 0000.0001) %MON dynstat_vvel_max             =   6.8510011092932E-02
(PID.TID 0000.0001) %MON dynstat_vvel_min             =  -8.3509538293638E-02
(PID.TID 0000.0001) %MON dynstat_vvel_mean            =   2.7716163547316E-04
(PID.TID 0000.0001) %MON dynstat_vvel_sd              =   7.2905348043045E-03
(PID.TID 0000.0001) %MON dynstat_vvel_del2            =   7.9319254713992E-05
(PID.TID 0000.0001) %MON dynstat_wvel_max             =   1.6150474146068E+00
(PID.TID 0000.0001) %MON dynstat_wvel_min             =  -1.6581751720617E+00
(PID.TID 0000.0001) %MON dynstat_wvel_mean            =  -3.9056482637718E-04
(PID.TID 0000.0001) %MON dynstat_wvel_sd              =   1.9515970060754E-01
(PID.TID 0000.0001) %MON dynstat_wvel_del2            =   2.9650427992347E-03
(PID.TID 0000.0001) %MON dynstat_theta_max            =   2.9697979591740E+01
(PID.TID 0000.0001) %MON dynstat_theta_min            =  -2.5814274764938E+00
(PID.TID 0000.0001) %MON dynstat_theta_mean           =   3.6026221481766E+00
(PID.TID 0000.0001) %MON dynstat_theta_sd             =   4.4013768300064E+00
(PID.TID 0000.0001) %MON dynstat_theta_del2           =   5.3456583794242E-03
(PID.TID 0000.0001) %MON dynstat_salt_max             =   3.7434852876053E+01
(PID.TID 0000.0001) %MON dynstat_salt_min             =   2.9779032519786E+01
(PID.TID 0000.0001) %MON dynstat_salt_mean            =   3.4718001306359E+01
(PID.TID 0000.0001) %MON dynstat_salt_sd              =   2.9441921702222E-01
(PID.TID 0000.0001) %MON dynstat_salt_del2            =   1.0275865659726E-03
(PID.TID 0000.0001) %MON forcing_qnet_max             =   4.4037724209196E+02
(PID.TID 0000.0001) %MON forcing_qnet_min             =  -2.1284566492290E+02
(PID.TID 0000.0001) %MON forcing_qnet_mean            =  -1.5591447614743E+01
(PID.TID 0000.0001) %MON forcing_qnet_sd              =   1.1771201865440E+02
(PID.TID 0000.0001) %MON forcing_qnet_del2            =   7.2752825186415E-01
(PID.TID 0000.0001) %MON forcing_qsw_max              =   0.0000000000000E+00
(PID.TID 0000.0001) %MON forcing_qsw_min              =   0.0000000000000E+00
(PID.TID 0000.0001) %MON forcing_qsw_mean             =   0.0000000000000E+00
(PID.TID 0000.0001) %MON forcing_qsw_sd               =   0.0000000000000E+00
(PID.TID 0000.0001) %MON forcing_qsw_del2             =   0.0000000000000E+00
(PID.TID 0000.0001) %MON forcing_empmr_max            =   5.2312924520654E-05
(PID.TID 0000.0001) %MON forcing_empmr_min            =  -1.3707940920787E-04
(PID.TID 0000.0001) %MON forcing_empmr_mean           =   4.0865136276267E-22
(PID.TID 0000.0001) %MON forcing_empmr_sd             =   2.3555038620025E-05
(PID.TID 0000.0001) %MON forcing_empmr_del2           =   2.4961915835152E-07
(PID.TID 0000.0001) %MON forcing_fu_max               =   2.7009907771346E-01
(PID.TID 0000.0001) %MON forcing_fu_min               =  -1.6681347541702E-01
(PID.TID 0000.0001) %MON forcing_fu_mean              =   1.6126913560513E-02
(PID.TID 0000.0001) %MON forcing_fu_sd                =   9.0538093969639E-02
(PID.TID 0000.0001) %MON forcing_fu_del2              =   6.7951697002394E-04
(PID.TID 0000.0001) %MON forcing_fv_max               =   2.2372179333456E-01
(PID.TID 0000.0001) %MON forcing_fv_min               =  -1.8106019031180E-01
(PID.TID 0000.0001) %MON forcing_fv_mean              =  -5.5786642543514E-03
(PID.TID 0000.0001) %MON forcing_fv_sd                =   4.6857710749175E-02
(PID.TID 0000.0001) %MON forcing_fv_del2              =   4.5320540386280E-04
(PID.TID 0000.0001) %MON trAdv_CFL_u_max              =   5.3920110932597E-02
(PID.TID 0000.0001) %MON trAdv_CFL_v_max              =   2.6918096435918E-02
(PID.TID 0000.0001) %MON trAdv_CFL_w_max              =   9.4987033273592E-02
(PID.TID 0000.0001) %MON advcfl_uvel_max              =   5.3934847350491E-02
(PID.TID 0000.0001) %MON advcfl_vvel_max              =   3.2449127916964E-02
(PID.TID 0000.0001) %MON advcfl_wvel_max              =   1.0591083845440E-01
(PID.TID 0000.0001) %MON advcfl_W_hf_max              =   1.1991144467440E-01
(PID.TID 0000.0001) %MON pe_b_mean                    =  -8.5192963564499E-03
(PID.TID 0000.0001) %MON ke_max                       =   3.8520477646275E-03
(PID.TID 0000.0001) %MON ke_mean                      =   3.1927105193104E-05
(PID.TID 0000.0001) %MON ke_vol                       =   1.3442141716554E+22
(PID.TID 0000.0001) %MON vort_r_min                   =  -2.9393731111568E-07
(PID.TID 0000.0001) %MON vort_r_max                   =   2.9638597146925E-07
(PID.TID 0000.0001) %MON vort_a_mean                  =  -2.4598205901929E-05
(PID.TID 0000.0001) %MON vort_a_sd                    =   7.3637152869186E-05
(PID.TID 0000.0001) %MON vort_p_mean                  =  -2.9476194533748E-05
(PID.TID 0000.0001) %MON vort_p_sd                    =   1.0363871158538E-04
(PID.TID 0000.0001) %MON surfExpan_theta_mean         =   2.1099872549432E-03
(PID.TID 0000.0001) %MON surfExpan_salt_mean          =  -5.9579376030009E-05
(PID.TID 0000.0001) // =======================================================
(PID.TID 0000.0001) // End MONITOR dynamic field statistics
(PID.TID 0000.0001) // =======================================================
 EXTERNAL_FIELDS_LOAD,         6 : iP,iLd,i0,i1=   12    1   12    1 ; Wght=  0.1000000000  0.9000000000
 cg2d: Sum(rhs),rhsMax =  -3.16413562018170E-15  1.72940006374309E+02
(PID.TID 0000.0001)      cg2d_init_res =   3.58866279382392E-03
(PID.TID 0000.0001)      cg2d_iters(min,last) =      -1      91
(PID.TID 0000.0001)      cg2d_last_res =   8.94333226802885E-10
(PID.TID 0000.0001) // =======================================================
(PID.TID 0000.0001) // Begin MONITOR dynamic field statistics
(PID.TID 0000.0001) // =======================================================
(PID.TID 0000.0001) %MON time_tsnumber                =                     7
(PID.TID 0000.0001) %MON time_secondsf                =   1.2096000000000E+06
(PID.TID 0000.0001) %MON dynstat_eta_max              =   6.1124867274111E+04
(PID.TID 0000.0001) %MON dynstat_eta_min              =  -9.5056492024873E+04
(PID.TID 0000.0001) %MON dynstat_eta_mean             =  -2.6327163577973E-12
(PID.TID 0000.0001) %MON dynstat_eta_sd               =   4.0658522838634E+04
(PID.TID 0000.0001) %MON dynstat_eta_del2             =   2.1194804575949E+03
(PID.TID 0000.0001) %MON dynstat_uvel_max             =   8.8124654697550E-02
(PID.TID 0000.0001) %MON dynstat_uvel_min             =  -7.2707985717155E-02
(PID.TID 0000.0001) %MON dynstat_uvel_mean            =   3.1961548860430E-04
(PID.TID 0000.0001) %MON dynstat_uvel_sd              =   4.9897499699937E-03
(PID.TID 0000.0001) %MON dynstat_uvel_del2            =   6.3658695435690E-05
(PID.TID 0000.0001) %MON dynstat_vvel_max             =   7.5321113116832E-02
(PID.TID 0000.0001) %MON dynstat_vvel_min             =  -9.4848605905720E-02
(PID.TID 0000.0001) %MON dynstat_vvel_mean            =  -1.0069652102899E-04
(PID.TID 0000.0001) %MON dynstat_vvel_sd              =   8.1800417393895E-03
(PID.TID 0000.0001) %MON dynstat_vvel_del2            =   8.8287955926494E-05
(PID.TID 0000.0001) %MON dynstat_wvel_max             =   1.7882603424237E+00
(PID.TID 0000.0001) %MON dynstat_wvel_min             =  -1.7284273274248E+00
(PID.TID 0000.0001) %MON dynstat_wvel_mean            =  -8.0189997947282E-05
(PID.TID 0000.0001) %MON dynstat_wvel_sd              =   2.1276998747193E-01
(PID.TID 0000.0001) %MON dynstat_wvel_del2            =   3.1644583051033E-03
(PID.TID 0000.0001) %MON dynstat_theta_max            =   2.9742919278628E+01
(PID.TID 0000.0001) %MON dynstat_theta_min            =  -2.6576220656054E+00
(PID.TID 0000.0001) %MON dynstat_theta_mean           =   3.6027577546461E+00
(PID.TID 0000.0001) %MON dynstat_theta_sd             =   4.4014709819638E+00
(PID.TID 0000.0001) %MON dynstat_theta_del2           =   5.2518397691473E-03
(PID.TID 0000.0001) %MON dynstat_salt_max             =   3.7434621480053E+01
(PID.TID 0000.0001) %MON dynstat_salt_min             =   2.9779140519740E+01
(PID.TID 0000.0001) %MON dynstat_salt_mean            =   3.4718001174149E+01
(PID.TID 0000.0001) %MON dynstat_salt_sd              =   2.9442000496513E-01
(PID.TID 0000.0001) %MON dynstat_salt_del2            =   1.0256391513196E-03
(PID.TID 0000.0001) %MON forcing_qnet_max             =   4.5578450464295E+02
(PID.TID 0000.0001) %MON forcing_qnet_min             =  -2.1264576752152E+02
(PID.TID 0000.0001) %MON forcing_qnet_mean            =  -1.5518052365456E+01
(PID.TID 0000.0001) %MON forcing_qnet_sd              =   1.1757431526940E+02
(PID.TID 0000.0001) %MON forcing_qnet_del2            =   7.4026623293719E-01
(PID.TID 0000.0001) %MON forcing_qsw_max              =   0.0000000000000E+00
(PID.TID 0000.0001) %MON forcing_qsw_min              =   0.0000000000000E+00
(PID.TID 0000.0001) %MON forcing_qsw_mean             =   0.0000000000000E+00
(PID.TID 0000.0001) %MON forcing_qsw_sd               =   0.0000000000000E+00
(PID.TID 0000.0001) %MON forcing_qsw_del2             =   0.0000000000000E+00
(PID.TID 0000.0001) %MON forcing_empmr_max            =   5.2312924520654E-05
(PID.TID 0000.0001) %MON forcing_empmr_min            =  -1.3707940920787E-04
(PID.TID 0000.0001) %MON forcing_empmr_mean           =   4.0865136276267E-22
(PID.TID 0000.0001) %MON forcing_empmr_sd             =   2.3555038620025E-05
(PID.TID 0000.0001) %MON forcing_empmr_del2           =   2.4961915835152E-07
(PID.TID 0000.0001) %MON forcing_fu_max               =   2.7026165562751E-01
(PID.TID 0000.0001) %MON forcing_fu_min               =  -1.6844031577850E-01
(PID.TID 0000.0001) %MON forcing_fu_mean              =   1.6107204018621E-02
(PID.TID 0000.0001) %MON forcing_fu_sd                =   9.0739594300691E-02
(PID.TID 0000.0001) %MON forcing_fu_del2              =   6.9299839977463E-04
(PID.TID 0000.0001) %MON forcing_fv_max               =   2.2748160411253E-01
(PID.TID 0000.0001) %MON forcing_fv_min               =  -1.7989087512562E-01
(PID.TID 0000.0001) %MON forcing_fv_mean              =  -5.4321470865700E-03
(PID.TID 0000.0001) %MON forcing_fv_sd                =   4.7372396100423E-02
(PID.TID 0000.0001) %MON forcing_fv_del2              =   4.6399021419221E-04
(PID.TID 0000.0001) %MON trAdv_CFL_u_max              =   5.3903135061249E-02
(PID.TID 0000.0001) %MON trAdv_CFL_v_max              =   3.1086062137089E-02
(PID.TID 0000.0001) %MON trAdv_CFL_w_max              =   1.1017941342647E-01
(PID.TID 0000.0001) %MON advcfl_uvel_max              =   5.8256674496061E-02
(PID.TID 0000.0001) %MON advcfl_vvel_max              =   3.6855125877458E-02
(PID.TID 0000.0001) %MON advcfl_wvel_max              =   1.1219611001326E-01
(PID.TID 0000.0001) %MON advcfl_W_hf_max              =   1.2702758126431E-01
(PID.TID 0000.0001) %MON pe_b_mean                    =  -8.6494150929223E-03
(PID.TID 0000.0001) %MON ke_max                       =   5.0805169932114E-03
(PID.TID 0000.0001) %MON ke_mean                      =   4.1326652175479E-05
(PID.TID 0000.0001) %MON ke_vol                       =   1.3442141716554E+22
(PID.TID 0000.0001) %MON vort_r_min                   =  -2.7761818544160E-07
(PID.TID 0000.0001) %MON vort_r_max                   =   2.6294212391517E-07
(PID.TID 0000.0001) %MON vort_a_mean                  =  -2.4598205783634E-05
(PID.TID 0000.0001) %MON vort_a_sd                    =   7.3637237026630E-05
(PID.TID 0000.0001) %MON vort_p_mean                  =  -2.9476210033395E-05
(PID.TID 0000.0001) %MON vort_p_sd                    =   1.0363846082166E-04
(PID.TID 0000.0001) %MON surfExpan_theta_mean         =  -1.7039274368721E-03
(PID.TID 0000.0001) %MON surfExpan_salt_mean          =  -5.6851691934581E-05
(PID.TID 0000.0001) // =======================================================
(PID.TID 0000.0001) // End MONITOR dynamic field statistics
(PID.TID 0000.0001) // =======================================================
 EXTERNAL_FIELDS_LOAD,         7 : iP,iLd,i0,i1=   12    1   12    1 ; Wght=  0.0333333333  0.9666666667
 cg2d: Sum(rhs),rhsMax =   2.22044604925031E-15  1.72953671010727E+02
(PID.TID 0000.0001)      cg2d_init_res =   3.93758884622456E-03
(PID.TID 0000.0001)      cg2d_iters(min,last) =      -1      90
(PID.TID 0000.0001)      cg2d_last_res =   8.40984699644257E-10
(PID.TID 0000.0001) // =======================================================
(PID.TID 0000.0001) // Begin MONITOR dynamic field statistics
(PID.TID 0000.0001) // =======================================================
(PID.TID 0000.0001) %MON time_tsnumber                =                     8
(PID.TID 0000.0001) %MON time_secondsf                =   1.3824000000000E+06
(PID.TID 0000.0001) %MON dynstat_eta_max              =   5.6571952283538E+04
(PID.TID 0000.0001) %MON dynstat_eta_min              =  -9.4423302823414E+04
(PID.TID 0000.0001) %MON dynstat_eta_mean             =  -9.2145072522905E-12
(PID.TID 0000.0001) %MON dynstat_eta_sd               =   4.0354834070583E+04
(PID.TID 0000.0001) %MON dynstat_eta_del2             =   2.1195693104036E+03
(PID.TID 0000.0001) %MON dynstat_uvel_max             =   1.0170417651387E-01
(PID.TID 0000.0001) %MON dynstat_uvel_min             =  -6.5317082788674E-02
(PID.TID 0000.0001) %MON dynstat_uvel_mean            =   5.4612751709734E-04
(PID.TID 0000.0001) %MON dynstat_uvel_sd              =   5.8329423829982E-03
(PID.TID 0000.0001) %MON dynstat_uvel_del2            =   6.8255199265935E-05
(PID.TID 0000.0001) %MON dynstat_vvel_max             =   8.0634665278281E-02
(PID.TID 0000.0001) %MON dynstat_vvel_min             =  -1.0472405198552E-01
(PID.TID 0000.0001) %MON dynstat_vvel_mean            =  -3.3434228199018E-04
(PID.TID 0000.0001) %MON dynstat_vvel_sd              =   8.9561927782301E-03
(PID.TID 0000.0001) %MON dynstat_vvel_del2            =   9.5795802789150E-05
(PID.TID 0000.0001) %MON dynstat_wvel_max             =   1.9132254038192E+00
(PID.TID 0000.0001) %MON dynstat_wvel_min             =  -1.7438607313133E+00
(PID.TID 0000.0001) %MON dynstat_wvel_mean            =   1.8250131035497E-04
(PID.TID 0000.0001) %MON dynstat_wvel_sd              =   2.2628387981570E-01
(PID.TID 0000.0001) %MON dynstat_wvel_del2            =   3.2962176593770E-03
(PID.TID 0000.0001) %MON dynstat_theta_max            =   2.9791415849010E+01
(PID.TID 0000.0001) %MON dynstat_theta_min            =  -2.7389994643564E+00
(PID.TID 0000.0001) %MON dynstat_theta_mean           =   3.6028882566484E+00
(PID.TID 0000.0001) %MON dynstat_theta_sd             =   4.4015869143158E+00
(PID.TID 0000.0001) %MON dynstat_theta_del2           =   5.1706177479607E-03
(PID.TID 0000.0001) %MON dynstat_salt_max             =   3.7434358098548E+01
(PID.TID 0000.0001) %MON dynstat_salt_min             =   2.9778554172594E+01
(PID.TID 0000.0001) %MON dynstat_salt_mean            =   3.4718001166901E+01
(PID.TID 0000.0001) %MON dynstat_salt_sd              =   2.9442252141273E-01
(PID.TID 0000.0001) %MON dynstat_salt_del2            =   1.0242025780214E-03
(PID.TID 0000.0001) %MON forcing_qnet_max             =   4.7119176719395E+02
(PID.TID 0000.0001) %MON forcing_qnet_min             =  -2.1244587012014E+02
(PID.TID 0000.0001) %MON forcing_qnet_mean            =  -1.5444657116170E+01
(PID.TID 0000.0001) %MON forcing_qnet_sd              =   1.1750182863142E+02
(PID.TID 0000.0001) %MON forcing_qnet_del2            =   7.5491844457055E-01
(PID.TID 0000.0001) %MON forcing_qsw_max              =   0.0000000000000E+00
(PID.TID 0000.0001) %MON forcing_qsw_min              =   0.0000000000000E+00
(PID.TID 0000.0001) %MON forcing_qsw_mean             =   0.0000000000000E+00
(PID.TID 0000.0001) %MON forcing_qsw_sd               =   0.0000000000000E+00
(PID.TID 0000.0001) %MON forcing_qsw_del2             =   0.0000000000000E+00
(PID.TID 0000.0001) %MON forcing_empmr_max            =   5.2312924520654E-05
(PID.TID 0000.0001) %MON forcing_empmr_min            =  -1.3707940920787E-04
(PID.TID 0000.0001) %MON forcing_empmr_mean           =   4.0865136276267E-22
(PID.TID 0000.0001) %MON forcing_empmr_sd             =   2.3555038620025E-05
(PID.TID 0000.0001) %MON forcing_empmr_del2           =   2.4961915835152E-07
(PID.TID 0000.0001) %MON forcing_fu_max               =   2.7545738964627E-01
(PID.TID 0000.0001) %MON forcing_fu_min               =  -1.7006715613998E-01
(PID.TID 0000.0001) %MON forcing_fu_mean              =   1.6087494476729E-02
(PID.TID 0000.0001) %MON forcing_fu_sd                =   9.0983735824982E-02
(PID.TID 0000.0001) %MON forcing_fu_del2              =   7.0822270205174E-04
(PID.TID 0000.0001) %MON forcing_fv_max               =   2.3124141489051E-01
(PID.TID 0000.0001) %MON forcing_fv_min               =  -1.7872155993945E-01
(PID.TID 0000.0001) %MON forcing_fv_mean              =  -5.2856299187887E-03
(PID.TID 0000.0001) %MON forcing_fv_sd                =   4.7940769894797E-02
(PID.TID 0000.0001) %MON forcing_fv_del2              =   4.7659557826527E-04
(PID.TID 0000.0001) %MON trAdv_CFL_u_max              =   5.8268506843310E-02
(PID.TID 0000.0001) %MON trAdv_CFL_v_max              =   3.5306980700025E-02
(PID.TID 0000.0001) %MON trAdv_CFL_w_max              =   1.2343220108906E-01
(PID.TID 0000.0001) %MON advcfl_uvel_max              =   6.7233705781806E-02
(PID.TID 0000.0001) %MON advcfl_vvel_max              =   4.0692407457842E-02
(PID.TID 0000.0001) %MON advcfl_wvel_max              =   1.1877388351612E-01
(PID.TID 0000.0001) %MON advcfl_W_hf_max              =   1.3447889726578E-01
(PID.TID 0000.0001) %MON pe_b_mean                    =  -8.7562681030090E-03
(PID.TID 0000.0001) %MON ke_max                       =   6.3881973943752E-03
(PID.TID 0000.0001) %MON ke_mean                      =   5.1557184499732E-05
(PID.TID 0000.0001) %MON ke_vol                       =   1.3442141716554E+22
(PID.TID 0000.0001) %MON vort_r_min                   =  -2.3593673032253E-07
(PID.TID 0000.0001) %MON vort_r_max                   =   2.1426490440916E-07
(PID.TID 0000.0001) %MON vort_a_mean                  =  -2.4598205581775E-05
(PID.TID 0000.0001) %MON vort_a_sd                    =   7.3637290841549E-05
(PID.TID 0000.0001) %MON vort_p_mean                  =  -2.9476203177460E-05
(PID.TID 0000.0001) %MON vort_p_sd                    =   1.0363788603570E-04
(PID.TID 0000.0001) %MON surfExpan_theta_mean         =  -4.3866513305754E-03
(PID.TID 0000.0001) %MON surfExpan_salt_mean          =  -5.8894120105284E-05
(PID.TID 0000.0001) // =======================================================
(PID.TID 0000.0001) // End MONITOR dynamic field statistics
(PID.TID 0000.0001) // =======================================================
 EXTERNAL_FIELDS_LOAD,         8 : iP,iLd,i0,i1=   12    1    1    2 ; Wght=  0.9666666667  0.0333333333
 EXTERNAL_FIELDS_LOAD, it=         8 : Reading new data, i0,i1=    1    2 (prev=   12    1 )
(PID.TID 0000.0001)  MDS_READ_FIELD: opening global file: trenberth_taux.bin
(PID.TID 0000.0001)  MDS_READ_FIELD: opening global file: trenberth_taux.bin
(PID.TID 0000.0001)  MDS_READ_FIELD: opening global file: trenberth_tauy.bin
(PID.TID 0000.0001)  MDS_READ_FIELD: opening global file: trenberth_tauy.bin
(PID.TID 0000.0001)  MDS_READ_FIELD: opening global file: shi_qnet.bin
(PID.TID 0000.0001)  MDS_READ_FIELD: opening global file: shi_qnet.bin
(PID.TID 0000.0001)  MDS_READ_FIELD: opening global file: shi_empmr.bin
(PID.TID 0000.0001)  MDS_READ_FIELD: opening global file: shi_empmr.bin
(PID.TID 0000.0001)  MDS_READ_FIELD: opening global file: lev_sst.bin
(PID.TID 0000.0001)  MDS_READ_FIELD: opening global file: lev_sst.bin
 cg2d: Sum(rhs),rhsMax =  -1.16573417585641E-15  1.72967793887655E+02
(PID.TID 0000.0001)      cg2d_init_res =   3.96296243677320E-03
(PID.TID 0000.0001)      cg2d_iters(min,last) =      -1      92
(PID.TID 0000.0001)      cg2d_last_res =   9.19042194740292E-10
(PID.TID 0000.0001) // =======================================================
(PID.TID 0000.0001) // Begin MONITOR dynamic field statistics
(PID.TID 0000.0001) // =======================================================
(PID.TID 0000.0001) %MON time_tsnumber                =                     9
(PID.TID 0000.0001) %MON time_secondsf                =   1.5552000000000E+06
(PID.TID 0000.0001) %MON dynstat_eta_max              =   5.2422631605990E+04
(PID.TID 0000.0001) %MON dynstat_eta_min              =  -9.3561906351974E+04
(PID.TID 0000.0001) %MON dynstat_eta_mean             =   0.0000000000000E+00
(PID.TID 0000.0001) %MON dynstat_eta_sd               =   4.0030034659454E+04
(PID.TID 0000.0001) %MON dynstat_eta_del2             =   2.1196460035927E+03
(PID.TID 0000.0001) %MON dynstat_uvel_max             =   1.1440962865726E-01
(PID.TID 0000.0001) %MON dynstat_uvel_min             =  -6.6866662638843E-02
(PID.TID 0000.0001) %MON dynstat_uvel_mean            =   6.2905266060538E-04
(PID.TID 0000.0001) %MON dynstat_uvel_sd              =   6.7149966198494E-03
(PID.TID 0000.0001) %MON dynstat_uvel_del2            =   7.2141975689059E-05
(PID.TID 0000.0001) %MON dynstat_vvel_max             =   8.4192217576435E-02
(PID.TID 0000.0001) %MON dynstat_vvel_min             =  -1.1289512949990E-01
(PID.TID 0000.0001) %MON dynstat_vvel_mean            =  -4.1845496194416E-04
(PID.TID 0000.0001) %MON dynstat_vvel_sd              =   9.6042199868459E-03
(PID.TID 0000.0001) %MON dynstat_vvel_del2            =   1.0178964269095E-04
(PID.TID 0000.0001) %MON dynstat_wvel_max             =   1.9865803434368E+00
(PID.TID 0000.0001) %MON dynstat_wvel_min             =  -1.7098214031002E+00
(PID.TID 0000.0001) %MON dynstat_wvel_mean            =   3.6138871723722E-04
(PID.TID 0000.0001) %MON dynstat_wvel_sd              =   2.3564797018571E-01
(PID.TID 0000.0001) %MON dynstat_wvel_del2            =   3.3669235612346E-03
(PID.TID 0000.0001) %MON dynstat_theta_max            =   2.9837633195710E+01
(PID.TID 0000.0001) %MON dynstat_theta_min            =  -2.8166604375319E+00
(PID.TID 0000.0001) %MON dynstat_theta_mean           =   3.6030114415812E+00
(PID.TID 0000.0001) %MON dynstat_theta_sd             =   4.4017191498794E+00
(PID.TID 0000.0001) %MON dynstat_theta_del2           =   5.1082518372144E-03
(PID.TID 0000.0001) %MON dynstat_salt_max             =   3.7434075590744E+01
(PID.TID 0000.0001) %MON dynstat_salt_min             =   2.9777459250749E+01
(PID.TID 0000.0001) %MON dynstat_salt_mean            =   3.4718001172329E+01
(PID.TID 0000.0001) %MON dynstat_salt_sd              =   2.9442368690368E-01
(PID.TID 0000.0001) %MON dynstat_salt_del2            =   1.0246186679117E-03
(PID.TID 0000.0001) %MON forcing_qnet_max             =   4.7142477748630E+02
(PID.TID 0000.0001) %MON forcing_qnet_min             =  -2.0867118774499E+02
(PID.TID 0000.0001) %MON forcing_qnet_mean            =  -1.5466374378120E+01
(PID.TID 0000.0001) %MON forcing_qnet_sd              =   1.1627486818170E+02
(PID.TID 0000.0001) %MON forcing_qnet_del2            =   7.5505908519335E-01
(PID.TID 0000.0001) %MON forcing_qsw_max              =   0.0000000000000E+00
(PID.TID 0000.0001) %MON forcing_qsw_min              =   0.0000000000000E+00
(PID.TID 0000.0001) %MON forcing_qsw_mean             =   0.0000000000000E+00
(PID.TID 0000.0001) %MON forcing_qsw_sd               =   0.0000000000000E+00
(PID.TID 0000.0001) %MON forcing_qsw_del2             =   0.0000000000000E+00
(PID.TID 0000.0001) %MON forcing_empmr_max            =   5.2312924520654E-05
(PID.TID 0000.0001) %MON forcing_empmr_min            =  -1.3707940920787E-04
(PID.TID 0000.0001) %MON forcing_empmr_mean           =   8.1730272552535E-22
(PID.TID 0000.0001) %MON forcing_empmr_sd             =   2.3555038620025E-05
(PID.TID 0000.0001) %MON forcing_empmr_del2           =   2.4961915835152E-07
(PID.TID 0000.0001) %MON forcing_fu_max               =   2.7858281009884E-01
(PID.TID 0000.0001) %MON forcing_fu_min               =  -1.6918717679013E-01
(PID.TID 0000.0001) %MON forcing_fu_mean              =   1.6132577065933E-02
(PID.TID 0000.0001) %MON forcing_fu_sd                =   9.0934151581891E-02
(PID.TID 0000.0001) %MON forcing_fu_del2              =   7.0876784663481E-04
(PID.TID 0000.0001) %MON forcing_fv_max               =   2.2991287307515E-01
(PID.TID 0000.0001) %MON forcing_fv_min               =  -1.7714560259865E-01
(PID.TID 0000.0001) %MON forcing_fv_mean              =  -5.2783813973473E-03
(PID.TID 0000.0001) %MON forcing_fv_sd                =   4.7923548875222E-02
(PID.TID 0000.0001) %MON forcing_fv_del2              =   4.7743132754674E-04
(PID.TID 0000.0001) %MON trAdv_CFL_u_max              =   6.7247361428314E-02
(PID.TID 0000.0001) %MON trAdv_CFL_v_max              =   3.8983072518289E-02
(PID.TID 0000.0001) %MON trAdv_CFL_w_max              =   1.3447889726578E-01
(PID.TID 0000.0001) %MON advcfl_uvel_max              =   7.5632914747597E-02
(PID.TID 0000.0001) %MON advcfl_vvel_max              =   4.3867426083272E-02
(PID.TID 0000.0001) %MON advcfl_wvel_max              =   1.2680502432356E-01
(PID.TID 0000.0001) %MON advcfl_W_hf_max              =   1.4356768278402E-01
(PID.TID 0000.0001) %MON pe_b_mean                    =  -8.7681465669827E-03
(PID.TID 0000.0001) %MON ke_max                       =   7.7543484731227E-03
(PID.TID 0000.0001) %MON ke_mean                      =   6.2035061794874E-05
(PID.TID 0000.0001) %MON ke_vol                       =   1.3442141716554E+22
(PID.TID 0000.0001) %MON vort_r_min                   =  -3.2649642331380E-07
(PID.TID 0000.0001) %MON vort_r_max                   =   2.8529600336304E-07
(PID.TID 0000.0001) %MON vort_a_mean                  =  -2.4598205332190E-05
(PID.TID 0000.0001) %MON vort_a_sd                    =   7.3637311025935E-05
(PID.TID 0000.0001) %MON vort_p_mean                  =  -2.9476182117207E-05
(PID.TID 0000.0001) %MON vort_p_sd                    =   1.0363716941496E-04
(PID.TID 0000.0001) %MON surfExpan_theta_mean         =  -5.4714360175446E-03
(PID.TID 0000.0001) %MON surfExpan_salt_mean          =  -5.5696504050601E-05
(PID.TID 0000.0001) // =======================================================
(PID.TID 0000.0001) // End MONITOR dynamic field statistics
(PID.TID 0000.0001) // =======================================================
 EXTERNAL_FIELDS_LOAD,         9 : iP,iLd,i0,i1=    1    2    1    2 ; Wght=  0.9000000000  0.1000000000
 cg2d: Sum(rhs),rhsMax =   1.58206781009085E-15  1.72980617066157E+02
(PID.TID 0000.0001)      cg2d_init_res =   3.62564600273588E-03
(PID.TID 0000.0001)      cg2d_iters(min,last) =      -1      93
(PID.TID 0000.0001)      cg2d_last_res =   9.17033211318653E-10
(PID.TID 0000.0001) // =======================================================
(PID.TID 0000.0001) // Begin MONITOR dynamic field statistics
(PID.TID 0000.0001) // =======================================================
(PID.TID 0000.0001) %MON time_tsnumber                =                    10
(PID.TID 0000.0001) %MON time_secondsf                =   1.7280000000000E+06
(PID.TID 0000.0001) %MON dynstat_eta_max              =   5.1401699513611E+04
(PID.TID 0000.0001) %MON dynstat_eta_min              =  -9.2837442489328E+04
(PID.TID 0000.0001) %MON dynstat_eta_mean             =  -6.5817908944932E-12
(PID.TID 0000.0001) %MON dynstat_eta_sd               =   3.9767814255778E+04
(PID.TID 0000.0001) %MON dynstat_eta_del2             =   2.1197046037124E+03
(PID.TID 0000.0001) %MON dynstat_uvel_max             =   1.2618422699242E-01
(PID.TID 0000.0001) %MON dynstat_uvel_min             =  -6.6611116270546E-02
(PID.TID 0000.0001) %MON dynstat_uvel_mean            =   5.9147209406564E-04
(PID.TID 0000.0001) %MON dynstat_uvel_sd              =   7.6321560180890E-03
(PID.TID 0000.0001) %MON dynstat_uvel_del2            =   7.5538431016370E-05
(PID.TID 0000.0001) %MON dynstat_vvel_max             =   8.6814941939742E-02
(PID.TID 0000.0001) %MON dynstat_vvel_min             =  -1.1925785075757E-01
(PID.TID 0000.0001) %MON dynstat_vvel_mean            =  -3.8389545210349E-04
(PID.TID 0000.0001) %MON dynstat_vvel_sd              =   1.0120134541948E-02
(PID.TID 0000.0001) %MON dynstat_vvel_del2            =   1.0630661062933E-04
(PID.TID 0000.0001) %MON dynstat_wvel_max             =   2.0202671302529E+00
(PID.TID 0000.0001) %MON dynstat_wvel_min             =  -1.6386789000802E+00
(PID.TID 0000.0001) %MON dynstat_wvel_mean            =   4.4780372612321E-04
(PID.TID 0000.0001) %MON dynstat_wvel_sd              =   2.4115554204456E-01
(PID.TID 0000.0001) %MON dynstat_wvel_del2            =   3.3869784010972E-03
(PID.TID 0000.0001) %MON dynstat_theta_max            =   2.9875480820871E+01
(PID.TID 0000.0001) %MON dynstat_theta_min            =  -2.8864415629255E+00
(PID.TID 0000.0001) %MON dynstat_theta_mean           =   3.6031259674278E+00
(PID.TID 0000.0001) %MON dynstat_theta_sd             =   4.4018678872004E+00
(PID.TID 0000.0001) %MON dynstat_theta_del2           =   5.0609865784699E-03
(PID.TID 0000.0001) %MON dynstat_salt_max             =   3.7433786558286E+01
(PID.TID 0000.0001) %MON dynstat_salt_min             =   2.9776093662399E+01
(PID.TID 0000.0001) %MON dynstat_salt_mean            =   3.4718001163832E+01
(PID.TID 0000.0001) %MON dynstat_salt_sd              =   2.9442335590698E-01
(PID.TID 0000.0001) %MON dynstat_salt_del2            =   1.0266858392798E-03
(PID.TID 0000.0001) %MON forcing_qnet_max             =   4.5648353552001E+02
(PID.TID 0000.0001) %MON forcing_qnet_min             =  -2.0132172039607E+02
(PID.TID 0000.0001) %MON forcing_qnet_mean            =  -1.5583204151305E+01
(PID.TID 0000.0001) %MON forcing_qnet_sd              =   1.1389045946676E+02
(PID.TID 0000.0001) %MON forcing_qnet_del2            =   7.4041337483018E-01
(PID.TID 0000.0001) %MON forcing_qsw_max              =   0.0000000000000E+00
(PID.TID 0000.0001) %MON forcing_qsw_min              =   0.0000000000000E+00
(PID.TID 0000.0001) %MON forcing_qsw_mean             =   0.0000000000000E+00
(PID.TID 0000.0001) %MON forcing_qsw_sd               =   0.0000000000000E+00
(PID.TID 0000.0001) %MON forcing_qsw_del2             =   0.0000000000000E+00
(PID.TID 0000.0001) %MON forcing_empmr_max            =   5.2312924520654E-05
(PID.TID 0000.0001) %MON forcing_empmr_min            =  -1.3707940920787E-04
(PID.TID 0000.0001) %MON forcing_empmr_mean           =   1.0216284069067E-21
(PID.TID 0000.0001) %MON forcing_empmr_sd             =   2.3555038620025E-05
(PID.TID 0000.0001) %MON forcing_empmr_del2           =   2.4961915835152E-07
(PID.TID 0000.0001) %MON forcing_fu_max               =   2.7819065969079E-01
(PID.TID 0000.0001) %MON forcing_fu_min               =  -1.7091440376031E-01
(PID.TID 0000.0001) %MON forcing_fu_mean              =   1.6242451786234E-02
(PID.TID 0000.0001) %MON forcing_fu_sd                =   9.0610414042248E-02
(PID.TID 0000.0001) %MON forcing_fu_del2              =   6.9495462547040E-04
(PID.TID 0000.0001) %MON forcing_fv_max               =   2.2349597866647E-01
(PID.TID 0000.0001) %MON forcing_fv_min               =  -1.7516300310322E-01
(PID.TID 0000.0001) %MON forcing_fv_mean              =  -5.4104015222459E-03
(PID.TID 0000.0001) %MON forcing_fv_sd                =   4.7320622627559E-02
(PID.TID 0000.0001) %MON forcing_fv_del2              =   4.6652458216358E-04
(PID.TID 0000.0001) %MON trAdv_CFL_u_max              =   7.5648276333517E-02
(PID.TID 0000.0001) %MON trAdv_CFL_v_max              =   4.2024720556692E-02
(PID.TID 0000.0001) %MON trAdv_CFL_w_max              =   1.4356768278402E-01
(PID.TID 0000.0001) %MON advcfl_uvel_max              =   8.3416763034860E-02
(PID.TID 0000.0001) %MON advcfl_vvel_max              =   4.6339775472443E-02
(PID.TID 0000.0001) %MON advcfl_wvel_max              =   1.3256694646766E-01
(PID.TID 0000.0001) %MON advcfl_W_hf_max              =   1.5009128715240E-01
(PID.TID 0000.0001) %MON pe_b_mean                    =  -8.6699411972418E-03
(PID.TID 0000.0001) %MON ke_max                       =   9.1650129779566E-03
(PID.TID 0000.0001) %MON ke_mean                      =   7.2524040149959E-05
(PID.TID 0000.0001) %MON ke_vol                       =   1.3442141716554E+22
(PID.TID 0000.0001) %MON vort_r_min                   =  -4.0778034316645E-07
(PID.TID 0000.0001) %MON vort_r_max                   =   3.6554917400191E-07
(PID.TID 0000.0001) %MON vort_a_mean                  =  -2.4598205077221E-05
(PID.TID 0000.0001) %MON vort_a_sd                    =   7.3637302586975E-05
(PID.TID 0000.0001) %MON vort_p_mean                  =  -2.9476155187799E-05
(PID.TID 0000.0001) %MON vort_p_sd                    =   1.0363649507534E-04
(PID.TID 0000.0001) %MON surfExpan_theta_mean         =  -5.1014181472546E-03
(PID.TID 0000.0001) %MON surfExpan_salt_mean          =  -5.4152595126888E-05
(PID.TID 0000.0001) // =======================================================
(PID.TID 0000.0001) // End MONITOR dynamic field statistics
(PID.TID 0000.0001) // =======================================================
 EXTERNAL_FIELDS_LOAD,        10 : iP,iLd,i0,i1=    1    2    1    2 ; Wght=  0.8333333333  0.1666666667
 cg2d: Sum(rhs),rhsMax =   2.55351295663786E-15  1.72990547019250E+02
(PID.TID 0000.0001)      cg2d_init_res =   3.12571289817249E-03
(PID.TID 0000.0001)      cg2d_iters(min,last) =      -1      91
(PID.TID 0000.0001)      cg2d_last_res =   9.05209555005341E-10
(PID.TID 0000.0001) // =======================================================
(PID.TID 0000.0001) // Begin MONITOR dynamic field statistics
(PID.TID 0000.0001) // =======================================================
(PID.TID 0000.0001) %MON time_tsnumber                =                    11
(PID.TID 0000.0001) %MON time_secondsf                =   1.9008000000000E+06
(PID.TID 0000.0001) %MON dynstat_eta_max              =   4.7402122554422E+04
(PID.TID 0000.0001) %MON dynstat_eta_min              =  -9.2588187791014E+04
(PID.TID 0000.0001) %MON dynstat_eta_mean             =   6.1430048348603E-12
(PID.TID 0000.0001) %MON dynstat_eta_sd               =   3.9593342794899E+04
(PID.TID 0000.0001) %MON dynstat_eta_del2             =   2.1197422969114E+03
(PID.TID 0000.0001) %MON dynstat_uvel_max             =   1.3716009022150E-01
(PID.TID 0000.0001) %MON dynstat_uvel_min             =  -6.5547866371825E-02
(PID.TID 0000.0001) %MON dynstat_uvel_mean            =   4.7873540435330E-04
(PID.TID 0000.0001) %MON dynstat_uvel_sd              =   8.5866626620562E-03
(PID.TID 0000.0001) %MON dynstat_uvel_del2            =   7.8680595282236E-05
(PID.TID 0000.0001) %MON dynstat_vvel_max             =   8.9396239252755E-02
(PID.TID 0000.0001) %MON dynstat_vvel_min             =  -1.2376669774763E-01
(PID.TID 0000.0001) %MON dynstat_vvel_mean            =  -2.7966597686788E-04
(PID.TID 0000.0001) %MON dynstat_vvel_sd              =   1.0506318480149E-02
(PID.TID 0000.0001) %MON dynstat_vvel_del2            =   1.0944064980930E-04
(PID.TID 0000.0001) %MON dynstat_wvel_max             =   2.1381462941926E+00
(PID.TID 0000.0001) %MON dynstat_wvel_min             =  -1.5528625926270E+00
(PID.TID 0000.0001) %MON dynstat_wvel_mean            =   4.5198001939993E-04
(PID.TID 0000.0001) %MON dynstat_wvel_sd              =   2.4331292052639E-01
(PID.TID 0000.0001) %MON dynstat_wvel_del2            =   3.3681681781643E-03
(PID.TID 0000.0001) %MON dynstat_theta_max            =   2.9908059946309E+01
(PID.TID 0000.0001) %MON dynstat_theta_min            =  -2.9512828485531E+00
(PID.TID 0000.0001) %MON dynstat_theta_mean           =   3.6032325657136E+00
(PID.TID 0000.0001) %MON dynstat_theta_sd             =   4.4020287042278E+00
(PID.TID 0000.0001) %MON dynstat_theta_del2           =   5.0283269212340E-03
(PID.TID 0000.0001) %MON dynstat_salt_max             =   3.7433507874088E+01
(PID.TID 0000.0001) %MON dynstat_salt_min             =   2.9774664775628E+01
(PID.TID 0000.0001) %MON dynstat_salt_mean            =   3.4718001159730E+01
(PID.TID 0000.0001) %MON dynstat_salt_sd              =   2.9442009060678E-01
(PID.TID 0000.0001) %MON dynstat_salt_del2            =   1.0276952578875E-03
(PID.TID 0000.0001) %MON forcing_qnet_max             =   4.4154229355371E+02
(PID.TID 0000.0001) %MON forcing_qnet_min             =  -1.9579136980453E+02
(PID.TID 0000.0001) %MON forcing_qnet_mean            =  -1.5700033924490E+01
(PID.TID 0000.0001) %MON forcing_qnet_sd              =   1.1157068146507E+02
(PID.TID 0000.0001) %MON forcing_qnet_del2            =   7.2729757987647E-01
(PID.TID 0000.0001) %MON forcing_qsw_max              =   0.0000000000000E+00
(PID.TID 0000.0001) %MON forcing_qsw_min              =   0.0000000000000E+00
(PID.TID 0000.0001) %MON forcing_qsw_mean             =   0.0000000000000E+00
(PID.TID 0000.0001) %MON forcing_qsw_sd               =   0.0000000000000E+00
(PID.TID 0000.0001) %MON forcing_qsw_del2             =   0.0000000000000E+00
(PID.TID 0000.0001) %MON forcing_empmr_max            =   5.2312924520654E-05
(PID.TID 0000.0001) %MON forcing_empmr_min            =  -1.3707940920787E-04
(PID.TID 0000.0001) %MON forcing_empmr_mean           =   1.2259540882880E-21
(PID.TID 0000.0001) %MON forcing_empmr_sd             =   2.3555038620025E-05
(PID.TID 0000.0001) %MON forcing_empmr_del2           =   2.4961915835152E-07
(PID.TID 0000.0001) %MON forcing_fu_max               =   2.7779850928273E-01
(PID.TID 0000.0001) %MON forcing_fu_min               =  -1.7423425173542E-01
(PID.TID 0000.0001) %MON forcing_fu_mean              =   1.6352326506535E-02
(PID.TID 0000.0001) %MON forcing_fu_sd                =   9.0355731935459E-02
(PID.TID 0000.0001) %MON forcing_fu_del2              =   6.8332385210054E-04
(PID.TID 0000.0001) %MON forcing_fv_max               =   2.1707908425778E-01
(PID.TID 0000.0001) %MON forcing_fv_min               =  -1.7318040360779E-01
(PID.TID 0000.0001) %MON forcing_fv_mean              =  -5.5424216471445E-03
(PID.TID 0000.0001) %MON forcing_fv_sd                =   4.6771332121489E-02
(PID.TID 0000.0001) %MON forcing_fv_del2              =   4.5745971542986E-04
(PID.TID 0000.0001) %MON trAdv_CFL_u_max              =   8.3433705576039E-02
(PID.TID 0000.0001) %MON trAdv_CFL_v_max              =   4.4393215849787E-02
(PID.TID 0000.0001) %MON trAdv_CFL_w_max              =   1.5009128715240E-01
(PID.TID 0000.0001) %MON advcfl_uvel_max              =   9.0535560713407E-02
(PID.TID 0000.0001) %MON advcfl_vvel_max              =   4.8091768786358E-02
(PID.TID 0000.0001) %MON advcfl_wvel_max              =   1.3587529180559E-01
(PID.TID 0000.0001) %MON advcfl_W_hf_max              =   1.5383697054744E-01
(PID.TID 0000.0001) %MON pe_b_mean                    =  -8.4961425725624E-03
(PID.TID 0000.0001) %MON ke_max                       =   1.0602787091885E-02
(PID.TID 0000.0001) %MON ke_mean                      =   8.3021418183642E-05
(PID.TID 0000.0001) %MON ke_vol                       =   1.3442141716554E+22
(PID.TID 0000.0001) %MON vort_r_min                   =  -4.6978574787137E-07
(PID.TID 0000.0001) %MON vort_r_max                   =   4.2605322039884E-07
(PID.TID 0000.0001) %MON vort_a_mean                  =  -2.4598204856256E-05
(PID.TID 0000.0001) %MON vort_a_sd                    =   7.3637275827345E-05
(PID.TID 0000.0001) %MON vort_p_mean                  =  -2.9476129508998E-05
(PID.TID 0000.0001) %MON vort_p_sd                    =   1.0363602292624E-04
(PID.TID 0000.0001) %MON surfExpan_theta_mean         =  -3.7771788845284E-03
(PID.TID 0000.0001) %MON surfExpan_salt_mean          =  -5.8044415398959E-05
(PID.TID 0000.0001) // =======================================================
(PID.TID 0000.0001) // End MONITOR dynamic field statistics
(PID.TID 0000.0001) // =======================================================
 EXTERNAL_FIELDS_LOAD,        11 : iP,iLd,i0,i1=    1    2    1    2 ; Wght=  0.7666666667  0.2333333333
 cg2d: Sum(rhs),rhsMax =  -1.13797860024079E-15  1.72996802714390E+02
(PID.TID 0000.0001)      cg2d_init_res =   2.73305186023690E-03
(PID.TID 0000.0001)      cg2d_iters(min,last) =      -1      83
(PID.TID 0000.0001)      cg2d_last_res =   9.98035684153240E-10
(PID.TID 0000.0001) // =======================================================
(PID.TID 0000.0001) // Begin MONITOR dynamic field statistics
(PID.TID 0000.0001) // =======================================================
(PID.TID 0000.0001) %MON time_tsnumber                =                    12
(PID.TID 0000.0001) %MON time_secondsf                =   2.0736000000000E+06
(PID.TID 0000.0001) %MON dynstat_eta_max              =   4.2927818965589E+04
(PID.TID 0000.0001) %MON dynstat_eta_min              =  -9.2542317911141E+04
(PID.TID 0000.0001) %MON dynstat_eta_mean             =  -2.1939302981644E-12
(PID.TID 0000.0001) %MON dynstat_eta_sd               =   3.9501885498860E+04
(PID.TID 0000.0001) %MON dynstat_eta_del2             =   2.1197579250748E+03
(PID.TID 0000.0001) %MON dynstat_uvel_max             =   1.4889619726010E-01
(PID.TID 0000.0001) %MON dynstat_uvel_min             =  -7.0063863253466E-02
(PID.TID 0000.0001) %MON dynstat_uvel_mean            =   3.4362315387815E-04
(PID.TID 0000.0001) %MON dynstat_uvel_sd              =   9.5690687602479E-03
(PID.TID 0000.0001) %MON dynstat_uvel_del2            =   8.1757871701985E-05
(PID.TID 0000.0001) %MON dynstat_vvel_max             =   9.0696926768294E-02
(PID.TID 0000.0001) %MON dynstat_vvel_min             =  -1.2706227278624E-01
(PID.TID 0000.0001) %MON dynstat_vvel_mean            =  -1.5585156264017E-04
(PID.TID 0000.0001) %MON dynstat_vvel_sd              =   1.0767581126489E-02
(PID.TID 0000.0001) %MON dynstat_vvel_del2            =   1.1132035076320E-04
(PID.TID 0000.0001) %MON dynstat_wvel_max             =   2.2833731057933E+00
(PID.TID 0000.0001) %MON dynstat_wvel_min             =  -1.4708936747654E+00
(PID.TID 0000.0001) %MON dynstat_wvel_mean            =   3.9628002648600E-04
(PID.TID 0000.0001) %MON dynstat_wvel_sd              =   2.4267945697921E-01
(PID.TID 0000.0001) %MON dynstat_wvel_del2            =   3.3215917655210E-03
(PID.TID 0000.0001) %MON dynstat_theta_max            =   2.9935564938161E+01
(PID.TID 0000.0001) %MON dynstat_theta_min            =  -3.0112254286972E+00
(PID.TID 0000.0001) %MON dynstat_theta_mean           =   3.6033327354346E+00
(PID.TID 0000.0001) %MON dynstat_theta_sd             =   4.4022043097691E+00
(PID.TID 0000.0001) %MON dynstat_theta_del2           =   5.0085091625581E-03
(PID.TID 0000.0001) %MON dynstat_salt_max             =   3.7433262395727E+01
(PID.TID 0000.0001) %MON dynstat_salt_min             =   2.9773274740155E+01
(PID.TID 0000.0001) %MON dynstat_salt_mean            =   3.4718001170071E+01
(PID.TID 0000.0001) %MON dynstat_salt_sd              =   2.9441689537625E-01
(PID.TID 0000.0001) %MON dynstat_salt_del2            =   1.0287889263075E-03
(PID.TID 0000.0001) %MON forcing_qnet_max             =   4.3015360557608E+02
(PID.TID 0000.0001) %MON forcing_qnet_min             =  -1.9420685395356E+02
(PID.TID 0000.0001) %MON forcing_qnet_mean            =  -1.5816863697674E+01
(PID.TID 0000.0001) %MON forcing_qnet_sd              =   1.0931964867196E+02
(PID.TID 0000.0001) %MON forcing_qnet_del2            =   7.1579580491456E-01
(PID.TID 0000.0001) %MON forcing_qsw_max              =   0.0000000000000E+00
(PID.TID 0000.0001) %MON forcing_qsw_min              =   0.0000000000000E+00
(PID.TID 0000.0001) %MON forcing_qsw_mean             =   0.0000000000000E+00
(PID.TID 0000.0001) %MON forcing_qsw_sd               =   0.0000000000000E+00
(PID.TID 0000.0001) %MON forcing_qsw_del2             =   0.0000000000000E+00
(PID.TID 0000.0001) %MON forcing_empmr_max            =   5.2312924520654E-05
(PID.TID 0000.0001) %MON forcing_empmr_min            =  -1.3707940920787E-04
(PID.TID 0000.0001) %MON forcing_empmr_mean           =   8.1730272552535E-22
(PID.TID 0000.0001) %MON forcing_empmr_sd             =   2.3555038620025E-05
(PID.TID 0000.0001) %MON forcing_empmr_del2           =   2.4961915835152E-07
(PID.TID 0000.0001) %MON forcing_fu_max               =   2.7740635887467E-01
(PID.TID 0000.0001) %MON forcing_fu_min               =  -1.7755409971052E-01
(PID.TID 0000.0001) %MON forcing_fu_mean              =   1.6462201226836E-02
(PID.TID 0000.0001) %MON forcing_fu_sd                =   9.0170690393126E-02
(PID.TID 0000.0001) %MON forcing_fu_del2              =   6.7398852110683E-04
(PID.TID 0000.0001) %MON forcing_fv_max               =   2.1066218984909E-01
(PID.TID 0000.0001) %MON forcing_fv_min               =  -1.7119780411236E-01
(PID.TID 0000.0001) %MON forcing_fv_mean              =  -5.6744417720431E-03
(PID.TID 0000.0001) %MON forcing_fv_sd                =   4.6277587280153E-02
(PID.TID 0000.0001) %MON forcing_fv_del2              =   4.5034796430965E-04
(PID.TID 0000.0001) %MON trAdv_CFL_u_max              =   9.0553949133309E-02
(PID.TID 0000.0001) %MON trAdv_CFL_v_max              =   4.6071614516139E-02
(PID.TID 0000.0001) %MON trAdv_CFL_w_max              =   1.5383697054744E-01
(PID.TID 0000.0001) %MON advcfl_uvel_max              =   9.6966975399877E-02
(PID.TID 0000.0001) %MON advcfl_vvel_max              =   4.9372323537024E-02
(PID.TID 0000.0001) %MON advcfl_wvel_max              =   1.3658218905275E-01
(PID.TID 0000.0001) %MON advcfl_W_hf_max              =   1.5463731422689E-01
(PID.TID 0000.0001) %MON pe_b_mean                    =  -8.2948330943560E-03
(PID.TID 0000.0001) %MON ke_max                       =   1.2028672775156E-02
(PID.TID 0000.0001) %MON ke_mean                      =   9.3517378904218E-05
(PID.TID 0000.0001) %MON ke_vol                       =   1.3442141716554E+22
(PID.TID 0000.0001) %MON vort_r_min                   =  -5.0772019851498E-07
(PID.TID 0000.0001) %MON vort_r_max                   =   4.6190586861040E-07
(PID.TID 0000.0001) %MON vort_a_mean                  =  -2.4598204699154E-05
(PID.TID 0000.0001) %MON vort_a_sd                    =   7.3637242859274E-05
(PID.TID 0000.0001) %MON vort_p_mean                  =  -2.9476108627994E-05
(PID.TID 0000.0001) %MON vort_p_sd                    =   1.0363584211432E-04
(PID.TID 0000.0001) %MON surfExpan_theta_mean         =  -2.0971996953081E-03
(PID.TID 0000.0001) %MON surfExpan_salt_mean          =  -6.3236738731959E-05
(PID.TID 0000.0001) // =======================================================
(PID.TID 0000.0001) // End MONITOR dynamic field statistics
(PID.TID 0000.0001) // =======================================================
 EXTERNAL_FIELDS_LOAD,        12 : iP,iLd,i0,i1=    1    2    1    2 ; Wght=  0.7000000000  0.3000000000
 cg2d: Sum(rhs),rhsMax =   3.13638004456607E-15  1.72999553651185E+02
(PID.TID 0000.0001)      cg2d_init_res =   2.58808844428129E-03
(PID.TID 0000.0001)      cg2d_iters(min,last) =      -1      88
(PID.TID 0000.0001)      cg2d_last_res =   8.44926786497561E-10
(PID.TID 0000.0001) // =======================================================
(PID.TID 0000.0001) // Begin MONITOR dynamic field statistics
(PID.TID 0000.0001) // =======================================================
(PID.TID 0000.0001) %MON time_tsnumber                =                    13
(PID.TID 0000.0001) %MON time_secondsf                =   2.2464000000000E+06
(PID.TID 0000.0001) %MON dynstat_eta_max              =   4.2917553730630E+04
(PID.TID 0000.0001) %MON dynstat_eta_min              =  -9.2458918217067E+04
(PID.TID 0000.0001) %MON dynstat_eta_mean             =   4.3878605963288E-12
(PID.TID 0000.0001) %MON dynstat_eta_sd               =   3.9481545649688E+04
(PID.TID 0000.0001) %MON dynstat_eta_del2             =   2.1197530937070E+03
(PID.TID 0000.0001) %MON dynstat_uvel_max             =   1.5947646288974E-01
(PID.TID 0000.0001) %MON dynstat_uvel_min             =  -7.4480540822481E-02
(PID.TID 0000.0001) %MON dynstat_uvel_mean            =   2.3254871749099E-04
(PID.TID 0000.0001) %MON dynstat_uvel_sd              =   1.0557533078202E-02
(PID.TID 0000.0001) %MON dynstat_uvel_del2            =   8.4894609841479E-05
(PID.TID 0000.0001) %MON dynstat_vvel_max             =   9.0836368799295E-02
(PID.TID 0000.0001) %MON dynstat_vvel_min             =  -1.3042073859948E-01
(PID.TID 0000.0001) %MON dynstat_vvel_mean            =  -5.1237081143452E-05
(PID.TID 0000.0001) %MON dynstat_vvel_sd              =   1.0909987288106E-02
(PID.TID 0000.0001) %MON dynstat_vvel_del2            =   1.1209849306388E-04
(PID.TID 0000.0001) %MON dynstat_wvel_max             =   2.4174595901056E+00
(PID.TID 0000.0001) %MON dynstat_wvel_min             =  -1.4402942198368E+00
(PID.TID 0000.0001) %MON dynstat_wvel_mean            =   3.0807346765360E-04
(PID.TID 0000.0001) %MON dynstat_wvel_sd              =   2.3977726858664E-01
(PID.TID 0000.0001) %MON dynstat_wvel_del2            =   3.2566876790548E-03
(PID.TID 0000.0001) %MON dynstat_theta_max            =   2.9958177879693E+01
(PID.TID 0000.0001) %MON dynstat_theta_min            =  -3.0663450175066E+00
(PID.TID 0000.0001) %MON dynstat_theta_mean           =   3.6034280763924E+00
(PID.TID 0000.0001) %MON dynstat_theta_sd             =   4.4023933153544E+00
(PID.TID 0000.0001) %MON dynstat_theta_del2           =   5.0017272917318E-03
(PID.TID 0000.0001) %MON dynstat_salt_max             =   3.7433075673354E+01
(PID.TID 0000.0001) %MON dynstat_salt_min             =   2.9771981173416E+01
(PID.TID 0000.0001) %MON dynstat_salt_mean            =   3.4718001183867E+01
(PID.TID 0000.0001) %MON dynstat_salt_sd              =   2.9441736404480E-01
(PID.TID 0000.0001) %MON dynstat_salt_del2            =   1.0309423469424E-03
(PID.TID 0000.0001) %MON forcing_qnet_max             =   4.2795289368731E+02
(PID.TID 0000.0001) %MON forcing_qnet_min             =  -1.9262233810258E+02
(PID.TID 0000.0001) %MON forcing_qnet_mean            =  -1.5933693470859E+01
(PID.TID 0000.0001) %MON forcing_qnet_sd              =   1.0714169415822E+02
(PID.TID 0000.0001) %MON forcing_qnet_del2            =   7.0598694006671E-01
(PID.TID 0000.0001) %MON forcing_qsw_max              =   0.0000000000000E+00
(PID.TID 0000.0001) %MON forcing_qsw_min              =   0.0000000000000E+00
(PID.TID 0000.0001) %MON forcing_qsw_mean             =   0.0000000000000E+00
(PID.TID 0000.0001) %MON forcing_qsw_sd               =   0.0000000000000E+00
(PID.TID 0000.0001) %MON forcing_qsw_del2             =   0.0000000000000E+00
(PID.TID 0000.0001) %MON forcing_empmr_max            =   5.2312924520654E-05
(PID.TID 0000.0001) %MON forcing_empmr_min            =  -1.3707940920787E-04
(PID.TID 0000.0001) %MON forcing_empmr_mean           =   6.1297704414401E-22
(PID.TID 0000.0001) %MON forcing_empmr_sd             =   2.3555038620025E-05
(PID.TID 0000.0001) %MON forcing_empmr_del2           =   2.4961915835152E-07
(PID.TID 0000.0001) %MON forcing_fu_max               =   2.7701420846661E-01
(PID.TID 0000.0001) %MON forcing_fu_min               =  -1.8087394768562E-01
(PID.TID 0000.0001) %MON forcing_fu_mean              =   1.6572075947137E-02
(PID.TID 0000.0001) %MON forcing_fu_sd                =   9.0055718697089E-02
(PID.TID 0000.0001) %MON forcing_fu_del2              =   6.6704501397243E-04
(PID.TID 0000.0001) %MON forcing_fv_max               =   2.0424529544041E-01
(PID.TID 0000.0001) %MON forcing_fv_min               =  -1.6921520461693E-01
(PID.TID 0000.0001) %MON forcing_fv_mean              =  -5.8064618969417E-03
(PID.TID 0000.0001) %MON forcing_fv_sd                =   4.5841182947436E-02
(PID.TID 0000.0001) %MON forcing_fv_del2              =   4.4528292007770E-04
(PID.TID 0000.0001) %MON trAdv_CFL_u_max              =   9.6986670086100E-02
(PID.TID 0000.0001) %MON trAdv_CFL_v_max              =   4.7800495387989E-02
(PID.TID 0000.0001) %MON trAdv_CFL_w_max              =   1.5463731422689E-01
(PID.TID 0000.0001) %MON advcfl_uvel_max              =   1.0268833926036E-01
(PID.TID 0000.0001) %MON advcfl_vvel_max              =   5.0677315625418E-02
(PID.TID 0000.0001) %MON advcfl_wvel_max              =   1.3458746813602E-01
(PID.TID 0000.0001) %MON advcfl_W_hf_max              =   1.5237890639690E-01
(PID.TID 0000.0001) %MON pe_b_mean                    =  -8.1012326778976E-03
(PID.TID 0000.0001) %MON ke_max                       =   1.3411840221296E-02
(PID.TID 0000.0001) %MON ke_mean                      =   1.0387346493843E-04
(PID.TID 0000.0001) %MON ke_vol                       =   1.3442141716554E+22
(PID.TID 0000.0001) %MON vort_r_min                   =  -5.2097406484711E-07
(PID.TID 0000.0001) %MON vort_r_max                   =   4.7253970103410E-07
(PID.TID 0000.0001) %MON vort_a_mean                  =  -2.4598204622524E-05
(PID.TID 0000.0001) %MON vort_a_sd                    =   7.3637214395778E-05
(PID.TID 0000.0001) %MON vort_p_mean                  =  -2.9476093773104E-05
(PID.TID 0000.0001) %MON vort_p_sd                    =   1.0363595650660E-04
(PID.TID 0000.0001) %MON surfExpan_theta_mean         =  -5.7117828482748E-04
(PID.TID 0000.0001) %MON surfExpan_salt_mean          =  -6.1888230947213E-05
(PID.TID 0000.0001) // =======================================================
(PID.TID 0000.0001) // End MONITOR dynamic field statistics
(PID.TID 0000.0001) // =======================================================
 EXTERNAL_FIELDS_LOAD,        13 : iP,iLd,i0,i1=    1    2    1    2 ; Wght=  0.6333333333  0.3666666667
 cg2d: Sum(rhs),rhsMax =   1.66533453693773E-15  1.72999587042744E+02
(PID.TID 0000.0001)      cg2d_init_res =   2.58912943887929E-03
(PID.TID 0000.0001)      cg2d_iters(min,last) =      -1      88
(PID.TID 0000.0001)      cg2d_last_res =   9.90963790117683E-10
(PID.TID 0000.0001) // =======================================================
(PID.TID 0000.0001) // Begin MONITOR dynamic field statistics
(PID.TID 0000.0001) // =======================================================
(PID.TID 0000.0001) %MON time_tsnumber                =                    14
(PID.TID 0000.0001) %MON time_secondsf                =   2.4192000000000E+06
(PID.TID 0000.0001) %MON dynstat_eta_max              =   4.3098096779110E+04
(PID.TID 0000.0001) %MON dynstat_eta_min              =  -9.2545876462794E+04
(PID.TID 0000.0001) %MON dynstat_eta_mean             =   4.3878605963288E-13
(PID.TID 0000.0001) %MON dynstat_eta_sd               =   3.9517136050476E+04
(PID.TID 0000.0001) %MON dynstat_eta_del2             =   2.1197303168617E+03
(PID.TID 0000.0001) %MON dynstat_uvel_max             =   1.6872403766365E-01
(PID.TID 0000.0001) %MON dynstat_uvel_min             =  -7.9961644580613E-02
(PID.TID 0000.0001) %MON dynstat_uvel_mean            =   1.7585963315777E-04
(PID.TID 0000.0001) %MON dynstat_uvel_sd              =   1.1526662291912E-02
(PID.TID 0000.0001) %MON dynstat_uvel_del2            =   8.8158630743723E-05
(PID.TID 0000.0001) %MON dynstat_vvel_max             =   9.0027971199571E-02
(PID.TID 0000.0001) %MON dynstat_vvel_min             =  -1.3227618090051E-01
(PID.TID 0000.0001) %MON dynstat_vvel_mean            =   1.2748018923345E-05
(PID.TID 0000.0001) %MON dynstat_vvel_sd              =   1.0942035905529E-02
(PID.TID 0000.0001) %MON dynstat_vvel_del2            =   1.1195140649970E-04
(PID.TID 0000.0001) %MON dynstat_wvel_max             =   2.5417508950723E+00
(PID.TID 0000.0001) %MON dynstat_wvel_min             =  -1.5090130095409E+00
(PID.TID 0000.0001) %MON dynstat_wvel_mean            =   2.1326808266534E-04
(PID.TID 0000.0001) %MON dynstat_wvel_sd              =   2.3509711693581E-01
(PID.TID 0000.0001) %MON dynstat_wvel_del2            =   3.1813717252793E-03
(PID.TID 0000.0001) %MON dynstat_theta_max            =   2.9976011782421E+01
(PID.TID 0000.0001) %MON dynstat_theta_min            =  -3.1167056847970E+00
(PID.TID 0000.0001) %MON dynstat_theta_mean           =   3.6035212672097E+00
(PID.TID 0000.0001) %MON dynstat_theta_sd             =   4.4026015859360E+00
(PID.TID 0000.0001) %MON dynstat_theta_del2           =   5.0041878994188E-03
(PID.TID 0000.0001) %MON dynstat_salt_max             =   3.7432973694863E+01
(PID.TID 0000.0001) %MON dynstat_salt_min             =   2.9770781901663E+01
(PID.TID 0000.0001) %MON dynstat_salt_mean            =   3.4718001180284E+01
(PID.TID 0000.0001) %MON dynstat_salt_sd              =   2.9441924465143E-01
(PID.TID 0000.0001) %MON dynstat_salt_del2            =   1.0335747049702E-03
(PID.TID 0000.0001) %MON forcing_qnet_max             =   4.2575218179855E+02
(PID.TID 0000.0001) %MON forcing_qnet_min             =  -1.9103782225161E+02
(PID.TID 0000.0001) %MON forcing_qnet_mean            =  -1.6050523244044E+01
(PID.TID 0000.0001) %MON forcing_qnet_sd              =   1.0504136369343E+02
(PID.TID 0000.0001) %MON forcing_qnet_del2            =   6.9794236533440E-01
(PID.TID 0000.0001) %MON forcing_qsw_max              =   0.0000000000000E+00
(PID.TID 0000.0001) %MON forcing_qsw_min              =   0.0000000000000E+00
(PID.TID 0000.0001) %MON forcing_qsw_mean             =   0.0000000000000E+00
(PID.TID 0000.0001) %MON forcing_qsw_sd               =   0.0000000000000E+00
(PID.TID 0000.0001) %MON forcing_qsw_del2             =   0.0000000000000E+00
(PID.TID 0000.0001) %MON forcing_empmr_max            =   5.2312924520654E-05
(PID.TID 0000.0001) %MON forcing_empmr_min            =  -1.3707940920787E-04
(PID.TID 0000.0001) %MON forcing_empmr_mean           =   4.0865136276267E-22
(PID.TID 0000.0001) %MON forcing_empmr_sd             =   2.3555038620025E-05
(PID.TID 0000.0001) %MON forcing_empmr_del2           =   2.4961915835152E-07
(PID.TID 0000.0001) %MON forcing_fu_max               =   2.7827951307352E-01
(PID.TID 0000.0001) %MON forcing_fu_min               =  -1.8419379566072E-01
(PID.TID 0000.0001) %MON forcing_fu_mean              =   1.6681950667438E-02
(PID.TID 0000.0001) %MON forcing_fu_sd                =   9.0011085349644E-02
(PID.TID 0000.0001) %MON forcing_fu_del2              =   6.6256853162117E-04
(PID.TID 0000.0001) %MON forcing_fv_max               =   1.9782840103172E-01
(PID.TID 0000.0001) %MON forcing_fv_min               =  -1.6723260512150E-01
(PID.TID 0000.0001) %MON forcing_fv_mean              =  -5.9384820218404E-03
(PID.TID 0000.0001) %MON forcing_fv_sd                =   4.5463770378877E-02
(PID.TID 0000.0001) %MON forcing_fv_del2              =   4.4233489700273E-04
(PID.TID 0000.0001) %MON trAdv_CFL_u_max              =   1.0270919599650E-01
(PID.TID 0000.0001) %MON trAdv_CFL_v_max              =   4.9063941461290E-02
(PID.TID 0000.0001) %MON trAdv_CFL_w_max              =   1.5237890639690E-01
(PID.TID 0000.0001) %MON advcfl_uvel_max              =   1.0766326176730E-01
(PID.TID 0000.0001) %MON advcfl_vvel_max              =   5.1398280988163E-02
(PID.TID 0000.0001) %MON advcfl_wvel_max              =   1.2985135746429E-01
(PID.TID 0000.0001) %MON advcfl_W_hf_max              =   1.4701671796488E-01
(PID.TID 0000.0001) %MON pe_b_mean                    =  -7.9340062970494E-03
(PID.TID 0000.0001) %MON ke_max                       =   1.4723583659079E-02
(PID.TID 0000.0001) %MON ke_mean                      =   1.1386963496352E-04
(PID.TID 0000.0001) %MON ke_vol                       =   1.3442141716554E+22
(PID.TID 0000.0001) %MON vort_r_min                   =  -5.1281208585638E-07
(PID.TID 0000.0001) %MON vort_r_max                   =   4.6739341213644E-07
(PID.TID 0000.0001) %MON vort_a_mean                  =  -2.4598204628454E-05
(PID.TID 0000.0001) %MON vort_a_sd                    =   7.3637197511444E-05
(PID.TID 0000.0001) %MON vort_p_mean                  =  -2.9476085096091E-05
(PID.TID 0000.0001) %MON vort_p_sd                    =   1.0363629907598E-04
(PID.TID 0000.0001) %MON surfExpan_theta_mean         =   4.7298474677753E-04
(PID.TID 0000.0001) %MON surfExpan_salt_mean          =  -4.8392308777012E-05
(PID.TID 0000.0001) // =======================================================
(PID.TID 0000.0001) // End MONITOR dynamic field statistics
(PID.TID 0000.0001) // =======================================================
 EXTERNAL_FIELDS_LOAD,        14 : iP,iLd,i0,i1=    1    2    1    2 ; Wght=  0.5666666667  0.4333333333
 cg2d: Sum(rhs),rhsMax =   1.72084568816899E-15  1.72997879294398E+02
(PID.TID 0000.0001)      cg2d_init_res =   2.55393534973202E-03
(PID.TID 0000.0001)      cg2d_iters(min,last) =      -1      89
(PID.TID 0000.0001)      cg2d_last_res =   8.22634926779474E-10
(PID.TID 0000.0001) // =======================================================
(PID.TID 0000.0001) // Begin MONITOR dynamic field statistics
(PID.TID 0000.0001) // =======================================================
(PID.TID 0000.0001) %MON time_tsnumber                =                    15
(PID.TID 0000.0001) %MON time_secondsf                =   2.5920000000000E+06
(PID.TID 0000.0001) %MON dynstat_eta_max              =   4.4307405417980E+04
(PID.TID 0000.0001) %MON dynstat_eta_min              =  -9.2734807836939E+04
(PID.TID 0000.0001) %MON dynstat_eta_mean             =  -3.5102884770630E-12
(PID.TID 0000.0001) %MON dynstat_eta_sd               =   3.9585907320650E+04
(PID.TID 0000.0001) %MON dynstat_eta_del2             =   2.1196933838500E+03
(PID.TID 0000.0001) %MON dynstat_uvel_max             =   1.7653272410717E-01
(PID.TID 0000.0001) %MON dynstat_uvel_min             =  -8.4487739896563E-02
(PID.TID 0000.0001) %MON dynstat_uvel_mean            =   1.8388850504784E-04
(PID.TID 0000.0001) %MON dynstat_uvel_sd              =   1.2455323268157E-02
(PID.TID 0000.0001) %MON dynstat_uvel_del2            =   9.1576102450193E-05
(PID.TID 0000.0001) %MON dynstat_vvel_max             =   8.8300836045439E-02
(PID.TID 0000.0001) %MON dynstat_vvel_min             =  -1.3263445837931E-01
(PID.TID 0000.0001) %MON dynstat_vvel_mean            =   3.2283057390865E-05
(PID.TID 0000.0001) %MON dynstat_vvel_sd              =   1.0876195866328E-02
(PID.TID 0000.0001) %MON dynstat_vvel_del2            =   1.1108194737941E-04
(PID.TID 0000.0001) %MON dynstat_wvel_max             =   2.6566268401737E+00
(PID.TID 0000.0001) %MON dynstat_wvel_min             =  -1.5534604932287E+00
(PID.TID 0000.0001) %MON dynstat_wvel_mean            =   1.3002265934153E-04
(PID.TID 0000.0001) %MON dynstat_wvel_sd              =   2.2915511149120E-01
(PID.TID 0000.0001) %MON dynstat_wvel_del2            =   3.1033063764742E-03
(PID.TID 0000.0001) %MON dynstat_theta_max            =   2.9989122017326E+01
(PID.TID 0000.0001) %MON dynstat_theta_min            =  -3.1623682619804E+00
(PID.TID 0000.0001) %MON dynstat_theta_mean           =   3.6036138498407E+00
(PID.TID 0000.0001) %MON dynstat_theta_sd             =   4.4028219565429E+00
(PID.TID 0000.0001) %MON dynstat_theta_del2           =   5.0180074354673E-03
(PID.TID 0000.0001) %MON dynstat_salt_max             =   3.7432979991539E+01
(PID.TID 0000.0001) %MON dynstat_salt_min             =   2.9769633256656E+01
(PID.TID 0000.0001) %MON dynstat_salt_mean            =   3.4718001144424E+01
(PID.TID 0000.0001) %MON dynstat_salt_sd              =   2.9441307173088E-01
(PID.TID 0000.0001) %MON dynstat_salt_del2            =   1.0372385089238E-03
(PID.TID 0000.0001) %MON forcing_qnet_max             =   4.2355146990978E+02
(PID.TID 0000.0001) %MON forcing_qnet_min             =  -1.8945330640064E+02
(PID.TID 0000.0001) %MON forcing_qnet_mean            =  -1.6167353017229E+01
(PID.TID 0000.0001) %MON forcing_qnet_sd              =   1.0302340493407E+02
(PID.TID 0000.0001) %MON forcing_qnet_del2            =   6.9172363822900E-01
(PID.TID 0000.0001) %MON forcing_qsw_max              =   0.0000000000000E+00
(PID.TID 0000.0001) %MON forcing_qsw_min              =   0.0000000000000E+00
(PID.TID 0000.0001) %MON forcing_qsw_mean             =   0.0000000000000E+00
(PID.TID 0000.0001) %MON forcing_qsw_sd               =   0.0000000000000E+00
(PID.TID 0000.0001) %MON forcing_qsw_del2             =   0.0000000000000E+00
(PID.TID 0000.0001) %MON forcing_empmr_max            =   5.2312924520654E-05
(PID.TID 0000.0001) %MON forcing_empmr_min            =  -1.3707940920787E-04
(PID.TID 0000.0001) %MON forcing_empmr_mean           =   8.1730272552535E-22
(PID.TID 0000.0001) %MON forcing_empmr_sd             =   2.3555038620025E-05
(PID.TID 0000.0001) %MON forcing_empmr_del2           =   2.4961915835152E-07
(PID.TID 0000.0001) %MON forcing_fu_max               =   2.8105382984197E-01
(PID.TID 0000.0001) %MON forcing_fu_min               =  -1.8751364363583E-01
(PID.TID 0000.0001) %MON forcing_fu_mean              =   1.6791825387739E-02
(PID.TID 0000.0001) %MON forcing_fu_sd                =   9.0036894955837E-02
(PID.TID 0000.0001) %MON forcing_fu_del2              =   6.6060922781266E-04
(PID.TID 0000.0001) %MON forcing_fv_max               =   1.9141846475999E-01
(PID.TID 0000.0001) %MON forcing_fv_min               =  -1.6525000562607E-01
(PID.TID 0000.0001) %MON forcing_fv_mean              =  -6.0705021467390E-03
(PID.TID 0000.0001) %MON forcing_fv_sd                =   4.5146829053665E-02
(PID.TID 0000.0001) %MON forcing_fv_del2              =   4.4154630056010E-04
(PID.TID 0000.0001) %MON trAdv_CFL_u_max              =   1.0768512894578E-01
(PID.TID 0000.0001) %MON trAdv_CFL_v_max              =   4.9761954012208E-02
(PID.TID 0000.0001) %MON trAdv_CFL_w_max              =   1.4701671796488E-01
(PID.TID 0000.0001) %MON advcfl_uvel_max              =   1.1184043717121E-01
(PID.TID 0000.0001) %MON advcfl_vvel_max              =   5.1537496124263E-02
(PID.TID 0000.0001) %MON advcfl_wvel_max              =   1.2240516084365E-01
(PID.TID 0000.0001) %MON advcfl_W_hf_max              =   1.3858619086169E-01
(PID.TID 0000.0001) %MON pe_b_mean                    =  -7.8045187754898E-03
(PID.TID 0000.0001) %MON ke_max                       =   1.5940426447385E-02
(PID.TID 0000.0001) %MON ke_mean                      =   1.2331452107423E-04
(PID.TID 0000.0001) %MON ke_vol                       =   1.3442141716554E+22
(PID.TID 0000.0001) %MON vort_r_min                   =  -4.8925809873757E-07
(PID.TID 0000.0001) %MON vort_r_max                   =   5.0030040170823E-07
(PID.TID 0000.0001) %MON vort_a_mean                  =  -2.4598204705360E-05
(PID.TID 0000.0001) %MON vort_a_sd                    =   7.3637194740220E-05
(PID.TID 0000.0001) %MON vort_p_mean                  =  -2.9476081821673E-05
(PID.TID 0000.0001) %MON vort_p_sd                    =   1.0363675964763E-04
(PID.TID 0000.0001) %MON surfExpan_theta_mean         =   9.2160626722193E-04
(PID.TID 0000.0001) %MON surfExpan_salt_mean          =  -2.2164438603584E-05
(PID.TID 0000.0001) // =======================================================
(PID.TID 0000.0001) // End MONITOR dynamic field statistics
(PID.TID 0000.0001) // =======================================================
 EXTERNAL_FIELDS_LOAD,        15 : iP,iLd,i0,i1=    1    2    1    2 ; Wght=  0.5000000000  0.5000000000
 cg2d: Sum(rhs),rhsMax =   8.88178419700125E-16  1.72995258228741E+02
(PID.TID 0000.0001)      cg2d_init_res =   2.44753173851391E-03
(PID.TID 0000.0001)      cg2d_iters(min,last) =      -1      89
(PID.TID 0000.0001)      cg2d_last_res =   7.72080159938727E-10
(PID.TID 0000.0001) // =======================================================
(PID.TID 0000.0001) // Begin MONITOR dynamic field statistics
(PID.TID 0000.0001) // =======================================================
(PID.TID 0000.0001) %MON time_tsnumber                =                    16
(PID.TID 0000.0001) %MON time_secondsf                =   2.7648000000000E+06
(PID.TID 0000.0001) %MON dynstat_eta_max              =   4.6809622439001E+04
(PID.TID 0000.0001) %MON dynstat_eta_min              =  -9.2852245565480E+04
(PID.TID 0000.0001) %MON dynstat_eta_mean             =   2.1939302981644E-12
(PID.TID 0000.0001) %MON dynstat_eta_sd               =   3.9658699312391E+04
(PID.TID 0000.0001) %MON dynstat_eta_del2             =   2.1196458902062E+03
(PID.TID 0000.0001) %MON dynstat_uvel_max             =   1.8361428610375E-01
(PID.TID 0000.0001) %MON dynstat_uvel_min             =  -8.7776569233698E-02
(PID.TID 0000.0001) %MON dynstat_uvel_mean            =   2.4882043925916E-04
(PID.TID 0000.0001) %MON dynstat_uvel_sd              =   1.3328797749521E-02
(PID.TID 0000.0001) %MON dynstat_uvel_del2            =   9.5135660033349E-05
(PID.TID 0000.0001) %MON dynstat_vvel_max             =   8.9032274232125E-02
(PID.TID 0000.0001) %MON dynstat_vvel_min             =  -1.3150415368443E-01
(PID.TID 0000.0001) %MON dynstat_vvel_mean            =   1.7161802847284E-05
(PID.TID 0000.0001) %MON dynstat_vvel_sd              =   1.0729503908365E-02
(PID.TID 0000.0001) %MON dynstat_vvel_del2            =   1.0971380434599E-04
(PID.TID 0000.0001) %MON dynstat_wvel_max             =   2.7616701480611E+00
(PID.TID 0000.0001) %MON dynstat_wvel_min             =  -1.5752487767514E+00
(PID.TID 0000.0001) %MON dynstat_wvel_mean            =   6.6535608071999E-05
(PID.TID 0000.0001) %MON dynstat_wvel_sd              =   2.2249590203018E-01
(PID.TID 0000.0001) %MON dynstat_wvel_del2            =   3.0283553779470E-03
(PID.TID 0000.0001) %MON dynstat_theta_max            =   2.9997520626705E+01
(PID.TID 0000.0001) %MON dynstat_theta_min            =  -3.2033937961940E+00
(PID.TID 0000.0001) %MON dynstat_theta_mean           =   3.6037068054970E+00
(PID.TID 0000.0001) %MON dynstat_theta_sd             =   4.4030648266889E+00
(PID.TID 0000.0001) %MON dynstat_theta_del2           =   5.0298341051971E-03
(PID.TID 0000.0001) %MON dynstat_salt_max             =   3.7433113087716E+01
(PID.TID 0000.0001) %MON dynstat_salt_min             =   2.9768471153520E+01
(PID.TID 0000.0001) %MON dynstat_salt_mean            =   3.4718001074733E+01
(PID.TID 0000.0001) %MON dynstat_salt_sd              =   2.9441227050988E-01
(PID.TID 0000.0001) %MON dynstat_salt_del2            =   1.0407095303312E-03
(PID.TID 0000.0001) %MON forcing_qnet_max             =   4.2135075802102E+02
(PID.TID 0000.0001) %MON forcing_qnet_min             =  -1.8786879054966E+02
(PID.TID 0000.0001) %MON forcing_qnet_mean            =  -1.6284182790414E+01
(PID.TID 0000.0001) %MON forcing_qnet_sd              =   1.0109275077866E+02
(PID.TID 0000.0001) %MON forcing_qnet_del2            =   6.8738031584655E-01
(PID.TID 0000.0001) %MON forcing_qsw_max              =   0.0000000000000E+00
(PID.TID 0000.0001) %MON forcing_qsw_min              =   0.0000000000000E+00
(PID.TID 0000.0001) %MON forcing_qsw_mean             =   0.0000000000000E+00
(PID.TID 0000.0001) %MON forcing_qsw_sd               =   0.0000000000000E+00
(PID.TID 0000.0001) %MON forcing_qsw_del2             =   0.0000000000000E+00
(PID.TID 0000.0001) %MON forcing_empmr_max            =   5.2312924520654E-05
(PID.TID 0000.0001) %MON forcing_empmr_min            =  -1.3707940920787E-04
(PID.TID 0000.0001) %MON forcing_empmr_mean           =   4.0865136276267E-22
(PID.TID 0000.0001) %MON forcing_empmr_sd             =   2.3555038620025E-05
(PID.TID 0000.0001) %MON forcing_empmr_del2           =   2.4961915835152E-07
(PID.TID 0000.0001) %MON forcing_fu_max               =   2.8382814661043E-01
(PID.TID 0000.0001) %MON forcing_fu_min               =  -1.9083349161093E-01
(PID.TID 0000.0001) %MON forcing_fu_mean              =   1.6901700108040E-02
(PID.TID 0000.0001) %MON forcing_fu_sd                =   9.0133087001675E-02
(PID.TID 0000.0001) %MON forcing_fu_del2              =   6.6118948040277E-04
(PID.TID 0000.0001) %MON forcing_fv_max               =   1.8921542366079E-01
(PID.TID 0000.0001) %MON forcing_fv_min               =  -1.6326740613065E-01
(PID.TID 0000.0001) %MON forcing_fv_mean              =  -6.2025222716376E-03
(PID.TID 0000.0001) %MON forcing_fv_sd                =   4.4891639796661E-02
(PID.TID 0000.0001) %MON forcing_fv_del2              =   4.4292866492091E-04
(PID.TID 0000.0001) %MON trAdv_CFL_u_max              =   1.1186315276390E-01
(PID.TID 0000.0001) %MON trAdv_CFL_v_max              =   4.9896737064622E-02
(PID.TID 0000.0001) %MON trAdv_CFL_w_max              =   1.3858619086169E-01
(PID.TID 0000.0001) %MON advcfl_uvel_max              =   1.1515808131522E-01
(PID.TID 0000.0001) %MON advcfl_vvel_max              =   5.1098295975650E-02
(PID.TID 0000.0001) %MON advcfl_wvel_max              =   1.1235875159479E-01
(PID.TID 0000.0001) %MON advcfl_W_hf_max              =   1.2721172282423E-01
(PID.TID 0000.0001) %MON pe_b_mean                    =  -7.7231349993650E-03
(PID.TID 0000.0001) %MON ke_max                       =   1.7045657319536E-02
(PID.TID 0000.0001) %MON ke_mean                      =   1.3210669542038E-04
(PID.TID 0000.0001) %MON ke_vol                       =   1.3442141716554E+22
(PID.TID 0000.0001) %MON vort_r_min                   =  -4.8628290426051E-07
(PID.TID 0000.0001) %MON vort_r_max                   =   5.2736704216995E-07
(PID.TID 0000.0001) %MON vort_a_mean                  =  -2.4598204831015E-05
(PID.TID 0000.0001) %MON vort_a_sd                    =   7.3637204502714E-05
(PID.TID 0000.0001) %MON vort_p_mean                  =  -2.9476082711385E-05
(PID.TID 0000.0001) %MON vort_p_sd                    =   1.0363722035264E-04
(PID.TID 0000.0001) %MON surfExpan_theta_mean         =   8.5137050728461E-04
(PID.TID 0000.0001) %MON surfExpan_salt_mean          =   1.3258805792013E-05
(PID.TID 0000.0001) // =======================================================
(PID.TID 0000.0001) // End MONITOR dynamic field statistics
(PID.TID 0000.0001) // =======================================================
 EXTERNAL_FIELDS_LOAD,        16 : iP,iLd,i0,i1=    1    2    1    2 ; Wght=  0.4333333333  0.5666666667
 cg2d: Sum(rhs),rhsMax =   3.35842464949110E-15  1.72992219210637E+02
(PID.TID 0000.0001)      cg2d_init_res =   2.30060670637421E-03
(PID.TID 0000.0001)      cg2d_iters(min,last) =      -1      86
(PID.TID 0000.0001)      cg2d_last_res =   9.55048679137580E-10
(PID.TID 0000.0001) // =======================================================
(PID.TID 0000.0001) // Begin MONITOR dynamic field statistics
(PID.TID 0000.0001) // =======================================================
(PID.TID 0000.0001) %MON time_tsnumber                =                    17
(PID.TID 0000.0001) %MON time_secondsf                =   2.9376000000000E+06
(PID.TID 0000.0001) %MON dynstat_eta_max              =   4.8395641838646E+04
(PID.TID 0000.0001) %MON dynstat_eta_min              =  -9.2898575866328E+04
(PID.TID 0000.0001) %MON dynstat_eta_mean             =  -5.7042187752274E-12
(PID.TID 0000.0001) %MON dynstat_eta_sd               =   3.9709002328558E+04
(PID.TID 0000.0001) %MON dynstat_eta_del2             =   2.1195920957462E+03
(PID.TID 0000.0001) %MON dynstat_uvel_max             =   1.9106602518602E-01
(PID.TID 0000.0001) %MON dynstat_uvel_min             =  -9.1980509319738E-02
(PID.TID 0000.0001) %MON dynstat_uvel_mean            =   3.5068930936359E-04
(PID.TID 0000.0001) %MON dynstat_uvel_sd              =   1.4136731008253E-02
(PID.TID 0000.0001) %MON dynstat_uvel_del2            =   9.8792246563050E-05
(PID.TID 0000.0001) %MON dynstat_vvel_max             =   9.2081158841116E-02
(PID.TID 0000.0001) %MON dynstat_vvel_min             =  -1.2890435756313E-01
(PID.TID 0000.0001) %MON dynstat_vvel_mean            =  -1.5383122957455E-05
(PID.TID 0000.0001) %MON dynstat_vvel_sd              =   1.0522927202626E-02
(PID.TID 0000.0001) %MON dynstat_vvel_del2            =   1.0808313600200E-04
(PID.TID 0000.0001) %MON dynstat_wvel_max             =   2.8560038149789E+00
(PID.TID 0000.0001) %MON dynstat_wvel_min             =  -1.5787663580407E+00
(PID.TID 0000.0001) %MON dynstat_wvel_mean            =   2.2025495971566E-05
(PID.TID 0000.0001) %MON dynstat_wvel_sd              =   2.1569782188427E-01
(PID.TID 0000.0001) %MON dynstat_wvel_del2            =   2.9623558969473E-03
(PID.TID 0000.0001) %MON dynstat_theta_max            =   3.0001192195566E+01
(PID.TID 0000.0001) %MON dynstat_theta_min            =  -3.2398429011316E+00
(PID.TID 0000.0001) %MON dynstat_theta_mean           =   3.6038006223201E+00
(PID.TID 0000.0001) %MON dynstat_theta_sd             =   4.4033295606993E+00
(PID.TID 0000.0001) %MON dynstat_theta_del2           =   5.0376613220564E-03
(PID.TID 0000.0001) %MON dynstat_salt_max             =   3.7433384685432E+01
(PID.TID 0000.0001) %MON dynstat_salt_min             =   2.9767230012593E+01
(PID.TID 0000.0001) %MON dynstat_salt_mean            =   3.4718000980609E+01
(PID.TID 0000.0001) %MON dynstat_salt_sd              =   2.9441501413235E-01
(PID.TID 0000.0001) %MON dynstat_salt_del2            =   1.0432456953542E-03
(PID.TID 0000.0001) %MON forcing_qnet_max             =   4.1915004613225E+02
(PID.TID 0000.0001) %MON forcing_qnet_min             =  -1.8628427469869E+02
(PID.TID 0000.0001) %MON forcing_qnet_mean            =  -1.6401012563599E+01
(PID.TID 0000.0001) %MON forcing_qnet_sd              =   9.9254495988507E+01
(PID.TID 0000.0001) %MON forcing_qnet_del2            =   6.8494807548763E-01
(PID.TID 0000.0001) %MON forcing_qsw_max              =   0.0000000000000E+00
(PID.TID 0000.0001) %MON forcing_qsw_min              =   0.0000000000000E+00
(PID.TID 0000.0001) %MON forcing_qsw_mean             =   0.0000000000000E+00
(PID.TID 0000.0001) %MON forcing_qsw_sd               =   0.0000000000000E+00
(PID.TID 0000.0001) %MON forcing_qsw_del2             =   0.0000000000000E+00
(PID.TID 0000.0001) %MON forcing_empmr_max            =   5.2312924520654E-05
(PID.TID 0000.0001) %MON forcing_empmr_min            =  -1.3707940920787E-04
(PID.TID 0000.0001) %MON forcing_empmr_mean           =   8.1730272552535E-22
(PID.TID 0000.0001) %MON forcing_empmr_sd             =   2.3555038620025E-05
(PID.TID 0000.0001) %MON forcing_empmr_del2           =   2.4961915835152E-07
(PID.TID 0000.0001) %MON forcing_fu_max               =   2.8660246337888E-01
(PID.TID 0000.0001) %MON forcing_fu_min               =  -1.9415333958603E-01
(PID.TID 0000.0001) %MON forcing_fu_mean              =   1.7011574828341E-02
(PID.TID 0000.0001) %MON forcing_fu_sd                =   9.0299436561422E-02
(PID.TID 0000.0001) %MON forcing_fu_del2              =   6.6430263469806E-04
(PID.TID 0000.0001) %MON forcing_fv_max               =   1.8701238256158E-01
(PID.TID 0000.0001) %MON forcing_fv_min               =  -1.6128480663522E-01
(PID.TID 0000.0001) %MON forcing_fv_mean              =  -6.3345423965362E-03
(PID.TID 0000.0001) %MON forcing_fv_sd                =   4.4699260252941E-02
(PID.TID 0000.0001) %MON forcing_fv_del2              =   4.4646182492720E-04
(PID.TID 0000.0001) %MON trAdv_CFL_u_max              =   1.1518147074516E-01
(PID.TID 0000.0001) %MON trAdv_CFL_v_max              =   4.9471519388520E-02
(PID.TID 0000.0001) %MON trAdv_CFL_w_max              =   1.2721172282423E-01
(PID.TID 0000.0001) %MON advcfl_uvel_max              =   1.1854131243297E-01
(PID.TID 0000.0001) %MON advcfl_vvel_max              =   5.0088098594346E-02
(PID.TID 0000.0001) %MON advcfl_wvel_max              =   9.9903492707386E-02
(PID.TID 0000.0001) %MON advcfl_W_hf_max              =   1.1310997357195E-01
(PID.TID 0000.0001) %MON pe_b_mean                    =  -7.6975359580462E-03
(PID.TID 0000.0001) %MON ke_max                       =   1.8029022448491E-02
(PID.TID 0000.0001) %MON ke_mean                      =   1.4021661905947E-04
(PID.TID 0000.0001) %MON ke_vol                       =   1.3442141716554E+22
(PID.TID 0000.0001) %MON vort_r_min                   =  -5.1069751218749E-07
(PID.TID 0000.0001) %MON vort_r_max                   =   5.4881809694649E-07
(PID.TID 0000.0001) %MON vort_a_mean                  =  -2.4598204977182E-05
(PID.TID 0000.0001) %MON vort_a_sd                    =   7.3637222467504E-05
(PID.TID 0000.0001) %MON vort_p_mean                  =  -2.9476085557080E-05
(PID.TID 0000.0001) %MON vort_p_sd                    =   1.0363757702217E-04
(PID.TID 0000.0001) %MON surfExpan_theta_mean         =   4.6348380869269E-04
(PID.TID 0000.0001) %MON surfExpan_salt_mean          =   5.1989283664354E-05
(PID.TID 0000.0001) // =======================================================
(PID.TID 0000.0001) // End MONITOR dynamic field statistics
(PID.TID 0000.0001) // =======================================================
 EXTERNAL_FIELDS_LOAD,        17 : iP,iLd,i0,i1=    1    2    1    2 ; Wght=  0.3666666667  0.6333333333
 cg2d: Sum(rhs),rhsMax =  -1.66533453693773E-15  1.72988889348094E+02
(PID.TID 0000.0001)      cg2d_init_res =   2.20127537187626E-03
(PID.TID 0000.0001)      cg2d_iters(min,last) =      -1      84
(PID.TID 0000.0001)      cg2d_last_res =   8.58213327865022E-10
(PID.TID 0000.0001) // =======================================================
(PID.TID 0000.0001) // Begin MONITOR dynamic field statistics
(PID.TID 0000.0001) // =======================================================
(PID.TID 0000.0001) %MON time_tsnumber                =                    18
(PID.TID 0000.0001) %MON time_secondsf                =   3.1104000000000E+06
(PID.TID 0000.0001) %MON dynstat_eta_max              =   4.8822224391389E+04
(PID.TID 0000.0001) %MON dynstat_eta_min              =  -9.2836047989508E+04
(PID.TID 0000.0001) %MON dynstat_eta_mean             =  -2.6327163577973E-12
(PID.TID 0000.0001) %MON dynstat_eta_sd               =   3.9722820150303E+04
(PID.TID 0000.0001) %MON dynstat_eta_del2             =   2.1195365062540E+03
(PID.TID 0000.0001) %MON dynstat_uvel_max             =   1.9697452292431E-01
(PID.TID 0000.0001) %MON dynstat_uvel_min             =  -9.5821330521486E-02
(PID.TID 0000.0001) %MON dynstat_uvel_mean            =   4.6509417069317E-04
(PID.TID 0000.0001) %MON dynstat_uvel_sd              =   1.4870191153188E-02
(PID.TID 0000.0001) %MON dynstat_uvel_del2            =   1.0246525343376E-04
(PID.TID 0000.0001) %MON dynstat_vvel_max             =   9.4657823133187E-02
(PID.TID 0000.0001) %MON dynstat_vvel_min             =  -1.2487336515077E-01
(PID.TID 0000.0001) %MON dynstat_vvel_mean            =  -4.7047954709251E-05
(PID.TID 0000.0001) %MON dynstat_vvel_sd              =   1.0280090767039E-02
(PID.TID 0000.0001) %MON dynstat_vvel_del2            =   1.0641853781155E-04
(PID.TID 0000.0001) %MON dynstat_wvel_max             =   2.9386406739359E+00
(PID.TID 0000.0001) %MON dynstat_wvel_min             =  -1.6448078816023E+00
(PID.TID 0000.0001) %MON dynstat_wvel_mean            =  -1.0051999717966E-05
(PID.TID 0000.0001) %MON dynstat_wvel_sd              =   2.0930836013699E-01
(PID.TID 0000.0001) %MON dynstat_wvel_del2            =   2.9096790367601E-03
(PID.TID 0000.0001) %MON dynstat_theta_max            =   3.0000108898312E+01
(PID.TID 0000.0001) %MON dynstat_theta_min            =  -3.2717729252062E+00
(PID.TID 0000.0001) %MON dynstat_theta_mean           =   3.6038954592131E+00
(PID.TID 0000.0001) %MON dynstat_theta_sd             =   4.4036119009213E+00
(PID.TID 0000.0001) %MON dynstat_theta_del2           =   5.0443841535926E-03
(PID.TID 0000.0001) %MON dynstat_salt_max             =   3.7433798695223E+01
(PID.TID 0000.0001) %MON dynstat_salt_min             =   2.9765857702661E+01
(PID.TID 0000.0001) %MON dynstat_salt_mean            =   3.4718000877697E+01
(PID.TID 0000.0001) %MON dynstat_salt_sd              =   2.9441541305088E-01
(PID.TID 0000.0001) %MON dynstat_salt_del2            =   1.0455846449605E-03
(PID.TID 0000.0001) %MON forcing_qnet_max             =   4.1694933424348E+02
(PID.TID 0000.0001) %MON forcing_qnet_min             =  -1.8469975884772E+02
(PID.TID 0000.0001) %MON forcing_qnet_mean            =  -1.6517842336784E+01
(PID.TID 0000.0001) %MON forcing_qnet_sd              =   9.7513866224350E+01
(PID.TID 0000.0001) %MON forcing_qnet_del2            =   6.8444729102208E-01
(PID.TID 0000.0001) %MON forcing_qsw_max              =   0.0000000000000E+00
(PID.TID 0000.0001) %MON forcing_qsw_min              =   0.0000000000000E+00
(PID.TID 0000.0001) %MON forcing_qsw_mean             =   0.0000000000000E+00
(PID.TID 0000.0001) %MON forcing_qsw_sd               =   0.0000000000000E+00
(PID.TID 0000.0001) %MON forcing_qsw_del2             =   0.0000000000000E+00
(PID.TID 0000.0001) %MON forcing_empmr_max            =   5.2312924520654E-05
(PID.TID 0000.0001) %MON forcing_empmr_min            =  -1.3707940920787E-04
(PID.TID 0000.0001) %MON forcing_empmr_mean           =   4.0865136276267E-22
(PID.TID 0000.0001) %MON forcing_empmr_sd             =   2.3555038620025E-05
(PID.TID 0000.0001) %MON forcing_empmr_del2           =   2.4961915835152E-07
(PID.TID 0000.0001) %MON forcing_fu_max               =   2.8937678014733E-01
(PID.TID 0000.0001) %MON forcing_fu_min               =  -1.9747318756114E-01
(PID.TID 0000.0001) %MON forcing_fu_mean              =   1.7121449548642E-02
(PID.TID 0000.0001) %MON forcing_fu_sd                =   9.0535556914754E-02
(PID.TID 0000.0001) %MON forcing_fu_del2              =   6.6991337968855E-04
(PID.TID 0000.0001) %MON forcing_fv_max               =   1.8480934146237E-01
(PID.TID 0000.0001) %MON forcing_fv_min               =  -1.6478836967949E-01
(PID.TID 0000.0001) %MON forcing_fv_mean              =  -6.4665625214348E-03
(PID.TID 0000.0001) %MON forcing_fv_sd                =   4.4570503746109E-02
(PID.TID 0000.0001) %MON forcing_fv_del2              =   4.5209535749048E-04
(PID.TID 0000.0001) %MON trAdv_CFL_u_max              =   1.1856538902135E-01
(PID.TID 0000.0001) %MON trAdv_CFL_v_max              =   4.8493482873188E-02
(PID.TID 0000.0001) %MON trAdv_CFL_w_max              =   1.1310997357195E-01
(PID.TID 0000.0001) %MON advcfl_uvel_max              =   1.2339988591671E-01
(PID.TID 0000.0001) %MON advcfl_vvel_max              =   4.8521784241595E-02
(PID.TID 0000.0001) %MON advcfl_wvel_max              =   9.8591264971531E-02
(PID.TID 0000.0001) %MON advcfl_W_hf_max              =   1.0854403529869E-01
(PID.TID 0000.0001) %MON pe_b_mean                    =  -7.7279676902974E-03
(PID.TID 0000.0001) %MON ke_max                       =   1.8885197572972E-02
(PID.TID 0000.0001) %MON ke_mean                      =   1.4763112470823E-04
(PID.TID 0000.0001) %MON ke_vol                       =   1.3442141716554E+22
(PID.TID 0000.0001) %MON vort_r_min                   =  -5.3039959255302E-07
(PID.TID 0000.0001) %MON vort_r_max                   =   5.6530294281959E-07
(PID.TID 0000.0001) %MON vort_a_mean                  =  -2.4598205115405E-05
(PID.TID 0000.0001) %MON vort_a_sd                    =   7.3637243292071E-05
(PID.TID 0000.0001) %MON vort_p_mean                  =  -2.9476088325595E-05
(PID.TID 0000.0001) %MON vort_p_sd                    =   1.0363776895249E-04
(PID.TID 0000.0001) %MON surfExpan_theta_mean         =  -2.1762914814787E-06
(PID.TID 0000.0001) %MON surfExpan_salt_mean          =   8.6734957934042E-05
(PID.TID 0000.0001) // =======================================================
(PID.TID 0000.0001) // End MONITOR dynamic field statistics
(PID.TID 0000.0001) // =======================================================
 EXTERNAL_FIELDS_LOAD,        18 : iP,iLd,i0,i1=    1    2    1    2 ; Wght=  0.3000000000  0.7000000000
 cg2d: Sum(rhs),rhsMax =  -2.05391259555654E-15  1.72985104115761E+02
(PID.TID 0000.0001)      cg2d_init_res =   2.17881540609824E-03
(PID.TID 0000.0001)      cg2d_iters(min,last) =      -1      87
(PID.TID 0000.0001)      cg2d_last_res =   8.60295546883345E-10
(PID.TID 0000.0001) // =======================================================
(PID.TID 0000.0001) // Begin MONITOR dynamic field statistics
(PID.TID 0000.0001) // =======================================================
(PID.TID 0000.0001) %MON time_tsnumber                =                    19
(PID.TID 0000.0001) %MON time_secondsf                =   3.2832000000000E+06
(PID.TID 0000.0001) %MON dynstat_eta_max              =   4.8202056985269E+04
(PID.TID 0000.0001) %MON dynstat_eta_min              =  -9.2714842932713E+04
(PID.TID 0000.0001) %MON dynstat_eta_mean             =   3.0715024174302E-12
(PID.TID 0000.0001) %MON dynstat_eta_sd               =   3.9702162452353E+04
(PID.TID 0000.0001) %MON dynstat_eta_del2             =   2.1194832447090E+03
(PID.TID 0000.0001) %MON dynstat_uvel_max             =   2.0126335778160E-01
(PID.TID 0000.0001) %MON dynstat_uvel_min             =  -9.9142435658200E-02
(PID.TID 0000.0001) %MON dynstat_uvel_mean            =   5.7029916306577E-04
(PID.TID 0000.0001) %MON dynstat_uvel_sd              =   1.5520216398854E-02
(PID.TID 0000.0001) %MON dynstat_uvel_del2            =   1.0605139931047E-04
(PID.TID 0000.0001) %MON dynstat_vvel_max             =   9.6785832059549E-02
(PID.TID 0000.0001) %MON dynstat_vvel_min             =  -1.1947557965342E-01
(PID.TID 0000.0001) %MON dynstat_vvel_mean            =  -6.3553036657862E-05
(PID.TID 0000.0001) %MON dynstat_vvel_sd              =   1.0026039490886E-02
(PID.TID 0000.0001) %MON dynstat_vvel_del2            =   1.0492768504607E-04
(PID.TID 0000.0001) %MON dynstat_wvel_max             =   3.0087591960468E+00
(PID.TID 0000.0001) %MON dynstat_wvel_min             =  -1.7743518013316E+00
(PID.TID 0000.0001) %MON dynstat_wvel_mean            =  -3.7334023550820E-05
(PID.TID 0000.0001) %MON dynstat_wvel_sd              =   2.0379000063777E-01
(PID.TID 0000.0001) %MON dynstat_wvel_del2            =   2.8729468224158E-03
(PID.TID 0000.0001) %MON dynstat_theta_max            =   2.9994243063431E+01
(PID.TID 0000.0001) %MON dynstat_theta_min            =  -3.2992357030432E+00
(PID.TID 0000.0001) %MON dynstat_theta_mean           =   3.6039914604690E+00
(PID.TID 0000.0001) %MON dynstat_theta_sd             =   4.4039139150425E+00
(PID.TID 0000.0001) %MON dynstat_theta_del2           =   5.0507734575739E-03
(PID.TID 0000.0001) %MON dynstat_salt_max             =   3.7434351050353E+01
(PID.TID 0000.0001) %MON dynstat_salt_min             =   2.9764325158343E+01
(PID.TID 0000.0001) %MON dynstat_salt_mean            =   3.4718000785373E+01
(PID.TID 0000.0001) %MON dynstat_salt_sd              =   2.9441752912452E-01
(PID.TID 0000.0001) %MON dynstat_salt_del2            =   1.0482318843078E-03
(PID.TID 0000.0001) %MON forcing_qnet_max             =   4.1474862235472E+02
(PID.TID 0000.0001) %MON forcing_qnet_min             =  -1.8311524299675E+02
(PID.TID 0000.0001) %MON forcing_qnet_mean            =  -1.6634672109969E+01
(PID.TID 0000.0001) %MON forcing_qnet_sd              =   9.5876178773768E+01
(PID.TID 0000.0001) %MON forcing_qnet_del2            =   6.8588219311561E-01
(PID.TID 0000.0001) %MON forcing_qsw_max              =   0.0000000000000E+00
(PID.TID 0000.0001) %MON forcing_qsw_min              =   0.0000000000000E+00
(PID.TID 0000.0001) %MON forcing_qsw_mean             =   0.0000000000000E+00
(PID.TID 0000.0001) %MON forcing_qsw_sd               =   0.0000000000000E+00
(PID.TID 0000.0001) %MON forcing_qsw_del2             =   0.0000000000000E+00
(PID.TID 0000.0001) %MON forcing_empmr_max            =   5.2312924520654E-05
(PID.TID 0000.0001) %MON forcing_empmr_min            =  -1.3707940920787E-04
(PID.TID 0000.0001) %MON forcing_empmr_mean           =   8.1730272552535E-22
(PID.TID 0000.0001) %MON forcing_empmr_sd             =   2.3555038620025E-05
(PID.TID 0000.0001) %MON forcing_empmr_del2           =   2.4961915835152E-07
(PID.TID 0000.0001) %MON forcing_fu_max               =   2.9215109691579E-01
(PID.TID 0000.0001) %MON forcing_fu_min               =  -2.0079303553624E-01
(PID.TID 0000.0001) %MON forcing_fu_mean              =   1.7231324268943E-02
(PID.TID 0000.0001) %MON forcing_fu_sd                =   9.0840904003179E-02
(PID.TID 0000.0001) %MON forcing_fu_del2              =   6.7795970857576E-04
(PID.TID 0000.0001) %MON forcing_fv_max               =   1.8260630036316E-01
(PID.TID 0000.0001) %MON forcing_fv_min               =  -1.7113216759969E-01
(PID.TID 0000.0001) %MON forcing_fv_mean              =  -6.5985826463334E-03
(PID.TID 0000.0001) %MON forcing_fv_sd                =   4.4505922467671E-02
(PID.TID 0000.0001) %MON forcing_fv_del2              =   4.5975205888607E-04
(PID.TID 0000.0001) %MON trAdv_CFL_u_max              =   1.2342494931611E-01
(PID.TID 0000.0001) %MON trAdv_CFL_v_max              =   4.6977034048601E-02
(PID.TID 0000.0001) %MON trAdv_CFL_w_max              =   1.0593204047058E-01
(PID.TID 0000.0001) %MON advcfl_uvel_max              =   1.2705959765176E-01
(PID.TID 0000.0001) %MON advcfl_vvel_max              =   4.6424377937467E-02
(PID.TID 0000.0001) %MON advcfl_wvel_max              =   9.8632129381405E-02
(PID.TID 0000.0001) %MON advcfl_W_hf_max              =   1.1403067338933E-01
(PID.TID 0000.0001) %MON pe_b_mean                    =  -7.8050821305988E-03
(PID.TID 0000.0001) %MON ke_max                       =   1.9611922062438E-02
(PID.TID 0000.0001) %MON ke_mean                      =   1.5431578092480E-04
(PID.TID 0000.0001) %MON ke_vol                       =   1.3442141716554E+22
(PID.TID 0000.0001) %MON vort_r_min                   =  -5.4503138448807E-07
(PID.TID 0000.0001) %MON vort_r_max                   =   5.7762101055352E-07
(PID.TID 0000.0001) %MON vort_a_mean                  =  -2.4598205221983E-05
(PID.TID 0000.0001) %MON vort_a_sd                    =   7.3637262219765E-05
(PID.TID 0000.0001) %MON vort_p_mean                  =  -2.9476089904906E-05
(PID.TID 0000.0001) %MON vort_p_sd                    =   1.0363777174904E-04
(PID.TID 0000.0001) %MON surfExpan_theta_mean         =  -3.3759404742142E-04
(PID.TID 0000.0001) %MON surfExpan_salt_mean          =   1.1204859553691E-04
(PID.TID 0000.0001) // =======================================================
(PID.TID 0000.0001) // End MONITOR dynamic field statistics
(PID.TID 0000.0001) // =======================================================
 EXTERNAL_FIELDS_LOAD,        19 : iP,iLd,i0,i1=    1    2    1    2 ; Wght=  0.2333333333  0.7666666667
 cg2d: Sum(rhs),rhsMax =  -6.93889390390723E-16  1.72980544618336E+02
(PID.TID 0000.0001)      cg2d_init_res =   2.20615081655230E-03
(PID.TID 0000.0001)      cg2d_iters(min,last) =      -1      88
(PID.TID 0000.0001)      cg2d_last_res =   8.46568026182442E-10
(PID.TID 0000.0001) // =======================================================
(PID.TID 0000.0001) // Begin MONITOR dynamic field statistics
(PID.TID 0000.0001) // =======================================================
(PID.TID 0000.0001) %MON time_tsnumber                =                    20
(PID.TID 0000.0001) %MON time_secondsf                =   3.4560000000000E+06
(PID.TID 0000.0001) %MON dynstat_eta_max              =   4.6894977797138E+04
(PID.TID 0000.0001) %MON dynstat_eta_min              =  -9.2596637529397E+04
(PID.TID 0000.0001) %MON dynstat_eta_mean             =   7.0205769541261E-12
(PID.TID 0000.0001) %MON dynstat_eta_sd               =   3.9661008558751E+04
(PID.TID 0000.0001) %MON dynstat_eta_del2             =   2.1194357510854E+03
(PID.TID 0000.0001) %MON dynstat_uvel_max             =   2.0387747086903E-01
(PID.TID 0000.0001) %MON dynstat_uvel_min             =  -1.0181499071567E-01
(PID.TID 0000.0001) %MON dynstat_uvel_mean            =   6.5203412947264E-04
(PID.TID 0000.0001) %MON dynstat_uvel_sd              =   1.6078016870817E-02
(PID.TID 0000.0001) %MON dynstat_uvel_del2            =   1.0944179146363E-04
(PID.TID 0000.0001) %MON dynstat_vvel_max             =   9.8487061367507E-02
(PID.TID 0000.0001) %MON dynstat_vvel_min             =  -1.1280494784155E-01
(PID.TID 0000.0001) %MON dynstat_vvel_mean            =  -5.7597919063318E-05
(PID.TID 0000.0001) %MON dynstat_vvel_sd              =   9.7860475155529E-03
(PID.TID 0000.0001) %MON dynstat_vvel_del2            =   1.0377876566657E-04
(PID.TID 0000.0001) %MON dynstat_wvel_max             =   3.0658672855623E+00
(PID.TID 0000.0001) %MON dynstat_wvel_min             =  -1.8906981312982E+00
(PID.TID 0000.0001) %MON dynstat_wvel_mean            =  -6.5307388253208E-05
(PID.TID 0000.0001) %MON dynstat_wvel_sd              =   1.9947848504819E-01
(PID.TID 0000.0001) %MON dynstat_wvel_del2            =   2.8528932021822E-03
(PID.TID 0000.0001) %MON dynstat_theta_max            =   2.9983576585571E+01
(PID.TID 0000.0001) %MON dynstat_theta_min            =  -3.3222780722174E+00
(PID.TID 0000.0001) %MON dynstat_theta_mean           =   3.6040886526730E+00
(PID.TID 0000.0001) %MON dynstat_theta_sd             =   4.4042268097648E+00
(PID.TID 0000.0001) %MON dynstat_theta_del2           =   5.0461382661525E-03
(PID.TID 0000.0001) %MON dynstat_salt_max             =   3.7435234700420E+01
(PID.TID 0000.0001) %MON dynstat_salt_min             =   2.9762630190053E+01
(PID.TID 0000.0001) %MON dynstat_salt_mean            =   3.4718000718111E+01
(PID.TID 0000.0001) %MON dynstat_salt_sd              =   2.9441477832744E-01
(PID.TID 0000.0001) %MON dynstat_salt_del2            =   1.0490532522543E-03
(PID.TID 0000.0001) %MON forcing_qnet_max             =   4.1262853656621E+02
(PID.TID 0000.0001) %MON forcing_qnet_min             =  -1.8377875812820E+02
(PID.TID 0000.0001) %MON forcing_qnet_mean            =  -1.6751501883154E+01
(PID.TID 0000.0001) %MON forcing_qnet_sd              =   9.4346794458794E+01
(PID.TID 0000.0001) %MON forcing_qnet_del2            =   6.8924069239349E-01
(PID.TID 0000.0001) %MON forcing_qsw_max              =   0.0000000000000E+00
(PID.TID 0000.0001) %MON forcing_qsw_min              =   0.0000000000000E+00
(PID.TID 0000.0001) %MON forcing_qsw_mean             =   0.0000000000000E+00
(PID.TID 0000.0001) %MON forcing_qsw_sd               =   0.0000000000000E+00
(PID.TID 0000.0001) %MON forcing_qsw_del2             =   0.0000000000000E+00
(PID.TID 0000.0001) %MON forcing_empmr_max            =   5.2312924520654E-05
(PID.TID 0000.0001) %MON forcing_empmr_min            =  -1.3707940920787E-04
(PID.TID 0000.0001) %MON forcing_empmr_mean           =   4.0865136276267E-22
(PID.TID 0000.0001) %MON forcing_empmr_sd             =   2.3555038620025E-05
(PID.TID 0000.0001) %MON forcing_empmr_del2           =   2.4961915835152E-07
(PID.TID 0000.0001) %MON forcing_fu_max               =   2.9492541368424E-01
(PID.TID 0000.0001) %MON forcing_fu_min               =  -2.0411288351134E-01
(PID.TID 0000.0001) %MON forcing_fu_mean              =   1.7341198989244E-02
(PID.TID 0000.0001) %MON forcing_fu_sd                =   9.1214782607099E-02
(PID.TID 0000.0001) %MON forcing_fu_del2              =   6.8835621662477E-04
(PID.TID 0000.0001) %MON forcing_fv_max               =   1.8680120908603E-01
(PID.TID 0000.0001) %MON forcing_fv_min               =  -1.7747596551990E-01
(PID.TID 0000.0001) %MON forcing_fv_mean              =  -6.7306027712320E-03
(PID.TID 0000.0001) %MON forcing_fv_sd                =   4.4505795787846E-02
(PID.TID 0000.0001) %MON forcing_fv_del2              =   4.6933292157477E-04
(PID.TID 0000.0001) %MON trAdv_CFL_u_max              =   1.2708540436479E-01
(PID.TID 0000.0001) %MON trAdv_CFL_v_max              =   4.4946401232789E-02
(PID.TID 0000.0001) %MON trAdv_CFL_w_max              =   1.0597594750759E-01
(PID.TID 0000.0001) %MON advcfl_uvel_max              =   1.2942303832233E-01
(PID.TID 0000.0001) %MON advcfl_vvel_max              =   4.3832384383518E-02
(PID.TID 0000.0001) %MON advcfl_wvel_max              =   9.7573814582797E-02
(PID.TID 0000.0001) %MON advcfl_W_hf_max              =   1.1850951157741E-01
(PID.TID 0000.0001) %MON pe_b_mean                    =  -7.9128324369026E-03
(PID.TID 0000.0001) %MON ke_max                       =   2.0330618001007E-02
(PID.TID 0000.0001) %MON ke_mean                      =   1.6021207766099E-04
(PID.TID 0000.0001) %MON ke_vol                       =   1.3442141716554E+22
(PID.TID 0000.0001) %MON vort_r_min                   =  -5.5434077858536E-07
(PID.TID 0000.0001) %MON vort_r_max                   =   5.8652152649257E-07
(PID.TID 0000.0001) %MON vort_a_mean                  =  -2.4598205282204E-05
(PID.TID 0000.0001) %MON vort_a_sd                    =   7.3637276146907E-05
(PID.TID 0000.0001) %MON vort_p_mean                  =  -2.9476090357749E-05
(PID.TID 0000.0001) %MON vort_p_sd                    =   1.0363761163573E-04
(PID.TID 0000.0001) %MON surfExpan_theta_mean         =  -4.1875565650955E-04
(PID.TID 0000.0001) %MON surfExpan_salt_mean          =   1.2441096963517E-04
(PID.TID 0000.0001) // =======================================================
(PID.TID 0000.0001) // End MONITOR dynamic field statistics
(PID.TID 0000.0001) // =======================================================
(PID.TID 0000.0001) %CHECKPOINT        20 ckptA
(PID.TID 0000.0001)   Seconds in section "ALL                    [THE_MODEL_MAIN]":
(PID.TID 0000.0001)           User time:   10.843999862670898
(PID.TID 0000.0001)         System time:   1.9999999552965164E-002
(PID.TID 0000.0001)     Wall clock time:   10.870580911636353
(PID.TID 0000.0001)          No. starts:           1
(PID.TID 0000.0001)           No. stops:           1
(PID.TID 0000.0001)   Seconds in section "INITIALISE_FIXED       [THE_MODEL_MAIN]":
(PID.TID 0000.0001)           User time:   7.5999997556209564E-002
(PID.TID 0000.0001)         System time:   0.0000000000000000
(PID.TID 0000.0001)     Wall clock time:   7.7105998992919922E-002
(PID.TID 0000.0001)          No. starts:           1
(PID.TID 0000.0001)           No. stops:           1
(PID.TID 0000.0001)   Seconds in section "THE_MAIN_LOOP          [THE_MODEL_MAIN]":
(PID.TID 0000.0001)           User time:   10.767999865114689
(PID.TID 0000.0001)         System time:   1.9999999552965164E-002
(PID.TID 0000.0001)     Wall clock time:   10.793437004089355
(PID.TID 0000.0001)          No. starts:           1
(PID.TID 0000.0001)           No. stops:           1
(PID.TID 0000.0001)   Seconds in section "INITIALISE_VARIA    [THE_MAIN_LOOP]":
(PID.TID 0000.0001)           User time:  0.16800000518560410
(PID.TID 0000.0001)         System time:   1.2000000104308128E-002
(PID.TID 0000.0001)     Wall clock time:  0.18038105964660645
(PID.TID 0000.0001)          No. starts:           1
(PID.TID 0000.0001)           No. stops:           1
(PID.TID 0000.0001)   Seconds in section "MAIN LOOP           [THE_MAIN_LOOP]":
(PID.TID 0000.0001)           User time:   10.599999859929085
(PID.TID 0000.0001)         System time:   7.9999994486570358E-003
(PID.TID 0000.0001)     Wall clock time:   10.613031148910522
(PID.TID 0000.0001)          No. starts:           1
(PID.TID 0000.0001)           No. stops:           1
(PID.TID 0000.0001)   Seconds in section "MAIN_DO_LOOP        [THE_MAIN_LOOP]":
(PID.TID 0000.0001)           User time:   10.599999859929085
(PID.TID 0000.0001)         System time:   7.9999994486570358E-003
(PID.TID 0000.0001)     Wall clock time:   10.612872838973999
(PID.TID 0000.0001)          No. starts:          20
(PID.TID 0000.0001)           No. stops:          20
(PID.TID 0000.0001)   Seconds in section "FORWARD_STEP        [MAIN_DO_LOOP]":
(PID.TID 0000.0001)           User time:   10.599999859929085
(PID.TID 0000.0001)         System time:   7.9999994486570358E-003
(PID.TID 0000.0001)     Wall clock time:   10.612559795379639
(PID.TID 0000.0001)          No. starts:          20
(PID.TID 0000.0001)           No. stops:          20
(PID.TID 0000.0001)   Seconds in section "UPDATE_SURF_DR      [FORWARD_STEP]":
(PID.TID 0000.0001)           User time:   7.9997181892395020E-003
(PID.TID 0000.0001)         System time:   0.0000000000000000
(PID.TID 0000.0001)     Wall clock time:   1.3631820678710938E-002
(PID.TID 0000.0001)          No. starts:          40
(PID.TID 0000.0001)           No. stops:          40
(PID.TID 0000.0001)   Seconds in section "LOAD_FIELDS_DRIVER  [FORWARD_STEP]":
(PID.TID 0000.0001)           User time:   2.4000570178031921E-002
(PID.TID 0000.0001)         System time:   0.0000000000000000
(PID.TID 0000.0001)     Wall clock time:   1.4940261840820312E-002
(PID.TID 0000.0001)          No. starts:          20
(PID.TID 0000.0001)           No. stops:          20
(PID.TID 0000.0001)   Seconds in section "EXTERNAL_FLDS_LOAD [LOAD_FLDS_DRIVER]":
(PID.TID 0000.0001)           User time:   2.4000570178031921E-002
(PID.TID 0000.0001)         System time:   0.0000000000000000
(PID.TID 0000.0001)     Wall clock time:   1.4625310897827148E-002
(PID.TID 0000.0001)          No. starts:          20
(PID.TID 0000.0001)           No. stops:          20
(PID.TID 0000.0001)   Seconds in section "DO_ATMOSPHERIC_PHYS [FORWARD_STEP]":
(PID.TID 0000.0001)           User time:   0.0000000000000000
(PID.TID 0000.0001)         System time:   0.0000000000000000
(PID.TID 0000.0001)     Wall clock time:   1.5640258789062500E-004
(PID.TID 0000.0001)          No. starts:          20
(PID.TID 0000.0001)           No. stops:          20
(PID.TID 0000.0001)   Seconds in section "DO_OCEANIC_PHYS     [FORWARD_STEP]":
(PID.TID 0000.0001)           User time:  0.44000110030174255
(PID.TID 0000.0001)         System time:   4.0000006556510925E-003
(PID.TID 0000.0001)     Wall clock time:  0.44844770431518555
(PID.TID 0000.0001)          No. starts:          20
(PID.TID 0000.0001)           No. stops:          20
(PID.TID 0000.0001)   Seconds in section "THERMODYNAMICS      [FORWARD_STEP]":
(PID.TID 0000.0001)           User time:   2.3359991312026978
(PID.TID 0000.0001)         System time:   0.0000000000000000
(PID.TID 0000.0001)     Wall clock time:   2.3343055248260498
(PID.TID 0000.0001)          No. starts:          20
(PID.TID 0000.0001)           No. stops:          20
(PID.TID 0000.0001)   Seconds in section "DYNAMICS            [FORWARD_STEP]":
(PID.TID 0000.0001)           User time:   3.2999998927116394
(PID.TID 0000.0001)         System time:   3.9999987930059433E-003
(PID.TID 0000.0001)     Wall clock time:   3.3050475120544434
(PID.TID 0000.0001)          No. starts:          20
(PID.TID 0000.0001)           No. stops:          20
(PID.TID 0000.0001)   Seconds in section "UPDATE_CG2D         [FORWARD_STEP]":
(PID.TID 0000.0001)           User time:   8.7999880313873291E-002
(PID.TID 0000.0001)         System time:   0.0000000000000000
(PID.TID 0000.0001)     Wall clock time:   9.2025518417358398E-002
(PID.TID 0000.0001)          No. starts:          20
(PID.TID 0000.0001)           No. stops:          20
(PID.TID 0000.0001)   Seconds in section "SOLVE_FOR_PRESSURE  [FORWARD_STEP]":
(PID.TID 0000.0001)           User time:   1.9840012192726135
(PID.TID 0000.0001)         System time:   0.0000000000000000
(PID.TID 0000.0001)     Wall clock time:   1.9723703861236572
(PID.TID 0000.0001)          No. starts:          20
(PID.TID 0000.0001)           No. stops:          20
(PID.TID 0000.0001)   Seconds in section "MOM_CORRECTION_STEP [FORWARD_STEP]":
(PID.TID 0000.0001)           User time:  0.11999756097793579
(PID.TID 0000.0001)         System time:   0.0000000000000000
(PID.TID 0000.0001)     Wall clock time:  0.12149858474731445
(PID.TID 0000.0001)          No. starts:          20
(PID.TID 0000.0001)           No. stops:          20
(PID.TID 0000.0001)   Seconds in section "INTEGR_CONTINUITY   [FORWARD_STEP]":
(PID.TID 0000.0001)           User time:  0.25200194120407104
(PID.TID 0000.0001)         System time:   0.0000000000000000
(PID.TID 0000.0001)     Wall clock time:  0.25608181953430176
(PID.TID 0000.0001)          No. starts:          20
(PID.TID 0000.0001)           No. stops:          20
(PID.TID 0000.0001)   Seconds in section "CALC_SURF_DR      [FORWARD_STEP]":
(PID.TID 0000.0001)           User time:   2.3998796939849854E-002
(PID.TID 0000.0001)         System time:   0.0000000000000000
(PID.TID 0000.0001)     Wall clock time:   1.9392728805541992E-002
(PID.TID 0000.0001)          No. starts:          20
(PID.TID 0000.0001)           No. stops:          20
(PID.TID 0000.0001)   Seconds in section "TRC_CORRECTION_STEP [FORWARD_STEP]":
(PID.TID 0000.0001)           User time:   0.0000000000000000
(PID.TID 0000.0001)         System time:   0.0000000000000000
(PID.TID 0000.0001)     Wall clock time:   1.6331672668457031E-004
(PID.TID 0000.0001)          No. starts:          20
(PID.TID 0000.0001)           No. stops:          20
(PID.TID 0000.0001)   Seconds in section "BLOCKING_EXCHANGES  [FORWARD_STEP]":
(PID.TID 0000.0001)           User time:   4.0000915527343750E-002
(PID.TID 0000.0001)         System time:   0.0000000000000000
(PID.TID 0000.0001)     Wall clock time:   4.5019865036010742E-002
(PID.TID 0000.0001)          No. starts:          20
(PID.TID 0000.0001)           No. stops:          20
(PID.TID 0000.0001)   Seconds in section "DO_STATEVARS_TAVE   [FORWARD_STEP]":
(PID.TID 0000.0001)           User time:  0.76399862766265869
(PID.TID 0000.0001)         System time:   0.0000000000000000
(PID.TID 0000.0001)     Wall clock time:  0.75596880912780762
(PID.TID 0000.0001)          No. starts:          20
(PID.TID 0000.0001)           No. stops:          20
(PID.TID 0000.0001)   Seconds in section "MONITOR             [FORWARD_STEP]":
(PID.TID 0000.0001)           User time:   1.1679999828338623
(PID.TID 0000.0001)         System time:   0.0000000000000000
(PID.TID 0000.0001)     Wall clock time:   1.1810512542724609
(PID.TID 0000.0001)          No. starts:          20
(PID.TID 0000.0001)           No. stops:          20
(PID.TID 0000.0001)   Seconds in section "DO_THE_MODEL_IO     [FORWARD_STEP]":
(PID.TID 0000.0001)           User time:   2.8000831604003906E-002
(PID.TID 0000.0001)         System time:   0.0000000000000000
(PID.TID 0000.0001)     Wall clock time:   2.5872707366943359E-002
(PID.TID 0000.0001)          No. starts:          20
(PID.TID 0000.0001)           No. stops:          20
(PID.TID 0000.0001)   Seconds in section "DO_WRITE_PICKUP     [FORWARD_STEP]":
(PID.TID 0000.0001)           User time:   1.9999504089355469E-002
(PID.TID 0000.0001)         System time:   0.0000000000000000
(PID.TID 0000.0001)     Wall clock time:   2.2850513458251953E-002
(PID.TID 0000.0001)          No. starts:          20
(PID.TID 0000.0001)           No. stops:          20
(PID.TID 0000.0001) // ======================================================
(PID.TID 0000.0001) // Tile <-> Tile communication statistics
(PID.TID 0000.0001) // ======================================================
(PID.TID 0000.0001) // o Tile number: 000001
(PID.TID 0000.0001) //         No. X exchanges =              0
(PID.TID 0000.0001) //            Max. X spins =              0
(PID.TID 0000.0001) //            Min. X spins =     1000000000
(PID.TID 0000.0001) //          Total. X spins =              0
(PID.TID 0000.0001) //            Avg. X spins =       0.00E+00
(PID.TID 0000.0001) //         No. Y exchanges =              0
(PID.TID 0000.0001) //            Max. Y spins =              0
(PID.TID 0000.0001) //            Min. Y spins =     1000000000
(PID.TID 0000.0001) //          Total. Y spins =              0
(PID.TID 0000.0001) //            Avg. Y spins =       0.00E+00
(PID.TID 0000.0001) // o Tile number: 000002
(PID.TID 0000.0001) //         No. X exchanges =              0
(PID.TID 0000.0001) //            Max. X spins =              0
(PID.TID 0000.0001) //            Min. X spins =     1000000000
(PID.TID 0000.0001) //          Total. X spins =              0
(PID.TID 0000.0001) //            Avg. X spins =       0.00E+00
(PID.TID 0000.0001) //         No. Y exchanges =              0
(PID.TID 0000.0001) //            Max. Y spins =              0
(PID.TID 0000.0001) //            Min. Y spins =     1000000000
(PID.TID 0000.0001) //          Total. Y spins =              0
(PID.TID 0000.0001) //            Avg. Y spins =       0.00E+00
(PID.TID 0000.0001) // o Thread number: 000001
(PID.TID 0000.0001) //            No. barriers =          16106
(PID.TID 0000.0001) //      Max. barrier spins =              1
(PID.TID 0000.0001) //      Min. barrier spins =              1
(PID.TID 0000.0001) //     Total barrier spins =          16106
(PID.TID 0000.0001) //      Avg. barrier spins =       1.00E+00
PROGRAM MAIN: Execution ended Normally
